MODEL 1
REMARK VINA RESULT:      -8.6      0.000      0.000
REMARK  2 active torsions:
REMARK  status: ('A' for Active; 'I' for Inactive)
REMARK    1  A    between atoms: C_2  and  N_3 
REMARK    2  A    between atoms: N_3  and  C_4 
ROOT
HETATM    1  C   UNL     1      41.251 -16.833   4.109  1.00  0.00     0.143 A 
HETATM    2  N   UNL     1      40.895 -15.923   5.048  1.00  0.00    -0.223 NA
HETATM    3  C   UNL     1      41.562 -15.862   6.207  1.00  0.00     0.236 A 
HETATM    4  N   UNL     1      42.586 -16.619   6.588  1.00  0.00    -0.234 NA
HETATM    5  C   UNL     1      42.940 -17.507   5.647  1.00  0.00     0.114 A 
HETATM    6  C   UNL     1      42.358 -17.681   4.396  1.00  0.00     0.053 A 
HETATM    7  S   UNL     1      44.229 -18.579   5.947  1.00  0.00    -0.073 SA
HETATM    8  C   UNL     1      44.066 -19.296   4.421  1.00  0.00    -0.008 A 
HETATM    9  C   UNL     1      43.060 -18.723   3.661  1.00  0.00    -0.028 A 
HETATM   10  C   UNL     1      42.783 -19.209   2.264  1.00  0.00     0.041 C 
HETATM   11  C   UNL     1      43.911 -20.093   1.708  1.00  0.00     0.005 C 
HETATM   12  C   UNL     1      44.404 -21.107   2.744  1.00  0.00     0.005 C 
HETATM   13  C   UNL     1      44.976 -20.402   3.980  1.00  0.00     0.047 C 
ENDROOT
BRANCH   1  14
HETATM   14  N   UNL     1      40.532 -16.929   2.906  1.00  0.00    -0.340 N 
HETATM   15  H   UNL     1      40.078 -17.821   2.788  1.00  0.00     0.167 HD
BRANCH  14  16
HETATM   16  C   UNL     1      40.180 -15.993   1.913  1.00  0.00     0.036 A 
HETATM   17  C   UNL     1      39.024 -15.186   1.965  1.00  0.00     0.032 A 
HETATM   18  C   UNL     1      38.731 -14.249   0.963  1.00  0.00     0.042 A 
HETATM   19  C   UNL     1      39.616 -14.127  -0.080  1.00  0.00     0.105 A 
HETATM   20  C   UNL     1      40.752 -14.892  -0.146  1.00  0.00     0.107 A 
HETATM   21  O   UNL     1      39.501 -13.275  -1.133  1.00  0.00    -0.323 OA
HETATM   22  C   UNL     1      41.060 -15.822   0.828  1.00  0.00     0.069 A 
HETATM   23  O   UNL     1      41.502 -14.618  -1.247  1.00  0.00    -0.323 OA
HETATM   24  C   UNL     1      40.702 -13.589  -1.868  1.00  0.00     0.352 A 
ENDBRANCH  14  16
ENDBRANCH   1  14
TORSDOF 2
ENDMDL
MODEL 2
REMARK VINA RESULT:      -8.3      3.640      6.668
REMARK  2 active torsions:
REMARK  status: ('A' for Active; 'I' for Inactive)
REMARK    1  A    between atoms: C_2  and  N_3 
REMARK    2  A    between atoms: N_3  and  C_4 
ROOT
HETATM    1  C   UNL     1      42.640 -16.522   4.065  1.00  0.00     0.143 A 
HETATM    2  N   UNL     1      42.573 -16.472   5.417  1.00  0.00    -0.223 NA
HETATM    3  C   UNL     1      41.644 -15.714   6.013  1.00  0.00     0.236 A 
HETATM    4  N   UNL     1      40.725 -14.955   5.426  1.00  0.00    -0.234 NA
HETATM    5  C   UNL     1      40.790 -15.021   4.088  1.00  0.00     0.114 A 
HETATM    6  C   UNL     1      41.682 -15.770   3.327  1.00  0.00     0.053 A 
HETATM    7  S   UNL     1      39.700 -14.111   3.149  1.00  0.00    -0.073 SA
HETATM    8  C   UNL     1      40.366 -14.693   1.703  1.00  0.00    -0.008 A 
HETATM    9  C   UNL     1      41.396 -15.595   1.910  1.00  0.00    -0.028 A 
HETATM   10  C   UNL     1      42.095 -16.242   0.745  1.00  0.00     0.041 C 
HETATM   11  C   UNL     1      41.330 -16.067  -0.577  1.00  0.00     0.005 C 
HETATM   12  C   UNL     1      40.805 -14.639  -0.748  1.00  0.00     0.005 C 
HETATM   13  C   UNL     1      39.823 -14.272   0.372  1.00  0.00     0.047 C 
ENDROOT
BRANCH   1  14
HETATM   14  N   UNL     1      43.635 -17.284   3.431  1.00  0.00    -0.340 N 
HETATM   15  H   UNL     1      44.440 -16.740   3.166  1.00  0.00     0.167 HD
BRANCH  14  16
HETATM   16  C   UNL     1      43.814 -18.668   3.236  1.00  0.00     0.036 A 
HETATM   17  C   UNL     1      43.553 -19.333   2.018  1.00  0.00     0.032 A 
HETATM   18  C   UNL     1      43.773 -20.710   1.866  1.00  0.00     0.042 A 
HETATM   19  C   UNL     1      44.266 -21.404   2.944  1.00  0.00     0.105 A 
HETATM   20  C   UNL     1      44.539 -20.778   4.132  1.00  0.00     0.107 A 
HETATM   21  O   UNL     1      44.545 -22.734   2.981  1.00  0.00    -0.323 OA
HETATM   22  C   UNL     1      44.328 -19.424   4.306  1.00  0.00     0.069 A 
HETATM   23  O   UNL     1      45.027 -21.632   5.072  1.00  0.00    -0.323 OA
HETATM   24  C   UNL     1      45.030 -22.871   4.332  1.00  0.00     0.352 A 
ENDBRANCH  14  16
ENDBRANCH   1  14
TORSDOF 2
ENDMDL
MODEL 3
REMARK VINA RESULT:      -8.3      1.898      2.366
REMARK  2 active torsions:
REMARK  status: ('A' for Active; 'I' for Inactive)
REMARK    1  A    between atoms: C_2  and  N_3 
REMARK    2  A    between atoms: N_3  and  C_4 
ROOT
HETATM    1  C   UNL     1      42.188 -17.095   5.604  1.00  0.00     0.143 A 
HETATM    2  N   UNL     1      42.179 -16.728   6.908  1.00  0.00    -0.223 NA
HETATM    3  C   UNL     1      42.869 -17.440   7.808  1.00  0.00     0.236 A 
HETATM    4  N   UNL     1      43.602 -18.525   7.586  1.00  0.00    -0.234 NA
HETATM    5  C   UNL     1      43.616 -18.874   6.291  1.00  0.00     0.114 A 
HETATM    6  C   UNL     1      42.967 -18.231   5.242  1.00  0.00     0.053 A 
HETATM    7  S   UNL     1      44.494 -20.248   5.801  1.00  0.00    -0.073 SA
HETATM    8  C   UNL     1      44.055 -20.023   4.179  1.00  0.00    -0.008 A 
HETATM    9  C   UNL     1      43.266 -18.902   3.985  1.00  0.00    -0.028 A 
HETATM   10  C   UNL     1      42.799 -18.523   2.606  1.00  0.00     0.041 C 
HETATM   11  C   UNL     1      43.557 -19.268   1.496  1.00  0.00     0.005 C 
HETATM   12  C   UNL     1      43.728 -20.755   1.821  1.00  0.00     0.005 C 
HETATM   13  C   UNL     1      44.540 -20.951   3.107  1.00  0.00     0.047 C 
ENDROOT
BRANCH   1  14
HETATM   14  N   UNL     1      41.437 -16.377   4.659  1.00  0.00    -0.340 N 
HETATM   15  H   UNL     1      40.457 -16.613   4.672  1.00  0.00     0.167 HD
BRANCH  14  16
HETATM   16  C   UNL     1      41.732 -15.287   3.816  1.00  0.00     0.036 A 
HETATM   17  C   UNL     1      42.583 -14.220   4.176  1.00  0.00     0.032 A 
HETATM   18  C   UNL     1      42.867 -13.171   3.290  1.00  0.00     0.042 A 
HETATM   19  C   UNL     1      42.297 -13.213   2.041  1.00  0.00     0.105 A 
HETATM   20  C   UNL     1      41.478 -14.245   1.665  1.00  0.00     0.107 A 
HETATM   21  O   UNL     1      42.461 -12.293   1.054  1.00  0.00    -0.323 OA
HETATM   22  C   UNL     1      41.182 -15.288   2.521  1.00  0.00     0.069 A 
HETATM   23  O   UNL     1      41.021 -14.110   0.391  1.00  0.00    -0.323 OA
HETATM   24  C   UNL     1      41.652 -12.869   0.009  1.00  0.00     0.352 A 
ENDBRANCH  14  16
ENDBRANCH   1  14
TORSDOF 2
ENDMDL
MODEL 4
REMARK VINA RESULT:      -8.1      2.035      2.559
REMARK  2 active torsions:
REMARK  status: ('A' for Active; 'I' for Inactive)
REMARK    1  A    between atoms: C_2  and  N_3 
REMARK    2  A    between atoms: N_3  and  C_4 
ROOT
HETATM    1  C   UNL     1      43.220 -17.061   5.452  1.00  0.00     0.143 A 
HETATM    2  N   UNL     1      42.975 -16.375   6.594  1.00  0.00    -0.223 NA
HETATM    3  C   UNL     1      43.099 -16.984   7.780  1.00  0.00     0.236 A 
HETATM    4  N   UNL     1      43.448 -18.246   8.004  1.00  0.00    -0.234 NA
HETATM    5  C   UNL     1      43.702 -18.914   6.870  1.00  0.00     0.114 A 
HETATM    6  C   UNL     1      43.632 -18.419   5.571  1.00  0.00     0.053 A 
HETATM    7  S   UNL     1      44.157 -20.553   6.943  1.00  0.00    -0.073 SA
HETATM    8  C   UNL     1      44.291 -20.653   5.257  1.00  0.00    -0.008 A 
HETATM    9  C   UNL     1      44.021 -19.453   4.623  1.00  0.00    -0.028 A 
HETATM   10  C   UNL     1      44.116 -19.338   3.125  1.00  0.00     0.041 C 
HETATM   11  C   UNL     1      44.851 -20.526   2.484  1.00  0.00     0.005 C 
HETATM   12  C   UNL     1      44.404 -21.863   3.083  1.00  0.00     0.005 C 
HETATM   13  C   UNL     1      44.708 -21.926   4.585  1.00  0.00     0.047 C 
ENDROOT
BRANCH   1  14
HETATM   14  N   UNL     1      43.055 -16.441   4.202  1.00  0.00    -0.340 N 
HETATM   15  H   UNL     1      43.923 -16.316   3.706  1.00  0.00     0.167 HD
BRANCH  14  16
HETATM   16  C   UNL     1      41.924 -16.108   3.431  1.00  0.00     0.036 A 
HETATM   17  C   UNL     1      41.198 -17.036   2.654  1.00  0.00     0.032 A 
HETATM   18  C   UNL     1      40.062 -16.660   1.923  1.00  0.00     0.042 A 
HETATM   19  C   UNL     1      39.659 -15.348   1.993  1.00  0.00     0.105 A 
HETATM   20  C   UNL     1      40.340 -14.432   2.752  1.00  0.00     0.107 A 
HETATM   21  O   UNL     1      38.585 -14.805   1.362  1.00  0.00    -0.323 OA
HETATM   22  C   UNL     1      41.463 -14.779   3.477  1.00  0.00     0.069 A 
HETATM   23  O   UNL     1      39.782 -13.193   2.698  1.00  0.00    -0.323 OA
HETATM   24  C   UNL     1      38.667 -13.438   1.815  1.00  0.00     0.352 A 
ENDBRANCH  14  16
ENDBRANCH   1  14
TORSDOF 2
ENDMDL
MODEL 5
REMARK VINA RESULT:      -8.1      3.843      4.570
REMARK  2 active torsions:
REMARK  status: ('A' for Active; 'I' for Inactive)
REMARK    1  A    between atoms: C_2  and  N_3 
REMARK    2  A    between atoms: N_3  and  C_4 
ROOT
HETATM    1  C   UNL     1      43.157 -16.418   6.198  1.00  0.00     0.143 A 
HETATM    2  N   UNL     1      43.171 -16.343   7.551  1.00  0.00    -0.223 NA
HETATM    3  C   UNL     1      43.531 -17.410   8.276  1.00  0.00     0.236 A 
HETATM    4  N   UNL     1      43.896 -18.605   7.823  1.00  0.00    -0.234 NA
HETATM    5  C   UNL     1      43.892 -18.666   6.484  1.00  0.00     0.114 A 
HETATM    6  C   UNL     1      43.559 -17.645   5.599  1.00  0.00     0.053 A 
HETATM    7  S   UNL     1      44.321 -20.119   5.708  1.00  0.00    -0.073 SA
HETATM    8  C   UNL     1      44.095 -19.437   4.174  1.00  0.00    -0.008 A 
HETATM    9  C   UNL     1      43.719 -18.105   4.227  1.00  0.00    -0.028 A 
HETATM   10  C   UNL     1      43.498 -17.319   2.962  1.00  0.00     0.041 C 
HETATM   11  C   UNL     1      44.059 -18.026   1.718  1.00  0.00     0.005 C 
HETATM   12  C   UNL     1      43.724 -19.521   1.712  1.00  0.00     0.005 C 
HETATM   13  C   UNL     1      44.336 -20.231   2.926  1.00  0.00     0.047 C 
ENDROOT
BRANCH   1  14
HETATM   14  N   UNL     1      42.743 -15.317   5.431  1.00  0.00    -0.340 N 
HETATM   15  H   UNL     1      43.134 -15.313   4.503  1.00  0.00     0.167 HD
BRANCH  14  16
HETATM   16  C   UNL     1      41.776 -14.310   5.628  1.00  0.00     0.036 A 
HETATM   17  C   UNL     1      40.384 -14.528   5.553  1.00  0.00     0.032 A 
HETATM   18  C   UNL     1      39.461 -13.498   5.783  1.00  0.00     0.042 A 
HETATM   19  C   UNL     1      39.952 -12.255   6.099  1.00  0.00     0.105 A 
HETATM   20  C   UNL     1      41.300 -12.022   6.190  1.00  0.00     0.107 A 
HETATM   21  O   UNL     1      39.214 -11.144   6.359  1.00  0.00    -0.323 OA
HETATM   22  C   UNL     1      42.228 -13.020   5.966  1.00  0.00     0.069 A 
HETATM   23  O   UNL     1      41.585 -10.734   6.522  1.00  0.00    -0.323 OA
HETATM   24  C   UNL     1      40.255 -10.183   6.629  1.00  0.00     0.352 A 
ENDBRANCH  14  16
ENDBRANCH   1  14
TORSDOF 2
ENDMDL
MODEL 6
REMARK VINA RESULT:      -7.9      1.762      2.344
REMARK  2 active torsions:
REMARK  status: ('A' for Active; 'I' for Inactive)
REMARK    1  A    between atoms: C_2  and  N_3 
REMARK    2  A    between atoms: N_3  and  C_4 
ROOT
HETATM    1  C   UNL     1      40.605 -15.570   3.026  1.00  0.00     0.143 A 
HETATM    2  N   UNL     1      39.925 -14.685   3.795  1.00  0.00    -0.223 NA
HETATM    3  C   UNL     1      40.072 -14.704   5.125  1.00  0.00     0.236 A 
HETATM    4  N   UNL     1      40.838 -15.522   5.840  1.00  0.00    -0.234 NA
HETATM    5  C   UNL     1      41.517 -16.386   5.071  1.00  0.00     0.114 A 
HETATM    6  C   UNL     1      41.482 -16.479   3.683  1.00  0.00     0.053 A 
HETATM    7  S   UNL     1      42.550 -17.526   5.799  1.00  0.00    -0.073 SA
HETATM    8  C   UNL     1      42.996 -18.171   4.296  1.00  0.00    -0.008 A 
HETATM    9  C   UNL     1      42.394 -17.521   3.232  1.00  0.00    -0.028 A 
HETATM   10  C   UNL     1      42.689 -17.935   1.815  1.00  0.00     0.041 C 
HETATM   11  C   UNL     1      43.922 -18.845   1.707  1.00  0.00     0.005 C 
HETATM   12  C   UNL     1      43.932 -19.923   2.795  1.00  0.00     0.005 C 
HETATM   13  C   UNL     1      43.978 -19.297   4.194  1.00  0.00     0.047 C 
ENDROOT
BRANCH   1  14
HETATM   14  N   UNL     1      40.427 -15.584   1.633  1.00  0.00    -0.340 N 
HETATM   15  H   UNL     1      39.681 -16.191   1.337  1.00  0.00     0.167 HD
BRANCH  14  16
HETATM   16  C   UNL     1      40.960 -14.809   0.584  1.00  0.00     0.036 A 
HETATM   17  C   UNL     1      40.843 -15.144  -0.782  1.00  0.00     0.032 A 
HETATM   18  C   UNL     1      41.369 -14.325  -1.792  1.00  0.00     0.042 A 
HETATM   19  C   UNL     1      42.001 -13.165  -1.414  1.00  0.00     0.105 A 
HETATM   20  C   UNL     1      42.116 -12.813  -0.094  1.00  0.00     0.107 A 
HETATM   21  O   UNL     1      42.564 -12.251  -2.248  1.00  0.00    -0.323 OA
HETATM   22  C   UNL     1      41.608 -13.604   0.917  1.00  0.00     0.069 A 
HETATM   23  O   UNL     1      42.765 -11.629   0.074  1.00  0.00    -0.323 OA
HETATM   24  C   UNL     1      43.044 -11.278  -1.298  1.00  0.00     0.352 A 
ENDBRANCH  14  16
ENDBRANCH   1  14
TORSDOF 2
ENDMDL
MODEL 7
REMARK VINA RESULT:      -7.8      3.410      5.071
REMARK  2 active torsions:
REMARK  status: ('A' for Active; 'I' for Inactive)
REMARK    1  A    between atoms: C_2  and  N_3 
REMARK    2  A    between atoms: N_3  and  C_4 
ROOT
HETATM    1  C   UNL     1      40.966 -16.633   3.359  1.00  0.00     0.143 A 
HETATM    2  N   UNL     1      40.545 -16.657   2.071  1.00  0.00    -0.223 NA
HETATM    3  C   UNL     1      41.173 -17.430   1.176  1.00  0.00     0.236 A 
HETATM    4  N   UNL     1      42.217 -18.223   1.389  1.00  0.00    -0.234 NA
HETATM    5  C   UNL     1      42.619 -18.204   2.668  1.00  0.00     0.114 A 
HETATM    6  C   UNL     1      42.063 -17.470   3.711  1.00  0.00     0.053 A 
HETATM    7  S   UNL     1      43.952 -19.149   3.144  1.00  0.00    -0.073 SA
HETATM    8  C   UNL     1      43.826 -18.627   4.751  1.00  0.00    -0.008 A 
HETATM    9  C   UNL     1      42.767 -17.758   4.953  1.00  0.00    -0.028 A 
HETATM   10  C   UNL     1      42.476 -17.208   6.323  1.00  0.00     0.041 C 
HETATM   11  C   UNL     1      43.217 -17.966   7.436  1.00  0.00     0.005 C 
HETATM   12  C   UNL     1      44.675 -18.248   7.061  1.00  0.00     0.005 C 
HETATM   13  C   UNL     1      44.764 -19.126   5.807  1.00  0.00     0.047 C 
ENDROOT
BRANCH   1  14
HETATM   14  N   UNL     1      40.338 -15.797   4.296  1.00  0.00    -0.340 N 
HETATM   15  H   UNL     1      39.583 -16.249   4.785  1.00  0.00     0.167 HD
BRANCH  14  16
HETATM   16  C   UNL     1      40.644 -14.520   4.809  1.00  0.00     0.036 A 
HETATM   17  C   UNL     1      41.831 -13.816   4.516  1.00  0.00     0.032 A 
HETATM   18  C   UNL     1      42.077 -12.535   5.031  1.00  0.00     0.042 A 
HETATM   19  C   UNL     1      41.114 -11.969   5.831  1.00  0.00     0.105 A 
HETATM   20  C   UNL     1      39.948 -12.629   6.119  1.00  0.00     0.107 A 
HETATM   21  O   UNL     1      41.175 -10.742   6.412  1.00  0.00    -0.323 OA
HETATM   22  C   UNL     1      39.685 -13.891   5.625  1.00  0.00     0.069 A 
HETATM   23  O   UNL     1      39.121 -11.901   6.917  1.00  0.00    -0.323 OA
HETATM   24  C   UNL     1      39.907 -10.703   7.097  1.00  0.00     0.352 A 
ENDBRANCH  14  16
ENDBRANCH   1  14
TORSDOF 2
ENDMDL
MODEL 8
REMARK VINA RESULT:      -7.7      2.639      4.214
REMARK  2 active torsions:
REMARK  status: ('A' for Active; 'I' for Inactive)
REMARK    1  A    between atoms: C_2  and  N_3 
REMARK    2  A    between atoms: N_3  and  C_4 
ROOT
HETATM    1  C   UNL     1      44.213 -19.707   2.514  1.00  0.00     0.143 A 
HETATM    2  N   UNL     1      44.405 -20.775   1.702  1.00  0.00    -0.223 NA
HETATM    3  C   UNL     1      44.569 -21.995   2.230  1.00  0.00     0.236 A 
HETATM    4  N   UNL     1      44.572 -22.322   3.518  1.00  0.00    -0.234 NA
HETATM    5  C   UNL     1      44.367 -21.262   4.313  1.00  0.00     0.114 A 
HETATM    6  C   UNL     1      44.167 -19.943   3.917  1.00  0.00     0.053 A 
HETATM    7  S   UNL     1      44.344 -21.471   6.002  1.00  0.00    -0.073 SA
HETATM    8  C   UNL     1      44.052 -19.822   6.262  1.00  0.00    -0.008 A 
HETATM    9  C   UNL     1      43.944 -19.102   5.085  1.00  0.00    -0.028 A 
HETATM   10  C   UNL     1      43.657 -17.625   5.113  1.00  0.00     0.041 C 
HETATM   11  C   UNL     1      43.174 -17.140   6.488  1.00  0.00     0.005 C 
HETATM   12  C   UNL     1      44.001 -17.740   7.628  1.00  0.00     0.005 C 
HETATM   13  C   UNL     1      43.892 -19.270   7.646  1.00  0.00     0.047 C 
ENDROOT
BRANCH   1  14
HETATM   14  N   UNL     1      44.079 -18.419   1.972  1.00  0.00    -0.340 N 
HETATM   15  H   UNL     1      44.921 -18.088   1.529  1.00  0.00     0.167 HD
BRANCH  14  16
HETATM   16  C   UNL     1      42.976 -17.563   1.774  1.00  0.00     0.036 A 
HETATM   17  C   UNL     1      41.642 -18.009   1.666  1.00  0.00     0.032 A 
HETATM   18  C   UNL     1      40.575 -17.114   1.496  1.00  0.00     0.042 A 
HETATM   19  C   UNL     1      40.864 -15.772   1.447  1.00  0.00     0.105 A 
HETATM   20  C   UNL     1      42.152 -15.315   1.562  1.00  0.00     0.107 A 
HETATM   21  O   UNL     1      39.966 -14.764   1.293  1.00  0.00    -0.323 OA
HETATM   22  C   UNL     1      43.218 -16.177   1.728  1.00  0.00     0.069 A 
HETATM   23  O   UNL     1      42.231 -13.959   1.498  1.00  0.00    -0.323 OA
HETATM   24  C   UNL     1      40.838 -13.616   1.329  1.00  0.00     0.352 A 
ENDBRANCH  14  16
ENDBRANCH   1  14
TORSDOF 2
ENDMDL
MODEL 9
REMARK VINA RESULT:      -7.7      2.144      3.711
REMARK  2 active torsions:
REMARK  status: ('A' for Active; 'I' for Inactive)
REMARK    1  A    between atoms: C_2  and  N_3 
REMARK    2  A    between atoms: N_3  and  C_4 
ROOT
HETATM    1  C   UNL     1      42.618 -18.444   2.645  1.00  0.00     0.143 A 
HETATM    2  N   UNL     1      42.974 -19.213   1.587  1.00  0.00    -0.223 NA
HETATM    3  C   UNL     1      43.850 -20.212   1.752  1.00  0.00     0.236 A 
HETATM    4  N   UNL     1      44.458 -20.573   2.877  1.00  0.00    -0.234 NA
HETATM    5  C   UNL     1      44.091 -19.815   3.920  1.00  0.00     0.114 A 
HETATM    6  C   UNL     1      43.186 -18.758   3.912  1.00  0.00     0.053 A 
HETATM    7  S   UNL     1      44.767 -20.114   5.454  1.00  0.00    -0.073 SA
HETATM    8  C   UNL     1      43.870 -18.861   6.159  1.00  0.00    -0.008 A 
HETATM    9  C   UNL     1      43.036 -18.222   5.257  1.00  0.00    -0.028 A 
HETATM   10  C   UNL     1      42.139 -17.099   5.704  1.00  0.00     0.041 C 
HETATM   11  C   UNL     1      42.012 -17.014   7.234  1.00  0.00     0.005 C 
HETATM   12  C   UNL     1      43.366 -17.182   7.929  1.00  0.00     0.005 C 
HETATM   13  C   UNL     1      43.979 -18.554   7.621  1.00  0.00     0.047 C 
ENDROOT
BRANCH   1  14
HETATM   14  N   UNL     1      41.730 -17.370   2.474  1.00  0.00    -0.340 N 
HETATM   15  H   UNL     1      41.028 -17.320   3.195  1.00  0.00     0.167 HD
BRANCH  14  16
HETATM   16  C   UNL     1      41.711 -16.260   1.606  1.00  0.00     0.036 A 
HETATM   17  C   UNL     1      41.266 -16.313   0.267  1.00  0.00     0.032 A 
HETATM   18  C   UNL     1      41.242 -15.173  -0.549  1.00  0.00     0.042 A 
HETATM   19  C   UNL     1      41.658 -13.983  -0.003  1.00  0.00     0.105 A 
HETATM   20  C   UNL     1      42.082 -13.905   1.298  1.00  0.00     0.107 A 
HETATM   21  O   UNL     1      41.698 -12.782  -0.637  1.00  0.00    -0.323 OA
HETATM   22  C   UNL     1      42.117 -15.014   2.120  1.00  0.00     0.069 A 
HETATM   23  O   UNL     1      42.443 -12.642   1.653  1.00  0.00    -0.323 OA
HETATM   24  C   UNL     1      42.195 -11.935   0.419  1.00  0.00     0.352 A 
ENDBRANCH  14  16
ENDBRANCH   1  14
TORSDOF 2
ENDMDL
MODEL 10
REMARK VINA RESULT:      -7.4      3.774      6.793
REMARK  2 active torsions:
REMARK  status: ('A' for Active; 'I' for Inactive)
REMARK    1  A    between atoms: C_2  and  N_3 
REMARK    2  A    between atoms: N_3  and  C_4 
ROOT
HETATM    1  C   UNL     1      41.752 -15.208   2.331  1.00  0.00     0.143 A 
HETATM    2  N   UNL     1      42.005 -14.594   3.513  1.00  0.00    -0.223 NA
HETATM    3  C   UNL     1      42.270 -13.282   3.542  1.00  0.00     0.236 A 
HETATM    4  N   UNL     1      42.327 -12.449   2.508  1.00  0.00    -0.234 NA
HETATM    5  C   UNL     1      42.063 -13.061   1.345  1.00  0.00     0.114 A 
HETATM    6  C   UNL     1      41.757 -14.405   1.155  1.00  0.00     0.053 A 
HETATM    7  S   UNL     1      42.094 -12.165  -0.102  1.00  0.00    -0.073 SA
HETATM    8  C   UNL     1      41.688 -13.526  -1.025  1.00  0.00    -0.008 A 
HETATM    9  C   UNL     1      41.499 -14.662  -0.255  1.00  0.00    -0.028 A 
HETATM   10  C   UNL     1      41.105 -15.966  -0.895  1.00  0.00     0.041 C 
HETATM   11  C   UNL     1      40.619 -15.794  -2.343  1.00  0.00     0.005 C 
HETATM   12  C   UNL     1      41.515 -14.837  -3.135  1.00  0.00     0.005 C 
HETATM   13  C   UNL     1      41.520 -13.436  -2.511  1.00  0.00     0.047 C 
ENDROOT
BRANCH   1  14
HETATM   14  N   UNL     1      41.511 -16.590   2.286  1.00  0.00    -0.340 N 
HETATM   15  H   UNL     1      40.606 -16.821   1.911  1.00  0.00     0.167 HD
BRANCH  14  16
HETATM   16  C   UNL     1      42.325 -17.721   2.502  1.00  0.00     0.036 A 
HETATM   17  C   UNL     1      42.762 -18.585   1.476  1.00  0.00     0.032 A 
HETATM   18  C   UNL     1      43.594 -19.683   1.739  1.00  0.00     0.042 A 
HETATM   19  C   UNL     1      43.988 -19.894   3.038  1.00  0.00     0.105 A 
HETATM   20  C   UNL     1      43.587 -19.060   4.049  1.00  0.00     0.107 A 
HETATM   21  O   UNL     1      44.792 -20.897   3.479  1.00  0.00    -0.323 OA
HETATM   22  C   UNL     1      42.766 -17.974   3.815  1.00  0.00     0.069 A 
HETATM   23  O   UNL     1      44.088 -19.429   5.259  1.00  0.00    -0.323 OA
HETATM   24  C   UNL     1      44.854 -20.595   4.888  1.00  0.00     0.352 A 
ENDBRANCH  14  16
ENDBRANCH   1  14
TORSDOF 2
ENDMDL
