MODEL 1
REMARK VINA RESULT:      -9.0      0.000      0.000
REMARK  4 active torsions:
REMARK  status: ('A' for Active; 'I' for Inactive)
REMARK    1  A    between atoms: C_6  and  N_7 
REMARK       I    between atoms: N_7  and  C_8 
REMARK    2  A    between atoms: C_8  and  C_9 
REMARK    3  A    between atoms: C_10  and  C_11 
REMARK    4  A    between atoms: C_14  and  O_15 
ROOT
HETATM    1  C   UNL     1      40.752 -14.916   0.775  1.00  0.00     0.131 C 
HETATM    2  C   UNL     1      41.228 -14.644  -0.677  1.00  0.00     0.177 C 
HETATM    3  N   UNL     1      41.851 -13.318  -0.758  1.00  0.00    -0.088 N 
HETATM    4  C   UNL     1      41.729 -12.328   0.184  1.00  0.00     0.721 A 
HETATM    5  N   UNL     1      41.066 -12.532   1.345  1.00  0.00    -0.218 N 
HETATM    6  C   UNL     1      40.127 -13.651   1.409  1.00  0.00     0.111 C 
HETATM    7  C   UNL     1      39.667 -13.863   2.849  1.00  0.00     0.034 C 
HETATM    8  N   UNL     1      42.722 -12.957  -1.723  1.00  0.00    -0.149 NA
HETATM    9  C   UNL     1      43.016 -11.710  -1.345  1.00  0.00     0.275 A 
HETATM   10  N   UNL     1      42.431 -11.289  -0.182  1.00  0.00    -0.055 NA
HETATM   11  H   UNL     1      40.774 -11.676   1.820  1.00  0.00     0.178 HD
ENDROOT
BRANCH   1  12
HETATM   12  C   UNL     1      41.915 -15.546   1.555  1.00  0.00     0.230 C 
HETATM   13  N   UNL     1      41.727 -16.851   1.944  1.00  0.00    -0.326 N 
HETATM   14  H   UNL     1      40.834 -17.249   1.651  1.00  0.00     0.169 HD
HETATM   15  O   UNL     1      42.864 -14.819   1.835  1.00  0.00    -0.273 OA
BRANCH  13  16
HETATM   16  C   UNL     1      42.514 -17.764   2.686  1.00  0.00     0.040 A 
HETATM   17  C   UNL     1      42.590 -17.933   4.080  1.00  0.00    -0.035 A 
HETATM   18  C   UNL     1      43.448 -18.936   4.599  1.00  0.00     0.015 A 
HETATM   19  C   UNL     1      41.842 -17.127   5.100  1.00  0.00     0.050 C 
HETATM   20  C   UNL     1      44.237 -19.747   3.777  1.00  0.00    -0.061 A 
HETATM   21  C   UNL     1      45.143 -20.793   4.354  1.00  0.00     0.048 C 
HETATM   22  C   UNL     1      44.175 -19.557   2.403  1.00  0.00     0.009 A 
HETATM   23  C   UNL     1      43.327 -18.582   1.872  1.00  0.00     0.030 A 
ENDBRANCH  13  16
ENDBRANCH   1  12
BRANCH   2  24
HETATM   24  C   UNL     1      40.162 -14.796  -1.774  1.00  0.00    -0.032 A 
HETATM   25  C   UNL     1      38.963 -14.070  -1.813  1.00  0.00     0.012 A 
HETATM   26  C   UNL     1      38.041 -14.254  -2.850  1.00  0.00     0.037 A 
HETATM   27  C   UNL     1      38.289 -15.160  -3.879  1.00  0.00     0.068 A 
HETATM   28  C   UNL     1      39.459 -15.909  -3.847  1.00  0.00     0.037 A 
HETATM   29  C   UNL     1      40.378 -15.732  -2.804  1.00  0.00     0.012 A 
BRANCH  27  30
HETATM   30  O   UNL     1      37.313 -15.227  -4.835  1.00  0.00    -0.356 OA
HETATM   31  C   UNL     1      36.198 -14.360  -4.666  1.00  0.00     0.210 C 
ENDBRANCH  27  30
ENDBRANCH   2  24
TORSDOF 4
ENDMDL
MODEL 2
REMARK VINA RESULT:      -7.8      2.328      4.695
REMARK  4 active torsions:
REMARK  status: ('A' for Active; 'I' for Inactive)
REMARK    1  A    between atoms: C_6  and  N_7 
REMARK       I    between atoms: N_7  and  C_8 
REMARK    2  A    between atoms: C_8  and  C_9 
REMARK    3  A    between atoms: C_10  and  C_11 
REMARK    4  A    between atoms: C_14  and  O_15 
ROOT
HETATM    1  C   UNL     1      41.606 -14.585  -0.616  1.00  0.00     0.131 C 
HETATM    2  C   UNL     1      41.253 -13.372   0.285  1.00  0.00     0.177 C 
HETATM    3  N   UNL     1      39.796 -13.234   0.387  1.00  0.00    -0.088 N 
HETATM    4  C   UNL     1      38.884 -13.838  -0.442  1.00  0.00     0.721 A 
HETATM    5  N   UNL     1      39.268 -14.705  -1.405  1.00  0.00    -0.218 N 
HETATM    6  C   UNL     1      40.665 -14.672  -1.840  1.00  0.00     0.111 C 
HETATM    7  C   UNL     1      40.958 -15.867  -2.743  1.00  0.00     0.034 C 
HETATM    8  N   UNL     1      39.173 -12.584   1.392  1.00  0.00    -0.149 NA
HETATM    9  C   UNL     1      37.892 -12.765   1.056  1.00  0.00     0.275 A 
HETATM   10  N   UNL     1      37.674 -13.529  -0.059  1.00  0.00    -0.055 NA
HETATM   11  H   UNL     1      38.576 -14.851  -2.142  1.00  0.00     0.178 HD
ENDROOT
BRANCH   1  12
HETATM   12  C   UNL     1      41.669 -15.840   0.267  1.00  0.00     0.230 C 
HETATM   13  N   UNL     1      42.790 -15.953   1.054  1.00  0.00    -0.326 N 
HETATM   14  H   UNL     1      43.443 -15.174   0.966  1.00  0.00     0.169 HD
HETATM   15  O   UNL     1      40.770 -16.666   0.135  1.00  0.00    -0.273 OA
BRANCH  13  16
HETATM   16  C   UNL     1      43.242 -16.942   1.961  1.00  0.00     0.040 A 
HETATM   17  C   UNL     1      43.388 -16.857   3.357  1.00  0.00    -0.035 A 
HETATM   18  C   UNL     1      43.847 -17.997   4.065  1.00  0.00     0.015 A 
HETATM   19  C   UNL     1      43.110 -15.643   4.192  1.00  0.00     0.050 C 
HETATM   20  C   UNL     1      44.181 -19.194   3.423  1.00  0.00    -0.061 A 
HETATM   21  C   UNL     1      44.674 -20.381   4.196  1.00  0.00     0.048 C 
HETATM   22  C   UNL     1      44.057 -19.261   2.041  1.00  0.00     0.009 A 
HETATM   23  C   UNL     1      43.596 -18.153   1.328  1.00  0.00     0.030 A 
ENDBRANCH  13  16
ENDBRANCH   1  12
BRANCH   2  24
HETATM   24  C   UNL     1      41.885 -12.029  -0.116  1.00  0.00    -0.032 A 
HETATM   25  C   UNL     1      41.712 -10.833   0.596  1.00  0.00     0.012 A 
HETATM   26  C   UNL     1      42.328  -9.648   0.176  1.00  0.00     0.037 A 
HETATM   27  C   UNL     1      43.136  -9.621  -0.959  1.00  0.00     0.068 A 
HETATM   28  C   UNL     1      43.300 -10.789  -1.694  1.00  0.00     0.037 A 
HETATM   29  C   UNL     1      42.677 -11.974  -1.280  1.00  0.00     0.012 A 
BRANCH  27  30
HETATM   30  O   UNL     1      43.687  -8.403  -1.244  1.00  0.00    -0.356 OA
HETATM   31  C   UNL     1      43.967  -7.557  -0.135  1.00  0.00     0.210 C 
ENDBRANCH  27  30
ENDBRANCH   2  24
TORSDOF 4
ENDMDL
MODEL 3
REMARK VINA RESULT:      -7.5      3.315      6.243
REMARK  4 active torsions:
REMARK  status: ('A' for Active; 'I' for Inactive)
REMARK    1  A    between atoms: C_6  and  N_7 
REMARK       I    between atoms: N_7  and  C_8 
REMARK    2  A    between atoms: C_8  and  C_9 
REMARK    3  A    between atoms: C_10  and  C_11 
REMARK    4  A    between atoms: C_14  and  O_15 
ROOT
HETATM    1  C   UNL     1      41.852 -14.844   4.124  1.00  0.00     0.131 C 
HETATM    2  C   UNL     1      40.364 -14.422   3.994  1.00  0.00     0.177 C 
HETATM    3  N   UNL     1      40.014 -14.258   2.579  1.00  0.00    -0.088 N 
HETATM    4  C   UNL     1      40.913 -14.145   1.549  1.00  0.00     0.721 A 
HETATM    5  N   UNL     1      42.244 -14.260   1.756  1.00  0.00    -0.218 N 
HETATM    6  C   UNL     1      42.744 -14.080   3.118  1.00  0.00     0.111 C 
HETATM    7  C   UNL     1      44.215 -14.482   3.191  1.00  0.00     0.034 C 
HETATM    8  N   UNL     1      38.751 -14.320   2.108  1.00  0.00    -0.149 NA
HETATM    9  C   UNL     1      38.960 -14.149   0.799  1.00  0.00     0.275 A 
HETATM   10  N   UNL     1      40.270 -14.041   0.417  1.00  0.00    -0.055 NA
HETATM   11  H   UNL     1      42.823 -13.863   1.013  1.00  0.00     0.178 HD
ENDROOT
BRANCH   1  12
HETATM   12  C   UNL     1      41.927 -16.376   4.052  1.00  0.00     0.230 C 
HETATM   13  N   UNL     1      43.147 -16.923   4.368  1.00  0.00    -0.326 N 
HETATM   14  H   UNL     1      43.857 -16.239   4.630  1.00  0.00     0.169 HD
HETATM   15  O   UNL     1      40.933 -16.969   3.641  1.00  0.00    -0.273 OA
BRANCH  13  16
HETATM   16  C   UNL     1      43.636 -18.252   4.394  1.00  0.00     0.040 A 
HETATM   17  C   UNL     1      44.000 -19.079   3.317  1.00  0.00    -0.035 A 
HETATM   18  C   UNL     1      44.485 -20.383   3.592  1.00  0.00     0.015 A 
HETATM   19  C   UNL     1      43.912 -18.712   1.865  1.00  0.00     0.050 C 
HETATM   20  C   UNL     1      44.593 -20.884   4.894  1.00  0.00    -0.061 A 
HETATM   21  C   UNL     1      45.099 -22.270   5.155  1.00  0.00     0.048 C 
HETATM   22  C   UNL     1      44.208 -20.069   5.950  1.00  0.00     0.009 A 
HETATM   23  C   UNL     1      43.739 -18.778   5.700  1.00  0.00     0.030 A 
ENDBRANCH  13  16
ENDBRANCH   1  12
BRANCH   2  24
HETATM   24  C   UNL     1      39.946 -13.175   4.791  1.00  0.00    -0.032 A 
HETATM   25  C   UNL     1      39.654 -11.932   4.212  1.00  0.00     0.012 A 
HETATM   26  C   UNL     1      39.270 -10.841   5.001  1.00  0.00     0.037 A 
HETATM   27  C   UNL     1      39.161 -10.958   6.385  1.00  0.00     0.068 A 
HETATM   28  C   UNL     1      39.471 -12.174   6.983  1.00  0.00     0.037 A 
HETATM   29  C   UNL     1      39.864 -13.264   6.195  1.00  0.00     0.012 A 
BRANCH  27  30
HETATM   30  O   UNL     1      38.761  -9.820   7.029  1.00  0.00    -0.356 OA
HETATM   31  C   UNL     1      39.088  -9.724   8.410  1.00  0.00     0.210 C 
ENDBRANCH  27  30
ENDBRANCH   2  24
TORSDOF 4
ENDMDL
MODEL 4
REMARK VINA RESULT:      -7.4      2.064      7.923
REMARK  4 active torsions:
REMARK  status: ('A' for Active; 'I' for Inactive)
REMARK    1  A    between atoms: C_6  and  N_7 
REMARK       I    between atoms: N_7  and  C_8 
REMARK    2  A    between atoms: C_8  and  C_9 
REMARK    3  A    between atoms: C_10  and  C_11 
REMARK    4  A    between atoms: C_14  and  O_15 
ROOT
HETATM    1  C   UNL     1      40.983 -14.682   0.367  1.00  0.00     0.131 C 
HETATM    2  C   UNL     1      40.742 -15.558   1.626  1.00  0.00     0.177 C 
HETATM    3  N   UNL     1      40.571 -14.702   2.805  1.00  0.00    -0.088 N 
HETATM    4  C   UNL     1      40.911 -13.374   2.874  1.00  0.00     0.721 A 
HETATM    5  N   UNL     1      41.374 -12.704   1.796  1.00  0.00    -0.218 N 
HETATM    6  C   UNL     1      41.911 -13.486   0.682  1.00  0.00     0.111 C 
HETATM    7  C   UNL     1      42.156 -12.580  -0.521  1.00  0.00     0.034 C 
HETATM    8  N   UNL     1      39.942 -15.095   3.932  1.00  0.00    -0.149 NA
HETATM    9  C   UNL     1      40.017 -13.981   4.666  1.00  0.00     0.275 A 
HETATM   10  N   UNL     1      40.601 -12.905   4.054  1.00  0.00    -0.055 NA
HETATM   11  H   UNL     1      41.876 -11.842   2.017  1.00  0.00     0.178 HD
ENDROOT
BRANCH   1  12
HETATM   12  C   UNL     1      39.618 -14.324  -0.240  1.00  0.00     0.230 C 
HETATM   13  N   UNL     1      39.543 -14.399  -1.610  1.00  0.00    -0.326 N 
HETATM   14  H   UNL     1      40.408 -14.701  -2.059  1.00  0.00     0.169 HD
HETATM   15  O   UNL     1      38.748 -13.926   0.530  1.00  0.00    -0.273 OA
BRANCH  13  16
HETATM   16  C   UNL     1      38.511 -14.129  -2.540  1.00  0.00     0.040 A 
HETATM   17  C   UNL     1      38.042 -14.930  -3.595  1.00  0.00    -0.035 A 
HETATM   18  C   UNL     1      36.972 -14.450  -4.393  1.00  0.00     0.015 A 
HETATM   19  C   UNL     1      38.584 -16.275  -3.977  1.00  0.00     0.050 C 
HETATM   20  C   UNL     1      36.383 -13.199  -4.183  1.00  0.00    -0.061 A 
HETATM   21  C   UNL     1      35.260 -12.712  -5.049  1.00  0.00     0.048 C 
HETATM   22  C   UNL     1      36.869 -12.403  -3.155  1.00  0.00     0.009 A 
HETATM   23  C   UNL     1      37.913 -12.863  -2.351  1.00  0.00     0.030 A 
ENDBRANCH  13  16
ENDBRANCH   1  12
BRANCH   2  24
HETATM   24  C   UNL     1      41.800 -16.638   1.906  1.00  0.00    -0.032 A 
HETATM   25  C   UNL     1      41.808 -17.456   3.045  1.00  0.00     0.012 A 
HETATM   26  C   UNL     1      42.800 -18.427   3.230  1.00  0.00     0.037 A 
HETATM   27  C   UNL     1      43.805 -18.615   2.283  1.00  0.00     0.068 A 
HETATM   28  C   UNL     1      43.831 -17.798   1.159  1.00  0.00     0.037 A 
HETATM   29  C   UNL     1      42.845 -16.820   0.978  1.00  0.00     0.012 A 
BRANCH  27  30
HETATM   30  O   UNL     1      44.697 -19.608   2.582  1.00  0.00    -0.356 OA
HETATM   31  C   UNL     1      44.204 -20.941   2.534  1.00  0.00     0.210 C 
ENDBRANCH  27  30
ENDBRANCH   2  24
TORSDOF 4
ENDMDL
MODEL 5
REMARK VINA RESULT:      -7.3      3.918      6.925
REMARK  4 active torsions:
REMARK  status: ('A' for Active; 'I' for Inactive)
REMARK    1  A    between atoms: C_6  and  N_7 
REMARK       I    between atoms: N_7  and  C_8 
REMARK    2  A    between atoms: C_8  and  C_9 
REMARK    3  A    between atoms: C_10  and  C_11 
REMARK    4  A    between atoms: C_14  and  O_15 
ROOT
HETATM    1  C   UNL     1      42.174 -14.411   4.724  1.00  0.00     0.131 C 
HETATM    2  C   UNL     1      40.760 -13.778   4.818  1.00  0.00     0.177 C 
HETATM    3  N   UNL     1      40.385 -13.201   3.522  1.00  0.00    -0.088 N 
HETATM    4  C   UNL     1      41.253 -12.938   2.493  1.00  0.00     0.721 A 
HETATM    5  N   UNL     1      42.560 -13.277   2.563  1.00  0.00    -0.218 N 
HETATM    6  C   UNL     1      43.131 -13.532   3.885  1.00  0.00     0.111 C 
HETATM    7  C   UNL     1      44.529 -14.128   3.743  1.00  0.00     0.034 C 
HETATM    8  N   UNL     1      39.110 -12.969   3.146  1.00  0.00    -0.149 NA
HETATM    9  C   UNL     1      39.294 -12.487   1.913  1.00  0.00     0.275 A 
HETATM   10  N   UNL     1      40.590 -12.454   1.476  1.00  0.00    -0.055 NA
HETATM   11  H   UNL     1      43.162 -12.777   1.906  1.00  0.00     0.178 HD
ENDROOT
BRANCH   1  12
HETATM   12  C   UNL     1      42.022 -15.866   4.255  1.00  0.00     0.230 C 
HETATM   13  N   UNL     1      43.197 -16.559   4.092  1.00  0.00    -0.326 N 
HETATM   14  H   UNL     1      44.034 -16.023   4.320  1.00  0.00     0.169 HD
HETATM   15  O   UNL     1      40.889 -16.254   3.987  1.00  0.00    -0.273 OA
BRANCH  13  16
HETATM   16  C   UNL     1      43.494 -17.873   3.656  1.00  0.00     0.040 A 
HETATM   17  C   UNL     1      44.214 -18.881   4.320  1.00  0.00    -0.035 A 
HETATM   18  C   UNL     1      44.370 -20.140   3.685  1.00  0.00     0.015 A 
HETATM   19  C   UNL     1      44.862 -18.749   5.667  1.00  0.00     0.050 C 
HETATM   20  C   UNL     1      43.853 -20.407   2.413  1.00  0.00    -0.061 A 
HETATM   21  C   UNL     1      44.042 -21.743   1.761  1.00  0.00     0.048 C 
HETATM   22  C   UNL     1      43.164 -19.397   1.753  1.00  0.00     0.009 A 
HETATM   23  C   UNL     1      42.990 -18.156   2.368  1.00  0.00     0.030 A 
ENDBRANCH  13  16
ENDBRANCH   1  12
BRANCH   2  24
HETATM   24  C   UNL     1      40.559 -12.743   5.937  1.00  0.00    -0.032 A 
HETATM   25  C   UNL     1      39.436 -12.698   6.775  1.00  0.00     0.012 A 
HETATM   26  C   UNL     1      39.325 -11.731   7.781  1.00  0.00     0.037 A 
HETATM   27  C   UNL     1      40.330 -10.787   7.985  1.00  0.00     0.068 A 
HETATM   28  C   UNL     1      41.440 -10.797   7.149  1.00  0.00     0.037 A 
HETATM   29  C   UNL     1      41.548 -11.759   6.135  1.00  0.00     0.012 A 
BRANCH  27  30
HETATM   30  O   UNL     1      40.099  -9.914   9.011  1.00  0.00    -0.356 OA
HETATM   31  C   UNL     1      40.944  -8.771   9.074  1.00  0.00     0.210 C 
ENDBRANCH  27  30
ENDBRANCH   2  24
TORSDOF 4
ENDMDL
MODEL 6
REMARK VINA RESULT:      -7.1      2.855      3.718
REMARK  4 active torsions:
REMARK  status: ('A' for Active; 'I' for Inactive)
REMARK    1  A    between atoms: C_6  and  N_7 
REMARK       I    between atoms: N_7  and  C_8 
REMARK    2  A    between atoms: C_8  and  C_9 
REMARK    3  A    between atoms: C_10  and  C_11 
REMARK    4  A    between atoms: C_14  and  O_15 
ROOT
HETATM    1  C   UNL     1      41.871 -15.409   1.736  1.00  0.00     0.131 C 
HETATM    2  C   UNL     1      42.159 -13.891   1.884  1.00  0.00     0.177 C 
HETATM    3  N   UNL     1      41.367 -13.338   2.988  1.00  0.00    -0.088 N 
HETATM    4  C   UNL     1      40.290 -13.953   3.574  1.00  0.00     0.721 A 
HETATM    5  N   UNL     1      39.907 -15.200   3.220  1.00  0.00    -0.218 N 
HETATM    6  C   UNL     1      40.369 -15.719   1.933  1.00  0.00     0.111 C 
HETATM    7  C   UNL     1      40.041 -17.206   1.822  1.00  0.00     0.034 C 
HETATM    8  N   UNL     1      41.684 -12.201   3.642  1.00  0.00    -0.149 NA
HETATM    9  C   UNL     1      40.706 -12.150   4.551  1.00  0.00     0.275 A 
HETATM   10  N   UNL     1      39.834 -13.205   4.543  1.00  0.00    -0.055 NA
HETATM   11  H   UNL     1      38.947 -15.437   3.477  1.00  0.00     0.178 HD
ENDROOT
BRANCH   1  12
HETATM   12  C   UNL     1      42.836 -16.175   2.652  1.00  0.00     0.230 C 
HETATM   13  N   UNL     1      42.632 -17.532   2.721  1.00  0.00    -0.326 N 
HETATM   14  H   UNL     1      41.868 -17.870   2.137  1.00  0.00     0.169 HD
HETATM   15  O   UNL     1      43.639 -15.512   3.302  1.00  0.00    -0.273 OA
BRANCH  13  16
HETATM   16  C   UNL     1      43.260 -18.570   3.451  1.00  0.00     0.040 A 
HETATM   17  C   UNL     1      43.370 -18.728   4.844  1.00  0.00    -0.035 A 
HETATM   18  C   UNL     1      44.038 -19.871   5.350  1.00  0.00     0.015 A 
HETATM   19  C   UNL     1      42.846 -17.772   5.874  1.00  0.00     0.050 C 
HETATM   20  C   UNL     1      44.611 -20.837   4.515  1.00  0.00    -0.061 A 
HETATM   21  C   UNL     1      45.320 -22.031   5.079  1.00  0.00     0.048 C 
HETATM   22  C   UNL     1      44.520 -20.661   3.141  1.00  0.00     0.009 A 
HETATM   23  C   UNL     1      43.856 -19.547   2.623  1.00  0.00     0.030 A 
ENDBRANCH  13  16
ENDBRANCH   1  12
BRANCH   2  24
HETATM   24  C   UNL     1      41.965 -13.042   0.617  1.00  0.00    -0.032 A 
HETATM   25  C   UNL     1      42.005 -11.641   0.594  1.00  0.00     0.012 A 
HETATM   26  C   UNL     1      41.828 -10.933  -0.601  1.00  0.00     0.037 A 
HETATM   27  C   UNL     1      41.613 -11.600  -1.806  1.00  0.00     0.068 A 
HETATM   28  C   UNL     1      41.543 -12.988  -1.802  1.00  0.00     0.037 A 
HETATM   29  C   UNL     1      41.711 -13.697  -0.605  1.00  0.00     0.012 A 
BRANCH  27  30
HETATM   30  O   UNL     1      41.474 -10.787  -2.896  1.00  0.00    -0.356 OA
HETATM   31  C   UNL     1      42.090 -11.228  -4.100  1.00  0.00     0.210 C 
ENDBRANCH  27  30
ENDBRANCH   2  24
TORSDOF 4
ENDMDL
MODEL 7
REMARK VINA RESULT:      -7.1      3.286      4.621
REMARK  4 active torsions:
REMARK  status: ('A' for Active; 'I' for Inactive)
REMARK    1  A    between atoms: C_6  and  N_7 
REMARK       I    between atoms: N_7  and  C_8 
REMARK    2  A    between atoms: C_8  and  C_9 
REMARK    3  A    between atoms: C_10  and  C_11 
REMARK    4  A    between atoms: C_14  and  O_15 
ROOT
HETATM    1  C   UNL     1      41.797 -14.545   1.590  1.00  0.00     0.131 C 
HETATM    2  C   UNL     1      41.200 -13.117   1.469  1.00  0.00     0.177 C 
HETATM    3  N   UNL     1      39.744 -13.197   1.311  1.00  0.00    -0.088 N 
HETATM    4  C   UNL     1      39.046 -14.328   0.971  1.00  0.00     0.721 A 
HETATM    5  N   UNL     1      39.660 -15.523   0.827  1.00  0.00    -0.218 N 
HETATM    6  C   UNL     1      41.108 -15.528   0.616  1.00  0.00     0.111 C 
HETATM    7  C   UNL     1      41.645 -16.953   0.718  1.00  0.00     0.034 C 
HETATM    8  N   UNL     1      38.902 -12.183   1.602  1.00  0.00    -0.149 NA
HETATM    9  C   UNL     1      37.722 -12.748   1.331  1.00  0.00     0.275 A 
HETATM   10  N   UNL     1      37.767 -14.061   0.945  1.00  0.00    -0.055 NA
HETATM   11  H   UNL     1      39.129 -16.210   0.288  1.00  0.00     0.178 HD
ENDROOT
BRANCH   1  12
HETATM   12  C   UNL     1      41.779 -14.951   3.071  1.00  0.00     0.230 C 
HETATM   13  N   UNL     1      42.899 -15.611   3.516  1.00  0.00    -0.326 N 
HETATM   14  H   UNL     1      43.620 -15.738   2.805  1.00  0.00     0.169 HD
HETATM   15  O   UNL     1      40.748 -14.733   3.701  1.00  0.00    -0.273 OA
BRANCH  13  16
HETATM   16  C   UNL     1      43.262 -16.170   4.765  1.00  0.00     0.040 A 
HETATM   17  C   UNL     1      43.651 -15.514   5.946  1.00  0.00    -0.035 A 
HETATM   18  C   UNL     1      43.956 -16.294   7.090  1.00  0.00     0.015 A 
HETATM   19  C   UNL     1      43.791 -14.030   6.115  1.00  0.00     0.050 C 
HETATM   20  C   UNL     1      43.905 -17.692   7.081  1.00  0.00    -0.061 A 
HETATM   21  C   UNL     1      44.242 -18.491   8.304  1.00  0.00     0.048 C 
HETATM   22  C   UNL     1      43.544 -18.333   5.903  1.00  0.00     0.009 A 
HETATM   23  C   UNL     1      43.230 -17.582   4.769  1.00  0.00     0.030 A 
ENDBRANCH  13  16
ENDBRANCH   1  12
BRANCH   2  24
HETATM   24  C   UNL     1      41.803 -12.227   0.370  1.00  0.00    -0.032 A 
HETATM   25  C   UNL     1      42.141 -12.679  -0.913  1.00  0.00     0.012 A 
HETATM   26  C   UNL     1      42.679 -11.808  -1.868  1.00  0.00     0.037 A 
HETATM   27  C   UNL     1      42.889 -10.462  -1.574  1.00  0.00     0.068 A 
HETATM   28  C   UNL     1      42.586  -9.997  -0.300  1.00  0.00     0.037 A 
HETATM   29  C   UNL     1      42.056 -10.871   0.659  1.00  0.00     0.012 A 
BRANCH  27  30
HETATM   30  O   UNL     1      43.403  -9.722  -2.602  1.00  0.00    -0.356 OA
HETATM   31  C   UNL     1      42.463  -9.112  -3.478  1.00  0.00     0.210 C 
ENDBRANCH  27  30
ENDBRANCH   2  24
TORSDOF 4
ENDMDL
MODEL 8
REMARK VINA RESULT:      -7.1      2.786      4.865
REMARK  4 active torsions:
REMARK  status: ('A' for Active; 'I' for Inactive)
REMARK    1  A    between atoms: C_6  and  N_7 
REMARK       I    between atoms: N_7  and  C_8 
REMARK    2  A    between atoms: C_8  and  C_9 
REMARK    3  A    between atoms: C_10  and  C_11 
REMARK    4  A    between atoms: C_14  and  O_15 
ROOT
HETATM    1  C   UNL     1      41.644 -14.169   0.679  1.00  0.00     0.131 C 
HETATM    2  C   UNL     1      41.207 -12.744   1.112  1.00  0.00     0.177 C 
HETATM    3  N   UNL     1      39.745 -12.634   1.060  1.00  0.00    -0.088 N 
HETATM    4  C   UNL     1      38.908 -13.504   0.409  1.00  0.00     0.721 A 
HETATM    5  N   UNL     1      39.377 -14.620  -0.194  1.00  0.00    -0.218 N 
HETATM    6  C   UNL     1      40.803 -14.678  -0.515  1.00  0.00     0.111 C 
HETATM    7  C   UNL     1      41.180 -16.088  -0.961  1.00  0.00     0.034 C 
HETATM    8  N   UNL     1      39.037 -11.719   1.756  1.00  0.00    -0.149 NA
HETATM    9  C   UNL     1      37.789 -12.045   1.407  1.00  0.00     0.275 A 
HETATM   10  N   UNL     1      37.668 -13.133   0.585  1.00  0.00    -0.055 NA
HETATM   11  H   UNL     1      38.747 -15.021  -0.891  1.00  0.00     0.178 HD
ENDROOT
BRANCH   1  12
HETATM   12  C   UNL     1      41.652 -15.071   1.921  1.00  0.00     0.230 C 
HETATM   13  N   UNL     1      42.874 -15.603   2.258  1.00  0.00    -0.326 N 
HETATM   14  H   UNL     1      43.637 -15.317   1.643  1.00  0.00     0.169 HD
HETATM   15  O   UNL     1      40.570 -15.307   2.451  1.00  0.00    -0.273 OA
BRANCH  13  16
HETATM   16  C   UNL     1      43.298 -16.484   3.281  1.00  0.00     0.040 A 
HETATM   17  C   UNL     1      43.729 -17.817   3.175  1.00  0.00    -0.035 A 
HETATM   18  C   UNL     1      44.127 -18.502   4.351  1.00  0.00     0.015 A 
HETATM   19  C   UNL     1      43.801 -18.613   1.905  1.00  0.00     0.050 C 
HETATM   20  C   UNL     1      44.084 -17.906   5.616  1.00  0.00    -0.061 A 
HETATM   21  C   UNL     1      44.500 -18.657   6.845  1.00  0.00     0.048 C 
HETATM   22  C   UNL     1      43.633 -16.597   5.716  1.00  0.00     0.009 A 
HETATM   23  C   UNL     1      43.249 -15.902   4.567  1.00  0.00     0.030 A 
ENDBRANCH  13  16
ENDBRANCH   1  12
BRANCH   2  24
HETATM   24  C   UNL     1      41.853 -11.579   0.345  1.00  0.00    -0.032 A 
HETATM   25  C   UNL     1      41.798 -10.240   0.756  1.00  0.00     0.012 A 
HETATM   26  C   UNL     1      42.419  -9.230   0.010  1.00  0.00     0.037 A 
HETATM   27  C   UNL     1      43.117  -9.527  -1.159  1.00  0.00     0.068 A 
HETATM   28  C   UNL     1      43.162 -10.844  -1.599  1.00  0.00     0.037 A 
HETATM   29  C   UNL     1      42.532 -11.854  -0.858  1.00  0.00     0.012 A 
BRANCH  27  30
HETATM   30  O   UNL     1      43.688  -8.449  -1.778  1.00  0.00    -0.356 OA
HETATM   31  C   UNL     1      44.194  -7.425  -0.930  1.00  0.00     0.210 C 
ENDBRANCH  27  30
ENDBRANCH   2  24
TORSDOF 4
ENDMDL
MODEL 9
REMARK VINA RESULT:      -7.1      2.619      3.724
REMARK  4 active torsions:
REMARK  status: ('A' for Active; 'I' for Inactive)
REMARK    1  A    between atoms: C_6  and  N_7 
REMARK       I    between atoms: N_7  and  C_8 
REMARK    2  A    between atoms: C_8  and  C_9 
REMARK    3  A    between atoms: C_10  and  C_11 
REMARK    4  A    between atoms: C_14  and  O_15 
ROOT
HETATM    1  C   UNL     1      40.987 -12.559   0.108  1.00  0.00     0.131 C 
HETATM    2  C   UNL     1      39.794 -13.371  -0.465  1.00  0.00     0.177 C 
HETATM    3  N   UNL     1      40.180 -13.994  -1.736  1.00  0.00    -0.088 N 
HETATM    4  C   UNL     1      41.276 -13.648  -2.486  1.00  0.00     0.721 A 
HETATM    5  N   UNL     1      42.165 -12.725  -2.057  1.00  0.00    -0.218 N 
HETATM    6  C   UNL     1      41.739 -11.798  -1.009  1.00  0.00     0.111 C 
HETATM    7  C   UNL     1      42.937 -11.004  -0.495  1.00  0.00     0.034 C 
HETATM    8  N   UNL     1      39.561 -15.072  -2.260  1.00  0.00    -0.149 NA
HETATM    9  C   UNL     1      40.283 -15.265  -3.368  1.00  0.00     0.275 A 
HETATM   10  N   UNL     1      41.343 -14.416  -3.540  1.00  0.00    -0.055 NA
HETATM   11  H   UNL     1      42.748 -12.325  -2.795  1.00  0.00     0.178 HD
ENDROOT
BRANCH   1  12
HETATM   12  C   UNL     1      41.843 -13.500   0.967  1.00  0.00     0.230 C 
HETATM   13  N   UNL     1      41.534 -14.835   0.869  1.00  0.00    -0.326 N 
HETATM   14  H   UNL     1      40.776 -15.041   0.218  1.00  0.00     0.169 HD
HETATM   15  O   UNL     1      42.662 -12.983   1.723  1.00  0.00    -0.273 OA
BRANCH  13  16
HETATM   16  C   UNL     1      42.043 -15.997   1.498  1.00  0.00     0.040 A 
HETATM   17  C   UNL     1      41.822 -16.461   2.806  1.00  0.00    -0.035 A 
HETATM   18  C   UNL     1      42.433 -17.674   3.212  1.00  0.00     0.015 A 
HETATM   19  C   UNL     1      40.990 -15.773   3.847  1.00  0.00     0.050 C 
HETATM   20  C   UNL     1      43.266 -18.415   2.365  1.00  0.00    -0.061 A 
HETATM   21  C   UNL     1      43.907 -19.690   2.824  1.00  0.00     0.048 C 
HETATM   22  C   UNL     1      43.499 -17.936   1.083  1.00  0.00     0.009 A 
HETATM   23  C   UNL     1      42.897 -16.749   0.661  1.00  0.00     0.030 A 
ENDBRANCH  13  16
ENDBRANCH   1  12
BRANCH   2  24
HETATM   24  C   UNL     1      38.474 -12.601  -0.632  1.00  0.00    -0.032 A 
HETATM   25  C   UNL     1      38.056 -12.006  -1.830  1.00  0.00     0.012 A 
HETATM   26  C   UNL     1      36.834 -11.327  -1.911  1.00  0.00     0.037 A 
HETATM   27  C   UNL     1      35.993 -11.228  -0.805  1.00  0.00     0.068 A 
HETATM   28  C   UNL     1      36.399 -11.788   0.400  1.00  0.00     0.037 A 
HETATM   29  C   UNL     1      37.626 -12.460   0.485  1.00  0.00     0.012 A 
BRANCH  27  30
HETATM   30  O   UNL     1      34.825 -10.553  -1.029  1.00  0.00    -0.356 OA
HETATM   31  C   UNL     1      33.849 -10.611   0.005  1.00  0.00     0.210 C 
ENDBRANCH  27  30
ENDBRANCH   2  24
TORSDOF 4
ENDMDL
MODEL 10
REMARK VINA RESULT:      -7.1      3.033      3.964
REMARK  4 active torsions:
REMARK  status: ('A' for Active; 'I' for Inactive)
REMARK    1  A    between atoms: C_6  and  N_7 
REMARK       I    between atoms: N_7  and  C_8 
REMARK    2  A    between atoms: C_8  and  C_9 
REMARK    3  A    between atoms: C_10  and  C_11 
REMARK    4  A    between atoms: C_14  and  O_15 
ROOT
HETATM    1  C   UNL     1      39.915 -13.752   2.801  1.00  0.00     0.131 C 
HETATM    2  C   UNL     1      39.443 -13.208   1.426  1.00  0.00     0.177 C 
HETATM    3  N   UNL     1      40.587 -12.664   0.686  1.00  0.00    -0.088 N 
HETATM    4  C   UNL     1      41.808 -12.355   1.232  1.00  0.00     0.721 A 
HETATM    5  N   UNL     1      42.090 -12.611   2.528  1.00  0.00    -0.218 N 
HETATM    6  C   UNL     1      40.969 -12.821   3.445  1.00  0.00     0.111 C 
HETATM    7  C   UNL     1      41.483 -13.330   4.789  1.00  0.00     0.034 C 
HETATM    8  N   UNL     1      40.610 -12.515  -0.655  1.00  0.00    -0.149 NA
HETATM    9  C   UNL     1      41.842 -12.031  -0.835  1.00  0.00     0.275 A 
HETATM   10  N   UNL     1      42.608 -11.921   0.294  1.00  0.00    -0.055 NA
HETATM   11  H   UNL     1      42.878 -12.080   2.903  1.00  0.00     0.178 HD
ENDROOT
BRANCH   1  12
HETATM   12  C   UNL     1      40.341 -15.217   2.621  1.00  0.00     0.230 C 
HETATM   13  N   UNL     1      41.562 -15.547   3.159  1.00  0.00    -0.326 N 
HETATM   14  H   UNL     1      42.033 -14.776   3.632  1.00  0.00     0.169 HD
HETATM   15  O   UNL     1      39.609 -15.936   1.947  1.00  0.00    -0.273 OA
BRANCH  13  16
HETATM   16  C   UNL     1      42.317 -16.745   3.185  1.00  0.00     0.040 A 
HETATM   17  C   UNL     1      42.412 -17.706   4.205  1.00  0.00    -0.035 A 
HETATM   18  C   UNL     1      43.229 -18.846   3.995  1.00  0.00     0.015 A 
HETATM   19  C   UNL     1      41.725 -17.637   5.537  1.00  0.00     0.050 C 
HETATM   20  C   UNL     1      43.961 -19.037   2.818  1.00  0.00    -0.061 A 
HETATM   21  C   UNL     1      44.825 -20.247   2.626  1.00  0.00     0.048 C 
HETATM   22  C   UNL     1      43.881 -18.070   1.825  1.00  0.00     0.009 A 
HETATM   23  C   UNL     1      43.073 -16.947   2.009  1.00  0.00     0.030 A 
ENDBRANCH  13  16
ENDBRANCH   1  12
BRANCH   2  24
HETATM   24  C   UNL     1      38.301 -12.180   1.466  1.00  0.00    -0.032 A 
HETATM   25  C   UNL     1      38.305 -11.028   2.265  1.00  0.00     0.012 A 
HETATM   26  C   UNL     1      37.232 -10.129   2.243  1.00  0.00     0.037 A 
HETATM   27  C   UNL     1      36.129 -10.348   1.420  1.00  0.00     0.068 A 
HETATM   28  C   UNL     1      36.092 -11.497   0.638  1.00  0.00     0.037 A 
HETATM   29  C   UNL     1      37.162 -12.402   0.667  1.00  0.00     0.012 A 
BRANCH  27  30
HETATM   30  O   UNL     1      35.163  -9.384   1.484  1.00  0.00    -0.356 OA
HETATM   31  C   UNL     1      33.883  -9.797   1.949  1.00  0.00     0.210 C 
ENDBRANCH  27  30
ENDBRANCH   2  24
TORSDOF 4
ENDMDL
