MODEL 1
REMARK VINA RESULT:      -8.3      0.000      0.000
REMARK  6 active torsions:
REMARK  status: ('A' for Active; 'I' for Inactive)
REMARK    1  A    between atoms: C_2  and  O_3 
REMARK    2  A    between atoms: C_2  and  C_4 
REMARK    3  A    between atoms: C_2  and  C_11 
REMARK    4  A    between atoms: C_11  and  N_12 
REMARK       I    between atoms: N_12  and  C_13 
REMARK    5  A    between atoms: C_13  and  C_14 
REMARK    6  A    between atoms: C_15  and  C_16 
ROOT
HETATM    1  N   UNL     1      41.978 -15.225   6.447  1.00  0.00    -0.354 N 
HETATM    2  C   UNL     1      43.261 -15.731   6.390  1.00  0.00     0.255 C 
HETATM    3  O   UNL     1      44.155 -15.181   5.756  1.00  0.00    -0.268 OA
HETATM    4  H   UNL     1      41.259 -15.762   6.906  1.00  0.00     0.162 HD
ENDROOT
BRANCH   2   5
HETATM    5  C   UNL     1      43.457 -16.979   7.118  1.00  0.00     0.080 A 
HETATM    6  C   UNL     1      43.673 -18.303   6.604  1.00  0.00     0.104 A 
HETATM    7  N   UNL     1      43.861 -19.180   7.608  1.00  0.00    -0.174 NA
HETATM    8  N   UNL     1      43.760 -18.454   8.722  1.00  0.00    -0.288 N 
HETATM    9  H   UNL     1      43.875 -18.928   9.612  1.00  0.00     0.188 HD
HETATM   10  C   UNL     1      43.516 -17.137   8.494  1.00  0.00     0.128 A 
BRANCH   6  11
HETATM   11  C   UNL     1      43.699 -18.784   5.219  1.00  0.00    -0.004 A 
HETATM   12  C   UNL     1      44.631 -19.768   4.841  1.00  0.00     0.017 A 
HETATM   13  C   UNL     1      44.661 -20.256   3.533  1.00  0.00     0.043 A 
HETATM   14  C   UNL     1      43.757 -19.766   2.599  1.00  0.00     0.116 A 
HETATM   15  F   UNL     1      43.785 -20.233   1.344  1.00  0.00    -0.206 F 
HETATM   16  C   UNL     1      42.820 -18.804   2.952  1.00  0.00     0.043 A 
HETATM   17  C   UNL     1      42.785 -18.318   4.263  1.00  0.00     0.017 A 
ENDBRANCH   6  11
ENDBRANCH   2   5
BRANCH   1  18
HETATM   18  C   UNL     1      41.597 -13.996   5.770  1.00  0.00     0.165 C 
BRANCH  18  19
HETATM   19  C   UNL     1      40.443 -14.152   4.735  1.00  0.00     0.097 C 
HETATM   20  C   UNL     1      39.753 -12.791   4.538  1.00  0.00     0.053 C 
BRANCH  19  21
HETATM   21  O   UNL     1      39.439 -14.988   5.343  1.00  0.00    -0.384 OA
HETATM   22  H   UNL     1      39.159 -14.555   6.169  1.00  0.00     0.211 HD
ENDBRANCH  19  21
BRANCH  19  23
HETATM   23  C   UNL     1      40.893 -14.831   3.439  1.00  0.00    -0.023 A 
HETATM   24  C   UNL     1      42.171 -14.651   2.881  1.00  0.00     0.013 A 
HETATM   25  C   UNL     1      42.531 -15.283   1.687  1.00  0.00     0.043 A 
HETATM   26  C   UNL     1      41.618 -16.102   1.038  1.00  0.00     0.116 A 
HETATM   27  F   UNL     1      41.967 -16.702  -0.108  1.00  0.00    -0.206 F 
HETATM   28  C   UNL     1      40.350 -16.303   1.560  1.00  0.00     0.043 A 
HETATM   29  C   UNL     1      39.989 -15.669   2.750  1.00  0.00     0.013 A 
ENDBRANCH  19  23
ENDBRANCH  18  19
ENDBRANCH   1  18
TORSDOF 6
ENDMDL
MODEL 2
REMARK VINA RESULT:      -8.1      3.182      4.674
REMARK  6 active torsions:
REMARK  status: ('A' for Active; 'I' for Inactive)
REMARK    1  A    between atoms: C_2  and  O_3 
REMARK    2  A    between atoms: C_2  and  C_4 
REMARK    3  A    between atoms: C_2  and  C_11 
REMARK    4  A    between atoms: C_11  and  N_12 
REMARK       I    between atoms: N_12  and  C_13 
REMARK    5  A    between atoms: C_13  and  C_14 
REMARK    6  A    between atoms: C_15  and  C_16 
ROOT
HETATM    1  N   UNL     1      43.977 -18.061   2.388  1.00  0.00    -0.354 N 
HETATM    2  C   UNL     1      43.893 -19.433   2.507  1.00  0.00     0.255 C 
HETATM    3  O   UNL     1      43.594 -20.156   1.563  1.00  0.00    -0.268 OA
HETATM    4  H   UNL     1      44.137 -17.505   3.214  1.00  0.00     0.162 HD
ENDROOT
BRANCH   2   5
HETATM    5  C   UNL     1      44.162 -19.946   3.845  1.00  0.00     0.080 A 
HETATM    6  C   UNL     1      43.756 -19.414   5.116  1.00  0.00     0.104 A 
HETATM    7  N   UNL     1      44.163 -20.214   6.120  1.00  0.00    -0.174 NA
HETATM    8  N   UNL     1      44.813 -21.213   5.521  1.00  0.00    -0.288 N 
HETATM    9  H   UNL     1      45.206 -21.944   6.106  1.00  0.00     0.188 HD
HETATM   10  C   UNL     1      44.848 -21.106   4.167  1.00  0.00     0.128 A 
BRANCH   6  11
HETATM   11  C   UNL     1      43.016 -18.189   5.434  1.00  0.00    -0.004 A 
HETATM   12  C   UNL     1      41.680 -18.052   5.014  1.00  0.00     0.017 A 
HETATM   13  C   UNL     1      40.949 -16.903   5.322  1.00  0.00     0.043 A 
HETATM   14  C   UNL     1      41.550 -15.888   6.056  1.00  0.00     0.116 A 
HETATM   15  F   UNL     1      40.851 -14.785   6.352  1.00  0.00    -0.206 F 
HETATM   16  C   UNL     1      42.863 -16.005   6.492  1.00  0.00     0.043 A 
HETATM   17  C   UNL     1      43.594 -17.157   6.189  1.00  0.00     0.017 A 
ENDBRANCH   6  11
ENDBRANCH   2   5
BRANCH   1  18
HETATM   18  C   UNL     1      43.729 -17.373   1.131  1.00  0.00     0.165 C 
BRANCH  18  19
HETATM   19  C   UNL     1      42.410 -16.546   1.089  1.00  0.00     0.097 C 
HETATM   20  C   UNL     1      41.211 -17.496   1.258  1.00  0.00     0.053 C 
BRANCH  19  21
HETATM   21  O   UNL     1      42.279 -16.025  -0.249  1.00  0.00    -0.384 OA
HETATM   22  H   UNL     1      41.704 -15.241  -0.202  1.00  0.00     0.211 HD
ENDBRANCH  19  21
BRANCH  19  23
HETATM   23  C   UNL     1      42.421 -15.356   2.053  1.00  0.00    -0.023 A 
HETATM   24  C   UNL     1      43.570 -14.944   2.751  1.00  0.00     0.013 A 
HETATM   25  C   UNL     1      43.526 -13.859   3.631  1.00  0.00     0.043 A 
HETATM   26  C   UNL     1      42.335 -13.173   3.823  1.00  0.00     0.116 A 
HETATM   27  F   UNL     1      42.298 -12.137   4.671  1.00  0.00    -0.206 F 
HETATM   28  C   UNL     1      41.184 -13.552   3.150  1.00  0.00     0.043 A 
HETATM   29  C   UNL     1      41.226 -14.638   2.274  1.00  0.00     0.013 A 
ENDBRANCH  19  23
ENDBRANCH  18  19
ENDBRANCH   1  18
TORSDOF 6
ENDMDL
MODEL 3
REMARK VINA RESULT:      -8.0      2.562      3.340
REMARK  6 active torsions:
REMARK  status: ('A' for Active; 'I' for Inactive)
REMARK    1  A    between atoms: C_2  and  O_3 
REMARK    2  A    between atoms: C_2  and  C_4 
REMARK    3  A    between atoms: C_2  and  C_11 
REMARK    4  A    between atoms: C_11  and  N_12 
REMARK       I    between atoms: N_12  and  C_13 
REMARK    5  A    between atoms: C_13  and  C_14 
REMARK    6  A    between atoms: C_15  and  C_16 
ROOT
HETATM    1  N   UNL     1      42.060 -16.222   3.973  1.00  0.00    -0.354 N 
HETATM    2  C   UNL     1      42.020 -17.277   4.862  1.00  0.00     0.255 C 
HETATM    3  O   UNL     1      40.981 -17.869   5.131  1.00  0.00    -0.268 OA
HETATM    4  H   UNL     1      42.921 -15.711   3.856  1.00  0.00     0.162 HD
ENDROOT
BRANCH   2   5
HETATM    5  C   UNL     1      43.302 -17.609   5.471  1.00  0.00     0.080 A 
HETATM    6  C   UNL     1      44.264 -18.600   5.074  1.00  0.00     0.104 A 
HETATM    7  N   UNL     1      45.349 -18.558   5.870  1.00  0.00    -0.174 NA
HETATM    8  N   UNL     1      45.093 -17.589   6.749  1.00  0.00    -0.288 N 
HETATM    9  H   UNL     1      45.797 -17.384   7.451  1.00  0.00     0.188 HD
HETATM   10  C   UNL     1      43.888 -16.989   6.564  1.00  0.00     0.128 A 
BRANCH   6  11
HETATM   11  C   UNL     1      44.207 -19.589   3.993  1.00  0.00    -0.004 A 
HETATM   12  C   UNL     1      44.654 -20.902   4.226  1.00  0.00     0.017 A 
HETATM   13  C   UNL     1      44.590 -21.867   3.218  1.00  0.00     0.043 A 
HETATM   14  C   UNL     1      44.075 -21.523   1.975  1.00  0.00     0.116 A 
HETATM   15  F   UNL     1      44.014 -22.446   1.007  1.00  0.00    -0.206 F 
HETATM   16  C   UNL     1      43.617 -20.236   1.725  1.00  0.00     0.043 A 
HETATM   17  C   UNL     1      43.675 -19.271   2.735  1.00  0.00     0.017 A 
ENDBRANCH   6  11
ENDBRANCH   2   5
BRANCH   1  18
HETATM   18  C   UNL     1      40.874 -15.745   3.281  1.00  0.00     0.165 C 
BRANCH  18  19
HETATM   19  C   UNL     1      40.932 -15.864   1.729  1.00  0.00     0.097 C 
HETATM   20  C   UNL     1      40.893 -17.351   1.334  1.00  0.00     0.053 C 
BRANCH  19  21
HETATM   21  O   UNL     1      42.237 -15.409   1.317  1.00  0.00    -0.384 OA
HETATM   22  H   UNL     1      42.682 -15.048   2.104  1.00  0.00     0.211 HD
ENDBRANCH  19  21
BRANCH  19  23
HETATM   23  C   UNL     1      39.890 -14.991   1.024  1.00  0.00    -0.023 A 
HETATM   24  C   UNL     1      38.604 -14.761   1.543  1.00  0.00     0.013 A 
HETATM   25  C   UNL     1      37.682 -13.967   0.854  1.00  0.00     0.043 A 
HETATM   26  C   UNL     1      38.036 -13.392  -0.358  1.00  0.00     0.116 A 
HETATM   27  F   UNL     1      37.147 -12.635  -1.015  1.00  0.00    -0.206 F 
HETATM   28  C   UNL     1      39.296 -13.597  -0.898  1.00  0.00     0.043 A 
HETATM   29  C   UNL     1      40.215 -14.394  -0.213  1.00  0.00     0.013 A 
ENDBRANCH  19  23
ENDBRANCH  18  19
ENDBRANCH   1  18
TORSDOF 6
ENDMDL
MODEL 4
REMARK VINA RESULT:      -8.0      2.082      3.654
REMARK  6 active torsions:
REMARK  status: ('A' for Active; 'I' for Inactive)
REMARK    1  A    between atoms: C_2  and  O_3 
REMARK    2  A    between atoms: C_2  and  C_4 
REMARK    3  A    between atoms: C_2  and  C_11 
REMARK    4  A    between atoms: C_11  and  N_12 
REMARK       I    between atoms: N_12  and  C_13 
REMARK    5  A    between atoms: C_13  and  C_14 
REMARK    6  A    between atoms: C_15  and  C_16 
ROOT
HETATM    1  N   UNL     1      41.577 -14.496   3.829  1.00  0.00    -0.354 N 
HETATM    2  C   UNL     1      41.671 -15.305   4.943  1.00  0.00     0.255 C 
HETATM    3  O   UNL     1      40.909 -16.246   5.136  1.00  0.00    -0.268 OA
HETATM    4  H   UNL     1      42.168 -13.682   3.762  1.00  0.00     0.162 HD
ENDROOT
BRANCH   2   5
HETATM    5  C   UNL     1      42.726 -14.935   5.877  1.00  0.00     0.080 A 
HETATM    6  C   UNL     1      43.682 -15.776   6.544  1.00  0.00     0.104 A 
HETATM    7  N   UNL     1      44.528 -15.040   7.290  1.00  0.00    -0.174 NA
HETATM    8  N   UNL     1      44.127 -13.779   7.120  1.00  0.00    -0.288 N 
HETATM    9  H   UNL     1      44.641 -13.047   7.600  1.00  0.00     0.188 HD
HETATM   10  C   UNL     1      43.057 -13.654   6.292  1.00  0.00     0.128 A 
BRANCH   6  11
HETATM   11  C   UNL     1      43.831 -17.235   6.523  1.00  0.00    -0.004 A 
HETATM   12  C   UNL     1      43.589 -17.977   7.693  1.00  0.00     0.017 A 
HETATM   13  C   UNL     1      43.705 -19.368   7.692  1.00  0.00     0.043 A 
HETATM   14  C   UNL     1      44.058 -20.023   6.519  1.00  0.00     0.116 A 
HETATM   15  F   UNL     1      44.170 -21.358   6.516  1.00  0.00    -0.206 F 
HETATM   16  C   UNL     1      44.290 -19.313   5.348  1.00  0.00     0.043 A 
HETATM   17  C   UNL     1      44.169 -17.920   5.347  1.00  0.00     0.017 A 
ENDBRANCH   6  11
ENDBRANCH   2   5
BRANCH   1  18
HETATM   18  C   UNL     1      40.575 -14.709   2.797  1.00  0.00     0.165 C 
BRANCH  18  19
HETATM   19  C   UNL     1      41.138 -15.214   1.435  1.00  0.00     0.097 C 
HETATM   20  C   UNL     1      41.807 -14.041   0.697  1.00  0.00     0.053 C 
BRANCH  19  21
HETATM   21  O   UNL     1      40.008 -15.568   0.614  1.00  0.00    -0.384 OA
HETATM   22  H   UNL     1      40.088 -16.514   0.399  1.00  0.00     0.211 HD
ENDBRANCH  19  21
BRANCH  19  23
HETATM   23  C   UNL     1      42.018 -16.459   1.579  1.00  0.00    -0.023 A 
HETATM   24  C   UNL     1      41.501 -17.735   1.867  1.00  0.00     0.013 A 
HETATM   25  C   UNL     1      42.347 -18.840   2.002  1.00  0.00     0.043 A 
HETATM   26  C   UNL     1      43.717 -18.683   1.849  1.00  0.00     0.116 A 
HETATM   27  F   UNL     1      44.523 -19.745   1.983  1.00  0.00    -0.206 F 
HETATM   28  C   UNL     1      44.260 -17.440   1.563  1.00  0.00     0.043 A 
HETATM   29  C   UNL     1      43.416 -16.336   1.433  1.00  0.00     0.013 A 
ENDBRANCH  19  23
ENDBRANCH  18  19
ENDBRANCH   1  18
TORSDOF 6
ENDMDL
MODEL 5
REMARK VINA RESULT:      -8.0      2.941      5.641
REMARK  6 active torsions:
REMARK  status: ('A' for Active; 'I' for Inactive)
REMARK    1  A    between atoms: C_2  and  O_3 
REMARK    2  A    between atoms: C_2  and  C_4 
REMARK    3  A    between atoms: C_2  and  C_11 
REMARK    4  A    between atoms: C_11  and  N_12 
REMARK       I    between atoms: N_12  and  C_13 
REMARK    5  A    between atoms: C_13  and  C_14 
REMARK    6  A    between atoms: C_15  and  C_16 
ROOT
HETATM    1  N   UNL     1      41.271 -16.800   3.040  1.00  0.00    -0.354 N 
HETATM    2  C   UNL     1      40.943 -15.470   2.869  1.00  0.00     0.255 C 
HETATM    3  O   UNL     1      41.035 -14.906   1.785  1.00  0.00    -0.268 OA
HETATM    4  H   UNL     1      41.265 -17.192   3.968  1.00  0.00     0.162 HD
ENDROOT
BRANCH   2   5
HETATM    5  C   UNL     1      40.506 -14.791   4.083  1.00  0.00     0.080 A 
HETATM    6  C   UNL     1      41.028 -14.896   5.418  1.00  0.00     0.104 A 
HETATM    7  N   UNL     1      40.379 -14.062   6.252  1.00  0.00    -0.174 NA
HETATM    8  N   UNL     1      39.470 -13.453   5.489  1.00  0.00    -0.288 N 
HETATM    9  H   UNL     1      38.864 -12.766   5.927  1.00  0.00     0.188 HD
HETATM   10  C   UNL     1      39.496 -13.848   4.189  1.00  0.00     0.128 A 
BRANCH   6  11
HETATM   11  C   UNL     1      42.097 -15.749   5.948  1.00  0.00    -0.004 A 
HETATM   12  C   UNL     1      41.794 -17.046   6.400  1.00  0.00     0.017 A 
HETATM   13  C   UNL     1      42.798 -17.884   6.889  1.00  0.00     0.043 A 
HETATM   14  C   UNL     1      44.110 -17.429   6.925  1.00  0.00     0.116 A 
HETATM   15  F   UNL     1      45.075 -18.230   7.395  1.00  0.00    -0.206 F 
HETATM   16  C   UNL     1      44.436 -16.157   6.473  1.00  0.00     0.043 A 
HETATM   17  C   UNL     1      43.432 -15.319   5.978  1.00  0.00     0.017 A 
ENDBRANCH   6  11
ENDBRANCH   2   5
BRANCH   1  18
HETATM   18  C   UNL     1      41.738 -17.631   1.942  1.00  0.00     0.165 C 
BRANCH  18  19
HETATM   19  C   UNL     1      43.281 -17.839   1.891  1.00  0.00     0.097 C 
HETATM   20  C   UNL     1      43.976 -16.636   2.554  1.00  0.00     0.053 C 
BRANCH  19  21
HETATM   21  O   UNL     1      43.672 -17.770   0.505  1.00  0.00    -0.384 OA
HETATM   22  H   UNL     1      42.892 -17.999  -0.030  1.00  0.00     0.211 HD
ENDBRANCH  19  21
BRANCH  19  23
HETATM   23  C   UNL     1      43.718 -19.203   2.432  1.00  0.00    -0.023 A 
HETATM   24  C   UNL     1      43.577 -20.398   1.704  1.00  0.00     0.013 A 
HETATM   25  C   UNL     1      43.979 -21.622   2.247  1.00  0.00     0.043 A 
HETATM   26  C   UNL     1      44.528 -21.666   3.521  1.00  0.00     0.116 A 
HETATM   27  F   UNL     1      44.907 -22.842   4.037  1.00  0.00    -0.206 F 
HETATM   28  C   UNL     1      44.683 -20.506   4.265  1.00  0.00     0.043 A 
HETATM   29  C   UNL     1      44.277 -19.284   3.725  1.00  0.00     0.013 A 
ENDBRANCH  19  23
ENDBRANCH  18  19
ENDBRANCH   1  18
TORSDOF 6
ENDMDL
MODEL 6
REMARK VINA RESULT:      -7.7      2.409      5.324
REMARK  6 active torsions:
REMARK  status: ('A' for Active; 'I' for Inactive)
REMARK    1  A    between atoms: C_2  and  O_3 
REMARK    2  A    between atoms: C_2  and  C_4 
REMARK    3  A    between atoms: C_2  and  C_11 
REMARK    4  A    between atoms: C_11  and  N_12 
REMARK       I    between atoms: N_12  and  C_13 
REMARK    5  A    between atoms: C_13  and  C_14 
REMARK    6  A    between atoms: C_15  and  C_16 
ROOT
HETATM    1  N   UNL     1      43.095 -15.481   4.965  1.00  0.00    -0.354 N 
HETATM    2  C   UNL     1      43.489 -14.330   4.314  1.00  0.00     0.255 C 
HETATM    3  O   UNL     1      44.346 -13.580   4.768  1.00  0.00    -0.268 OA
HETATM    4  H   UNL     1      42.324 -16.015   4.596  1.00  0.00     0.162 HD
ENDROOT
BRANCH   2   5
HETATM    5  C   UNL     1      42.787 -14.068   3.064  1.00  0.00     0.080 A 
HETATM    6  C   UNL     1      42.406 -14.988   2.029  1.00  0.00     0.104 A 
HETATM    7  N   UNL     1      41.724 -14.357   1.055  1.00  0.00    -0.174 NA
HETATM    8  N   UNL     1      41.677 -13.081   1.440  1.00  0.00    -0.288 N 
HETATM    9  H   UNL     1      41.195 -12.420   0.840  1.00  0.00     0.188 HD
HETATM   10  C   UNL     1      42.295 -12.847   2.627  1.00  0.00     0.128 A 
BRANCH   6  11
HETATM   11  C   UNL     1      42.662 -16.427   1.905  1.00  0.00    -0.004 A 
HETATM   12  C   UNL     1      43.953 -16.881   1.583  1.00  0.00     0.017 A 
HETATM   13  C   UNL     1      44.225 -18.247   1.481  1.00  0.00     0.043 A 
HETATM   14  C   UNL     1      43.206 -19.165   1.705  1.00  0.00     0.116 A 
HETATM   15  F   UNL     1      43.465 -20.475   1.607  1.00  0.00    -0.206 F 
HETATM   16  C   UNL     1      41.926 -18.741   2.037  1.00  0.00     0.043 A 
HETATM   17  C   UNL     1      41.654 -17.374   2.144  1.00  0.00     0.017 A 
ENDBRANCH   6  11
ENDBRANCH   2   5
BRANCH   1  18
HETATM   18  C   UNL     1      43.677 -15.895   6.232  1.00  0.00     0.165 C 
BRANCH  18  19
HETATM   19  C   UNL     1      43.005 -17.140   6.883  1.00  0.00     0.097 C 
HETATM   20  C   UNL     1      41.478 -17.027   6.731  1.00  0.00     0.053 C 
BRANCH  19  21
HETATM   21  O   UNL     1      43.240 -17.055   8.303  1.00  0.00    -0.384 OA
HETATM   22  H   UNL     1      43.297 -17.965   8.644  1.00  0.00     0.211 HD
ENDBRANCH  19  21
BRANCH  19  23
HETATM   23  C   UNL     1      43.597 -18.464   6.392  1.00  0.00    -0.023 A 
HETATM   24  C   UNL     1      44.370 -18.571   5.222  1.00  0.00     0.013 A 
HETATM   25  C   UNL     1      44.878 -19.806   4.807  1.00  0.00     0.043 A 
HETATM   26  C   UNL     1      44.622 -20.945   5.556  1.00  0.00     0.116 A 
HETATM   27  F   UNL     1      45.108 -22.126   5.151  1.00  0.00    -0.206 F 
HETATM   28  C   UNL     1      43.864 -20.875   6.715  1.00  0.00     0.043 A 
HETATM   29  C   UNL     1      43.353 -19.643   7.127  1.00  0.00     0.013 A 
ENDBRANCH  19  23
ENDBRANCH  18  19
ENDBRANCH   1  18
TORSDOF 6
ENDMDL
MODEL 7
REMARK VINA RESULT:      -7.7      3.518      7.259
REMARK  6 active torsions:
REMARK  status: ('A' for Active; 'I' for Inactive)
REMARK    1  A    between atoms: C_2  and  O_3 
REMARK    2  A    between atoms: C_2  and  C_4 
REMARK    3  A    between atoms: C_2  and  C_11 
REMARK    4  A    between atoms: C_11  and  N_12 
REMARK       I    between atoms: N_12  and  C_13 
REMARK    5  A    between atoms: C_13  and  C_14 
REMARK    6  A    between atoms: C_15  and  C_16 
ROOT
HETATM    1  N   UNL     1      41.954 -15.806   2.842  1.00  0.00    -0.354 N 
HETATM    2  C   UNL     1      41.608 -15.803   1.507  1.00  0.00     0.255 C 
HETATM    3  O   UNL     1      42.349 -16.245   0.636  1.00  0.00    -0.268 OA
HETATM    4  H   UNL     1      41.350 -15.348   3.507  1.00  0.00     0.162 HD
ENDROOT
BRANCH   2   5
HETATM    5  C   UNL     1      40.308 -15.210   1.216  1.00  0.00     0.080 A 
HETATM    6  C   UNL     1      39.932 -14.334   0.140  1.00  0.00     0.104 A 
HETATM    7  N   UNL     1      38.618 -14.049   0.194  1.00  0.00    -0.174 NA
HETATM    8  N   UNL     1      38.167 -14.703   1.265  1.00  0.00    -0.288 N 
HETATM    9  H   UNL     1      37.181 -14.626   1.491  1.00  0.00     0.188 HD
HETATM   10  C   UNL     1      39.129 -15.410   1.916  1.00  0.00     0.128 A 
BRANCH   6  11
HETATM   11  C   UNL     1      40.749 -13.746  -0.926  1.00  0.00    -0.004 A 
HETATM   12  C   UNL     1      40.537 -14.134  -2.261  1.00  0.00     0.017 A 
HETATM   13  C   UNL     1      41.288 -13.572  -3.296  1.00  0.00     0.043 A 
HETATM   14  C   UNL     1      42.252 -12.617  -2.999  1.00  0.00     0.116 A 
HETATM   15  F   UNL     1      42.974 -12.077  -3.989  1.00  0.00    -0.206 F 
HETATM   16  C   UNL     1      42.472 -12.209  -1.689  1.00  0.00     0.043 A 
HETATM   17  C   UNL     1      41.716 -12.767  -0.654  1.00  0.00     0.017 A 
ENDBRANCH   6  11
ENDBRANCH   2   5
BRANCH   1  18
HETATM   18  C   UNL     1      43.218 -16.346   3.316  1.00  0.00     0.165 C 
BRANCH  18  19
HETATM   19  C   UNL     1      43.088 -17.561   4.281  1.00  0.00     0.097 C 
HETATM   20  C   UNL     1      41.663 -17.596   4.861  1.00  0.00     0.053 C 
BRANCH  19  21
HETATM   21  O   UNL     1      43.939 -17.297   5.414  1.00  0.00    -0.384 OA
HETATM   22  H   UNL     1      43.405 -16.823   6.076  1.00  0.00     0.211 HD
ENDBRANCH  19  21
BRANCH  19  23
HETATM   23  C   UNL     1      43.550 -18.877   3.648  1.00  0.00    -0.023 A 
HETATM   24  C   UNL     1      43.182 -19.276   2.351  1.00  0.00     0.013 A 
HETATM   25  C   UNL     1      43.619 -20.494   1.822  1.00  0.00     0.043 A 
HETATM   26  C   UNL     1      44.428 -21.326   2.583  1.00  0.00     0.116 A 
HETATM   27  F   UNL     1      44.841 -22.494   2.072  1.00  0.00    -0.206 F 
HETATM   28  C   UNL     1      44.811 -20.963   3.865  1.00  0.00     0.043 A 
HETATM   29  C   UNL     1      44.372 -19.749   4.395  1.00  0.00     0.013 A 
ENDBRANCH  19  23
ENDBRANCH  18  19
ENDBRANCH   1  18
TORSDOF 6
ENDMDL
MODEL 8
REMARK VINA RESULT:      -7.7      3.502      6.595
REMARK  6 active torsions:
REMARK  status: ('A' for Active; 'I' for Inactive)
REMARK    1  A    between atoms: C_2  and  O_3 
REMARK    2  A    between atoms: C_2  and  C_4 
REMARK    3  A    between atoms: C_2  and  C_11 
REMARK    4  A    between atoms: C_11  and  N_12 
REMARK       I    between atoms: N_12  and  C_13 
REMARK    5  A    between atoms: C_13  and  C_14 
REMARK    6  A    between atoms: C_15  and  C_16 
ROOT
HETATM    1  N   UNL     1      40.926 -16.772   2.019  1.00  0.00    -0.354 N 
HETATM    2  C   UNL     1      40.821 -15.655   1.216  1.00  0.00     0.255 C 
HETATM    3  O   UNL     1      41.305 -15.609   0.091  1.00  0.00    -0.268 OA
HETATM    4  H   UNL     1      40.590 -16.728   2.969  1.00  0.00     0.162 HD
ENDROOT
BRANCH   2   5
HETATM    5  C   UNL     1      40.115 -14.533   1.823  1.00  0.00     0.080 A 
HETATM    6  C   UNL     1      40.399 -13.842   3.050  1.00  0.00     0.104 A 
HETATM    7  N   UNL     1      39.539 -12.822   3.234  1.00  0.00    -0.174 NA
HETATM    8  N   UNL     1      38.729 -12.861   2.175  1.00  0.00    -0.288 N 
HETATM    9  H   UNL     1      37.995 -12.163   2.111  1.00  0.00     0.188 HD
HETATM   10  C   UNL     1      39.021 -13.861   1.302  1.00  0.00     0.128 A 
BRANCH   6  11
HETATM   11  C   UNL     1      41.429 -14.100   4.062  1.00  0.00    -0.004 A 
HETATM   12  C   UNL     1      41.167 -15.000   5.109  1.00  0.00     0.017 A 
HETATM   13  C   UNL     1      42.140 -15.277   6.072  1.00  0.00     0.043 A 
HETATM   14  C   UNL     1      43.380 -14.658   5.988  1.00  0.00     0.116 A 
HETATM   15  F   UNL     1      44.314 -14.922   6.911  1.00  0.00    -0.206 F 
HETATM   16  C   UNL     1      43.667 -13.774   4.956  1.00  0.00     0.043 A 
HETATM   17  C   UNL     1      42.695 -13.500   3.988  1.00  0.00     0.017 A 
ENDBRANCH   6  11
ENDBRANCH   2   5
BRANCH   1  18
HETATM   18  C   UNL     1      41.606 -17.981   1.584  1.00  0.00     0.165 C 
BRANCH  18  19
HETATM   19  C   UNL     1      43.136 -18.011   1.879  1.00  0.00     0.097 C 
HETATM   20  C   UNL     1      43.492 -16.849   2.823  1.00  0.00     0.053 C 
BRANCH  19  21
HETATM   21  O   UNL     1      43.812 -17.702   0.644  1.00  0.00    -0.384 OA
HETATM   22  H   UNL     1      44.394 -16.939   0.813  1.00  0.00     0.211 HD
ENDBRANCH  19  21
BRANCH  19  23
HETATM   23  C   UNL     1      43.626 -19.384   2.347  1.00  0.00    -0.023 A 
HETATM   24  C   UNL     1      44.319 -19.581   3.555  1.00  0.00     0.013 A 
HETATM   25  C   UNL     1      44.759 -20.853   3.933  1.00  0.00     0.043 A 
HETATM   26  C   UNL     1      44.510 -21.942   3.110  1.00  0.00     0.116 A 
HETATM   27  F   UNL     1      44.937 -23.158   3.475  1.00  0.00    -0.206 F 
HETATM   28  C   UNL     1      43.828 -21.784   1.913  1.00  0.00     0.043 A 
HETATM   29  C   UNL     1      43.393 -20.513   1.533  1.00  0.00     0.013 A 
ENDBRANCH  19  23
ENDBRANCH  18  19
ENDBRANCH   1  18
TORSDOF 6
ENDMDL
MODEL 9
REMARK VINA RESULT:      -7.7      3.745      7.514
REMARK  6 active torsions:
REMARK  status: ('A' for Active; 'I' for Inactive)
REMARK    1  A    between atoms: C_2  and  O_3 
REMARK    2  A    between atoms: C_2  and  C_4 
REMARK    3  A    between atoms: C_2  and  C_11 
REMARK    4  A    between atoms: C_11  and  N_12 
REMARK       I    between atoms: N_12  and  C_13 
REMARK    5  A    between atoms: C_13  and  C_14 
REMARK    6  A    between atoms: C_15  and  C_16 
ROOT
HETATM    1  N   UNL     1      41.500 -16.063   1.347  1.00  0.00    -0.354 N 
HETATM    2  C   UNL     1      40.317 -15.366   1.483  1.00  0.00     0.255 C 
HETATM    3  O   UNL     1      39.311 -15.869   1.971  1.00  0.00    -0.268 OA
HETATM    4  H   UNL     1      42.270 -15.635   0.857  1.00  0.00     0.162 HD
ENDROOT
BRANCH   2   5
HETATM    5  C   UNL     1      40.354 -14.000   0.976  1.00  0.00     0.080 A 
HETATM    6  C   UNL     1      40.095 -13.519  -0.353  1.00  0.00     0.104 A 
HETATM    7  N   UNL     1      40.183 -12.177  -0.401  1.00  0.00    -0.174 NA
HETATM    8  N   UNL     1      40.496 -11.808   0.841  1.00  0.00    -0.288 N 
HETATM    9  H   UNL     1      40.608 -10.817   1.030  1.00  0.00     0.188 HD
HETATM   10  C   UNL     1      40.614 -12.850   1.706  1.00  0.00     0.128 A 
BRANCH   6  11
HETATM   11  C   UNL     1      39.782 -14.260  -1.579  1.00  0.00    -0.004 A 
HETATM   12  C   UNL     1      40.721 -15.164  -2.107  1.00  0.00     0.017 A 
HETATM   13  C   UNL     1      40.436 -15.896  -3.262  1.00  0.00     0.043 A 
HETATM   14  C   UNL     1      39.209 -15.729  -3.891  1.00  0.00     0.116 A 
HETATM   15  F   UNL     1      38.934 -16.430  -4.998  1.00  0.00    -0.206 F 
HETATM   16  C   UNL     1      38.260 -14.853  -3.381  1.00  0.00     0.043 A 
HETATM   17  C   UNL     1      38.542 -14.123  -2.222  1.00  0.00     0.017 A 
ENDBRANCH   6  11
ENDBRANCH   2   5
BRANCH   1  18
HETATM   18  C   UNL     1      41.644 -17.442   1.786  1.00  0.00     0.165 C 
BRANCH  18  19
HETATM   19  C   UNL     1      42.652 -17.654   2.955  1.00  0.00     0.097 C 
HETATM   20  C   UNL     1      41.972 -17.278   4.283  1.00  0.00     0.053 C 
BRANCH  19  21
HETATM   21  O   UNL     1      43.701 -16.679   2.791  1.00  0.00    -0.384 OA
HETATM   22  H   UNL     1      43.771 -16.482   1.839  1.00  0.00     0.211 HD
ENDBRANCH  19  21
BRANCH  19  23
HETATM   23  C   UNL     1      43.298 -19.042   2.941  1.00  0.00    -0.023 A 
HETATM   24  C   UNL     1      44.154 -19.500   3.958  1.00  0.00     0.013 A 
HETATM   25  C   UNL     1      44.731 -20.772   3.894  1.00  0.00     0.043 A 
HETATM   26  C   UNL     1      44.458 -21.600   2.814  1.00  0.00     0.116 A 
HETATM   27  F   UNL     1      45.017 -22.816   2.756  1.00  0.00    -0.206 F 
HETATM   28  C   UNL     1      43.617 -21.180   1.795  1.00  0.00     0.043 A 
HETATM   29  C   UNL     1      43.044 -19.909   1.857  1.00  0.00     0.013 A 
ENDBRANCH  19  23
ENDBRANCH  18  19
ENDBRANCH   1  18
TORSDOF 6
ENDMDL
MODEL 10
REMARK VINA RESULT:      -7.6      2.863      6.606
REMARK  6 active torsions:
REMARK  status: ('A' for Active; 'I' for Inactive)
REMARK    1  A    between atoms: C_2  and  O_3 
REMARK    2  A    between atoms: C_2  and  C_4 
REMARK    3  A    between atoms: C_2  and  C_11 
REMARK    4  A    between atoms: C_11  and  N_12 
REMARK       I    between atoms: N_12  and  C_13 
REMARK    5  A    between atoms: C_13  and  C_14 
REMARK    6  A    between atoms: C_15  and  C_16 
ROOT
HETATM    1  N   UNL     1      43.217 -15.692   3.431  1.00  0.00    -0.354 N 
HETATM    2  C   UNL     1      41.962 -15.154   3.627  1.00  0.00     0.255 C 
HETATM    3  O   UNL     1      41.014 -15.825   4.017  1.00  0.00    -0.268 OA
HETATM    4  H   UNL     1      43.940 -15.119   3.023  1.00  0.00     0.162 HD
ENDROOT
BRANCH   2   5
HETATM    5  C   UNL     1      41.852 -13.735   3.308  1.00  0.00     0.080 A 
HETATM    6  C   UNL     1      41.644 -13.107   2.033  1.00  0.00     0.104 A 
HETATM    7  N   UNL     1      41.547 -11.771   2.168  1.00  0.00    -0.174 NA
HETATM    8  N   UNL     1      41.698 -11.547   3.474  1.00  0.00    -0.288 N 
HETATM    9  H   UNL     1      41.654 -10.586   3.800  1.00  0.00     0.188 HD
HETATM   10  C   UNL     1      41.885 -12.678   4.203  1.00  0.00     0.128 A 
BRANCH   6  11
HETATM   11  C   UNL     1      41.544 -13.700   0.695  1.00  0.00    -0.004 A 
HETATM   12  C   UNL     1      41.904 -12.940  -0.433  1.00  0.00     0.017 A 
HETATM   13  C   UNL     1      41.837 -13.490  -1.715  1.00  0.00     0.043 A 
HETATM   14  C   UNL     1      41.413 -14.803  -1.873  1.00  0.00     0.116 A 
HETATM   15  F   UNL     1      41.347 -15.332  -3.102  1.00  0.00    -0.206 F 
HETATM   16  C   UNL     1      41.064 -15.577  -0.774  1.00  0.00     0.043 A 
HETATM   17  C   UNL     1      41.136 -15.029   0.510  1.00  0.00     0.017 A 
ENDBRANCH   6  11
ENDBRANCH   2   5
BRANCH   1  18
HETATM   18  C   UNL     1      43.510 -17.094   3.685  1.00  0.00     0.165 C 
BRANCH  18  19
HETATM   19  C   UNL     1      43.373 -18.025   2.444  1.00  0.00     0.097 C 
HETATM   20  C   UNL     1      44.083 -17.375   1.243  1.00  0.00     0.053 C 
BRANCH  19  21
HETATM   21  O   UNL     1      41.978 -18.043   2.079  1.00  0.00    -0.384 OA
HETATM   22  H   UNL     1      41.539 -17.326   2.570  1.00  0.00     0.211 HD
ENDBRANCH  19  21
BRANCH  19  23
HETATM   23  C   UNL     1      43.798 -19.468   2.731  1.00  0.00    -0.023 A 
HETATM   24  C   UNL     1      43.583 -20.525   1.830  1.00  0.00     0.013 A 
HETATM   25  C   UNL     1      43.977 -21.829   2.144  1.00  0.00     0.043 A 
HETATM   26  C   UNL     1      44.593 -22.090   3.359  1.00  0.00     0.116 A 
HETATM   27  F   UNL     1      44.966 -23.342   3.656  1.00  0.00    -0.206 F 
HETATM   28  C   UNL     1      44.822 -21.071   4.270  1.00  0.00     0.043 A 
HETATM   29  C   UNL     1      44.424 -19.770   3.959  1.00  0.00     0.013 A 
ENDBRANCH  19  23
ENDBRANCH  18  19
ENDBRANCH   1  18
TORSDOF 6
ENDMDL
