MODEL 1
REMARK VINA RESULT:      -7.1      0.000      0.000
REMARK  10 active torsions:
REMARK  status: ('A' for Active; 'I' for Inactive)
REMARK    1  A    between atoms: C_2  and  N_3 
REMARK    2  A    between atoms: N_7  and  C_8 
REMARK    3  A    between atoms: C_8  and  C_9 
REMARK    4  A    between atoms: C_9  and  N_10 
REMARK    5  A    between atoms: N_10  and  C_11 
REMARK    6  A    between atoms: C_13  and  C_14 
REMARK    7  A    between atoms: C_14  and  N_15 
REMARK    8  A    between atoms: C_23  and  C_24 
REMARK    9  A    between atoms: C_24  and  O_25 
REMARK   10  A    between atoms: O_25  and  C_26 
ROOT
HETATM    1  C   UNL     1      40.490 -15.792   2.169  1.00  0.00     0.139 A 
HETATM    2  N   UNL     1      40.257 -15.178   0.981  1.00  0.00    -0.214 NA
HETATM    3  C   UNL     1      41.035 -15.457  -0.077  1.00  0.00     0.155 A 
HETATM    4  N   UNL     1      42.097 -16.271  -0.087  1.00  0.00    -0.224 NA
HETATM    5  C   UNL     1      42.317 -16.860   1.098  1.00  0.00     0.115 A 
HETATM    6  C   UNL     1      41.568 -16.713   2.253  1.00  0.00     0.053 A 
HETATM    7  S   UNL     1      43.632 -17.909   1.273  1.00  0.00    -0.063 SA
HETATM    8  C   UNL     1      43.251 -18.246   2.906  1.00  0.00     0.089 A 
HETATM    9  C   UNL     1      42.086 -17.587   3.304  1.00  0.00    -0.022 A 
HETATM   10  C   UNL     1      41.449 -17.764   4.653  1.00  0.00     0.051 C 
ENDROOT
BRANCH   1  11
HETATM   11  N   UNL     1      39.662 -15.506   3.249  1.00  0.00    -0.372 N 
HETATM   12  H   UNL     1      39.347 -16.346   3.725  1.00  0.00     0.161 HD
BRANCH  11  13
HETATM   13  C   UNL     1      39.998 -14.418   4.156  1.00  0.00     0.145 C 
BRANCH  13  14
HETATM   14  C   UNL     1      40.420 -13.101   3.448  1.00  0.00     0.092 C 
HETATM   15  C   UNL     1      39.329 -12.024   3.585  1.00  0.00     0.033 C 
BRANCH  14  16
HETATM   16  N   UNL     1      41.749 -12.562   3.828  1.00  0.00    -0.404 N 
HETATM   17  C   UNL     1      42.906 -13.359   3.408  1.00  0.00     0.145 C 
HETATM   18  C   UNL     1      43.495 -14.320   4.465  1.00  0.00     0.254 C 
HETATM   19  N   UNL     1      43.730 -13.606   5.783  1.00  0.00    -0.068 N 
HETATM   20  H   UNL     1      44.428 -12.869   5.611  1.00  0.00     0.280 HD
HETATM   21  C   UNL     1      42.465 -12.898   6.254  1.00  0.00     0.254 C 
HETATM   22  C   UNL     1      41.918 -11.965   5.158  1.00  0.00     0.145 C 
BRANCH  19  23
HETATM   23  C   UNL     1      44.272 -14.504   6.876  1.00  0.00     0.230 C 
HETATM   24  C   UNL     1      44.056 -15.969   6.548  1.00  0.00     0.034 C 
ENDBRANCH  19  23
ENDBRANCH  14  16
ENDBRANCH  13  14
ENDBRANCH  11  13
ENDBRANCH   1  11
BRANCH   3  25
HETATM   25  C   UNL     1      40.689 -14.834  -1.419  1.00  0.00     0.314 C 
BRANCH  25  26
HETATM   26  N   UNL     1      39.550 -13.817  -1.346  1.00  0.00    -0.072 N 
HETATM   27  H   UNL     1      39.178 -13.922  -0.385  1.00  0.00     0.279 HD
HETATM   28  C   UNL     1      40.035 -12.399  -1.449  1.00  0.00     0.269 C 
HETATM   29  C   UNL     1      38.441 -14.112  -2.304  1.00  0.00     0.269 C 
ENDBRANCH  25  26
ENDBRANCH   3  25
BRANCH   8  30
HETATM   30  C   UNL     1      44.112 -19.118   3.706  1.00  0.00     0.300 C 
HETATM   31  O   UNL     1      44.178 -19.094   4.928  1.00  0.00    -0.259 OA
BRANCH  30  32
HETATM   32  O   UNL     1      44.822 -19.973   2.916  1.00  0.00    -0.317 OA
BRANCH  32  33
HETATM   33  C   UNL     1      44.460 -21.360   2.998  1.00  0.00     0.174 C 
HETATM   34  C   UNL     1      44.038 -21.867   1.632  1.00  0.00     0.034 C 
ENDBRANCH  32  33
ENDBRANCH  30  32
ENDBRANCH   8  30
TORSDOF 10
ENDMDL
MODEL 2
REMARK VINA RESULT:      -7.1      2.060      6.243
REMARK  10 active torsions:
REMARK  status: ('A' for Active; 'I' for Inactive)
REMARK    1  A    between atoms: C_2  and  N_3 
REMARK    2  A    between atoms: N_7  and  C_8 
REMARK    3  A    between atoms: C_8  and  C_9 
REMARK    4  A    between atoms: C_9  and  N_10 
REMARK    5  A    between atoms: N_10  and  C_11 
REMARK    6  A    between atoms: C_13  and  C_14 
REMARK    7  A    between atoms: C_14  and  N_15 
REMARK    8  A    between atoms: C_23  and  C_24 
REMARK    9  A    between atoms: C_24  and  O_25 
REMARK   10  A    between atoms: O_25  and  C_26 
ROOT
HETATM    1  C   UNL     1      42.580 -15.350   5.628  1.00  0.00     0.139 A 
HETATM    2  N   UNL     1      43.012 -14.234   6.271  1.00  0.00    -0.214 NA
HETATM    3  C   UNL     1      44.149 -14.274   6.983  1.00  0.00     0.155 A 
HETATM    4  N   UNL     1      44.921 -15.348   7.186  1.00  0.00    -0.224 NA
HETATM    5  C   UNL     1      44.474 -16.442   6.552  1.00  0.00     0.115 A 
HETATM    6  C   UNL     1      43.355 -16.535   5.741  1.00  0.00     0.053 A 
HETATM    7  S   UNL     1      45.317 -17.898   6.712  1.00  0.00    -0.063 SA
HETATM    8  C   UNL     1      44.240 -18.732   5.677  1.00  0.00     0.089 A 
HETATM    9  C   UNL     1      43.256 -17.878   5.171  1.00  0.00    -0.022 A 
HETATM   10  C   UNL     1      42.226 -18.300   4.162  1.00  0.00     0.051 C 
ENDROOT
BRANCH   1  11
HETATM   11  N   UNL     1      41.411 -15.286   4.879  1.00  0.00    -0.372 N 
HETATM   12  H   UNL     1      40.579 -15.341   5.458  1.00  0.00     0.161 HD
BRANCH  11  13
HETATM   13  C   UNL     1      41.297 -14.327   3.789  1.00  0.00     0.145 C 
BRANCH  13  14
HETATM   14  C   UNL     1      39.840 -14.061   3.320  1.00  0.00     0.092 C 
HETATM   15  C   UNL     1      39.642 -12.583   2.938  1.00  0.00     0.033 C 
BRANCH  14  16
HETATM   16  N   UNL     1      39.332 -14.957   2.252  1.00  0.00    -0.404 N 
HETATM   17  C   UNL     1      40.316 -15.874   1.667  1.00  0.00     0.145 C 
HETATM   18  C   UNL     1      40.977 -15.418   0.347  1.00  0.00     0.254 C 
HETATM   19  N   UNL     1      39.935 -14.966  -0.660  1.00  0.00    -0.068 N 
HETATM   20  H   UNL     1      39.343 -15.781  -0.874  1.00  0.00     0.280 HD
HETATM   21  C   UNL     1      39.012 -13.914  -0.055  1.00  0.00     0.254 C 
HETATM   22  C   UNL     1      38.392 -14.418   1.262  1.00  0.00     0.145 C 
BRANCH  19  23
HETATM   23  C   UNL     1      40.521 -14.468  -1.965  1.00  0.00     0.230 C 
HETATM   24  C   UNL     1      40.957 -15.619  -2.851  1.00  0.00     0.034 C 
ENDBRANCH  19  23
ENDBRANCH  14  16
ENDBRANCH  13  14
ENDBRANCH  11  13
ENDBRANCH   1  11
BRANCH   3  25
HETATM   25  C   UNL     1      44.662 -12.986   7.607  1.00  0.00     0.314 C 
BRANCH  25  26
HETATM   26  N   UNL     1      43.835 -12.516   8.805  1.00  0.00    -0.072 N 
HETATM   27  H   UNL     1      43.175 -13.294   8.978  1.00  0.00     0.279 HD
HETATM   28  C   UNL     1      44.657 -12.384  10.055  1.00  0.00     0.269 C 
HETATM   29  C   UNL     1      43.035 -11.287   8.514  1.00  0.00     0.269 C 
ENDBRANCH  25  26
ENDBRANCH   3  25
BRANCH   8  30
HETATM   30  C   UNL     1      44.404 -20.164   5.429  1.00  0.00     0.300 C 
HETATM   31  O   UNL     1      43.997 -21.047   6.172  1.00  0.00    -0.259 OA
BRANCH  30  32
HETATM   32  O   UNL     1      45.058 -20.392   4.253  1.00  0.00    -0.317 OA
BRANCH  32  33
HETATM   33  C   UNL     1      44.603 -21.515   3.483  1.00  0.00     0.174 C 
HETATM   34  C   UNL     1      43.989 -21.035   2.181  1.00  0.00     0.034 C 
ENDBRANCH  32  33
ENDBRANCH  30  32
ENDBRANCH   8  30
TORSDOF 10
ENDMDL
MODEL 3
REMARK VINA RESULT:      -6.9      1.668      3.065
REMARK  10 active torsions:
REMARK  status: ('A' for Active; 'I' for Inactive)
REMARK    1  A    between atoms: C_2  and  N_3 
REMARK    2  A    between atoms: N_7  and  C_8 
REMARK    3  A    between atoms: C_8  and  C_9 
REMARK    4  A    between atoms: C_9  and  N_10 
REMARK    5  A    between atoms: N_10  and  C_11 
REMARK    6  A    between atoms: C_13  and  C_14 
REMARK    7  A    between atoms: C_14  and  N_15 
REMARK    8  A    between atoms: C_23  and  C_24 
REMARK    9  A    between atoms: C_24  and  O_25 
REMARK   10  A    between atoms: O_25  and  C_26 
ROOT
HETATM    1  C   UNL     1      40.758 -15.961   2.816  1.00  0.00     0.139 A 
HETATM    2  N   UNL     1      40.403 -15.293   1.688  1.00  0.00    -0.214 NA
HETATM    3  C   UNL     1      41.036 -15.555   0.533  1.00  0.00     0.155 A 
HETATM    4  N   UNL     1      42.059 -16.401   0.362  1.00  0.00    -0.224 NA
HETATM    5  C   UNL     1      42.401 -17.043   1.489  1.00  0.00     0.115 A 
HETATM    6  C   UNL     1      41.804 -16.918   2.733  1.00  0.00     0.053 A 
HETATM    7  S   UNL     1      43.687 -18.139   1.463  1.00  0.00    -0.063 SA
HETATM    8  C   UNL     1      43.498 -18.529   3.118  1.00  0.00     0.089 A 
HETATM    9  C   UNL     1      42.414 -17.850   3.680  1.00  0.00    -0.022 A 
HETATM   10  C   UNL     1      41.942 -18.059   5.091  1.00  0.00     0.051 C 
ENDROOT
BRANCH   1  11
HETATM   11  N   UNL     1      40.079 -15.692   3.999  1.00  0.00    -0.372 N 
HETATM   12  H   UNL     1      39.681 -16.530   4.413  1.00  0.00     0.161 HD
BRANCH  11  13
HETATM   13  C   UNL     1      40.655 -14.780   4.977  1.00  0.00     0.145 C 
BRANCH  13  14
HETATM   14  C   UNL     1      40.148 -13.316   4.863  1.00  0.00     0.092 C 
HETATM   15  C   UNL     1      39.392 -12.890   6.134  1.00  0.00     0.033 C 
BRANCH  14  16
HETATM   16  N   UNL     1      41.171 -12.307   4.491  1.00  0.00    -0.404 N 
HETATM   17  C   UNL     1      40.690 -10.927   4.364  1.00  0.00     0.145 C 
HETATM   18  C   UNL     1      40.351 -10.450   2.933  1.00  0.00     0.254 C 
HETATM   19  N   UNL     1      41.481 -10.762   1.970  1.00  0.00    -0.068 N 
HETATM   20  H   UNL     1      42.306 -10.234   2.286  1.00  0.00     0.280 HD
HETATM   21  C   UNL     1      41.864 -12.236   2.036  1.00  0.00     0.254 C 
HETATM   22  C   UNL     1      42.179 -12.657   3.484  1.00  0.00     0.145 C 
BRANCH  19  23
HETATM   23  C   UNL     1      41.194 -10.353   0.540  1.00  0.00     0.230 C 
HETATM   24  C   UNL     1      39.773 -10.698   0.139  1.00  0.00     0.034 C 
ENDBRANCH  19  23
ENDBRANCH  14  16
ENDBRANCH  13  14
ENDBRANCH  11  13
ENDBRANCH   1  11
BRANCH   3  25
HETATM   25  C   UNL     1      40.551 -14.868  -0.733  1.00  0.00     0.314 C 
BRANCH  25  26
HETATM   26  N   UNL     1      41.663 -14.600  -1.748  1.00  0.00    -0.072 N 
HETATM   27  H   UNL     1      42.418 -15.253  -1.475  1.00  0.00     0.279 HD
HETATM   28  C   UNL     1      41.271 -14.984  -3.147  1.00  0.00     0.269 C 
HETATM   29  C   UNL     1      42.203 -13.209  -1.668  1.00  0.00     0.269 C 
ENDBRANCH  25  26
ENDBRANCH   3  25
BRANCH   8  30
HETATM   30  C   UNL     1      44.418 -19.458   3.773  1.00  0.00     0.300 C 
HETATM   31  O   UNL     1      44.649 -19.472   4.976  1.00  0.00    -0.259 OA
BRANCH  30  32
HETATM   32  O   UNL     1      44.975 -20.320   2.876  1.00  0.00    -0.317 OA
BRANCH  32  33
HETATM   33  C   UNL     1      44.442 -21.653   2.861  1.00  0.00     0.174 C 
HETATM   34  C   UNL     1      44.013 -22.024   1.454  1.00  0.00     0.034 C 
ENDBRANCH  32  33
ENDBRANCH  30  32
ENDBRANCH   8  30
TORSDOF 10
ENDMDL
MODEL 4
REMARK VINA RESULT:      -6.9      2.968      6.894
REMARK  10 active torsions:
REMARK  status: ('A' for Active; 'I' for Inactive)
REMARK    1  A    between atoms: C_2  and  N_3 
REMARK    2  A    between atoms: N_7  and  C_8 
REMARK    3  A    between atoms: C_8  and  C_9 
REMARK    4  A    between atoms: C_9  and  N_10 
REMARK    5  A    between atoms: N_10  and  C_11 
REMARK    6  A    between atoms: C_13  and  C_14 
REMARK    7  A    between atoms: C_14  and  N_15 
REMARK    8  A    between atoms: C_23  and  C_24 
REMARK    9  A    between atoms: C_24  and  O_25 
REMARK   10  A    between atoms: O_25  and  C_26 
ROOT
HETATM    1  C   UNL     1      41.340 -15.466   4.874  1.00  0.00     0.139 A 
HETATM    2  N   UNL     1      41.856 -14.678   5.852  1.00  0.00    -0.214 NA
HETATM    3  C   UNL     1      42.410 -13.497   5.533  1.00  0.00     0.155 A 
HETATM    4  N   UNL     1      42.567 -13.001   4.300  1.00  0.00    -0.224 NA
HETATM    5  C   UNL     1      42.060 -13.798   3.347  1.00  0.00     0.115 A 
HETATM    6  C   UNL     1      41.413 -15.009   3.531  1.00  0.00     0.053 A 
HETATM    7  S   UNL     1      42.186 -13.337   1.726  1.00  0.00    -0.063 SA
HETATM    8  C   UNL     1      41.353 -14.728   1.180  1.00  0.00     0.089 A 
HETATM    9  C   UNL     1      40.937 -15.525   2.248  1.00  0.00    -0.022 A 
HETATM   10  C   UNL     1      40.101 -16.763   2.088  1.00  0.00     0.051 C 
ENDROOT
BRANCH   1  11
HETATM   11  N   UNL     1      40.752 -16.676   5.223  1.00  0.00    -0.372 N 
HETATM   12  H   UNL     1      39.855 -16.814   4.769  1.00  0.00     0.161 HD
BRANCH  11  13
HETATM   13  C   UNL     1      41.561 -17.886   5.288  1.00  0.00     0.145 C 
BRANCH  13  14
HETATM   14  C   UNL     1      42.984 -17.674   5.874  1.00  0.00     0.092 C 
HETATM   15  C   UNL     1      43.159 -18.444   7.195  1.00  0.00     0.033 C 
BRANCH  14  16
HETATM   16  N   UNL     1      44.111 -17.947   4.948  1.00  0.00    -0.404 N 
HETATM   17  C   UNL     1      43.784 -17.917   3.518  1.00  0.00     0.145 C 
HETATM   18  C   UNL     1      43.497 -19.281   2.853  1.00  0.00     0.254 C 
HETATM   19  N   UNL     1      44.584 -20.289   3.178  1.00  0.00    -0.068 N 
HETATM   20  H   UNL     1      45.463 -19.929   2.781  1.00  0.00     0.280 HD
HETATM   21  C   UNL     1      44.803 -20.389   4.683  1.00  0.00     0.254 C 
HETATM   22  C   UNL     1      45.072 -19.001   5.293  1.00  0.00     0.145 C 
BRANCH  19  23
HETATM   23  C   UNL     1      44.341 -21.662   2.586  1.00  0.00     0.230 C 
HETATM   24  C   UNL     1      44.646 -22.760   3.587  1.00  0.00     0.034 C 
ENDBRANCH  19  23
ENDBRANCH  14  16
ENDBRANCH  13  14
ENDBRANCH  11  13
ENDBRANCH   1  11
BRANCH   3  25
HETATM   25  C   UNL     1      42.887 -12.591   6.656  1.00  0.00     0.314 C 
BRANCH  25  26
HETATM   26  N   UNL     1      43.903 -13.253   7.587  1.00  0.00    -0.072 N 
HETATM   27  H   UNL     1      43.373 -14.021   8.035  1.00  0.00     0.279 HD
HETATM   28  C   UNL     1      45.028 -13.909   6.838  1.00  0.00     0.269 C 
HETATM   29  C   UNL     1      44.391 -12.338   8.664  1.00  0.00     0.269 C 
ENDBRANCH  25  26
ENDBRANCH   3  25
BRANCH   8  30
HETATM   30  C   UNL     1      41.166 -14.969  -0.251  1.00  0.00     0.300 C 
HETATM   31  O   UNL     1      41.408 -16.029  -0.813  1.00  0.00    -0.259 OA
BRANCH  30  32
HETATM   32  O   UNL     1      40.669 -13.864  -0.879  1.00  0.00    -0.317 OA
BRANCH  32  33
HETATM   33  C   UNL     1      41.119 -13.644  -2.224  1.00  0.00     0.174 C 
HETATM   34  C   UNL     1      42.468 -12.951  -2.211  1.00  0.00     0.034 C 
ENDBRANCH  32  33
ENDBRANCH  30  32
ENDBRANCH   8  30
TORSDOF 10
ENDMDL
MODEL 5
REMARK VINA RESULT:      -6.8      3.458      6.361
REMARK  10 active torsions:
REMARK  status: ('A' for Active; 'I' for Inactive)
REMARK    1  A    between atoms: C_2  and  N_3 
REMARK    2  A    between atoms: N_7  and  C_8 
REMARK    3  A    between atoms: C_8  and  C_9 
REMARK    4  A    between atoms: C_9  and  N_10 
REMARK    5  A    between atoms: N_10  and  C_11 
REMARK    6  A    between atoms: C_13  and  C_14 
REMARK    7  A    between atoms: C_14  and  N_15 
REMARK    8  A    between atoms: C_23  and  C_24 
REMARK    9  A    between atoms: C_24  and  O_25 
REMARK   10  A    between atoms: O_25  and  C_26 
ROOT
HETATM    1  C   UNL     1      39.833 -14.786   1.953  1.00  0.00     0.139 A 
HETATM    2  N   UNL     1      39.864 -14.795   0.595  1.00  0.00    -0.214 NA
HETATM    3  C   UNL     1      39.977 -13.637  -0.075  1.00  0.00     0.155 A 
HETATM    4  N   UNL     1      40.014 -12.411   0.459  1.00  0.00    -0.224 NA
HETATM    5  C   UNL     1      39.972 -12.423   1.800  1.00  0.00     0.115 A 
HETATM    6  C   UNL     1      39.914 -13.536   2.622  1.00  0.00     0.053 A 
HETATM    7  S   UNL     1      39.991 -10.959   2.645  1.00  0.00    -0.063 SA
HETATM    8  C   UNL     1      39.950 -11.740   4.166  1.00  0.00     0.089 A 
HETATM    9  C   UNL     1      39.968 -13.130   4.026  1.00  0.00    -0.022 A 
HETATM   10  C   UNL     1      40.035 -14.083   5.184  1.00  0.00     0.051 C 
ENDROOT
BRANCH   1  11
HETATM   11  N   UNL     1      39.736 -15.996   2.632  1.00  0.00    -0.372 N 
HETATM   12  H   UNL     1      38.825 -16.428   2.520  1.00  0.00     0.161 HD
BRANCH  11  13
HETATM   13  C   UNL     1      40.839 -16.946   2.585  1.00  0.00     0.145 C 
BRANCH  13  14
HETATM   14  C   UNL     1      41.806 -16.866   3.798  1.00  0.00     0.092 C 
HETATM   15  C   UNL     1      41.269 -17.681   4.989  1.00  0.00     0.033 C 
BRANCH  14  16
HETATM   16  N   UNL     1      43.222 -17.206   3.518  1.00  0.00    -0.404 N 
HETATM   17  C   UNL     1      43.508 -17.684   2.161  1.00  0.00     0.145 C 
HETATM   18  C   UNL     1      43.573 -19.216   1.974  1.00  0.00     0.254 C 
HETATM   19  N   UNL     1      44.471 -19.857   3.016  1.00  0.00    -0.068 N 
HETATM   20  H   UNL     1      45.420 -19.487   2.871  1.00  0.00     0.280 HD
HETATM   21  C   UNL     1      44.058 -19.441   4.423  1.00  0.00     0.254 C 
HETATM   22  C   UNL     1      44.000 -17.907   4.547  1.00  0.00     0.145 C 
BRANCH  19  23
HETATM   23  C   UNL     1      44.547 -21.367   2.911  1.00  0.00     0.230 C 
HETATM   24  C   UNL     1      43.974 -21.861   1.597  1.00  0.00     0.034 C 
ENDBRANCH  19  23
ENDBRANCH  14  16
ENDBRANCH  13  14
ENDBRANCH  11  13
ENDBRANCH   1  11
BRANCH   3  25
HETATM   25  C   UNL     1      40.112 -13.684  -1.588  1.00  0.00     0.314 C 
BRANCH  25  26
HETATM   26  N   UNL     1      39.459 -14.912  -2.223  1.00  0.00    -0.072 N 
HETATM   27  H   UNL     1      39.196 -15.504  -1.416  1.00  0.00     0.279 HD
HETATM   28  C   UNL     1      38.175 -14.582  -2.930  1.00  0.00     0.269 C 
HETATM   29  C   UNL     1      40.400 -15.694  -3.083  1.00  0.00     0.269 C 
ENDBRANCH  25  26
ENDBRANCH   3  25
BRANCH   8  30
HETATM   30  C   UNL     1      39.890 -10.960   5.402  1.00  0.00     0.300 C 
HETATM   31  O   UNL     1      38.856 -10.680   5.995  1.00  0.00    -0.259 OA
BRANCH  30  32
HETATM   32  O   UNL     1      41.136 -10.596   5.820  1.00  0.00    -0.317 OA
BRANCH  32  33
HETATM   33  C   UNL     1      41.575 -11.157   7.067  1.00  0.00     0.174 C 
HETATM   34  C   UNL     1      41.785 -10.052   8.085  1.00  0.00     0.034 C 
ENDBRANCH  32  33
ENDBRANCH  30  32
ENDBRANCH   8  30
TORSDOF 10
ENDMDL
MODEL 6
REMARK VINA RESULT:      -6.7      1.979      6.510
REMARK  10 active torsions:
REMARK  status: ('A' for Active; 'I' for Inactive)
REMARK    1  A    between atoms: C_2  and  N_3 
REMARK    2  A    between atoms: N_7  and  C_8 
REMARK    3  A    between atoms: C_8  and  C_9 
REMARK    4  A    between atoms: C_9  and  N_10 
REMARK    5  A    between atoms: N_10  and  C_11 
REMARK    6  A    between atoms: C_13  and  C_14 
REMARK    7  A    between atoms: C_14  and  N_15 
REMARK    8  A    between atoms: C_23  and  C_24 
REMARK    9  A    between atoms: C_24  and  O_25 
REMARK   10  A    between atoms: O_25  and  C_26 
ROOT
HETATM    1  C   UNL     1      41.827 -15.173   2.212  1.00  0.00     0.139 A 
HETATM    2  N   UNL     1      40.977 -14.368   2.901  1.00  0.00    -0.214 NA
HETATM    3  C   UNL     1      40.589 -14.714   4.139  1.00  0.00     0.155 A 
HETATM    4  N   UNL     1      40.917 -15.838   4.788  1.00  0.00    -0.224 NA
HETATM    5  C   UNL     1      41.749 -16.624   4.088  1.00  0.00     0.115 A 
HETATM    6  C   UNL     1      42.274 -16.370   2.831  1.00  0.00     0.053 A 
HETATM    7  S   UNL     1      42.254 -18.095   4.748  1.00  0.00    -0.063 SA
HETATM    8  C   UNL     1      43.230 -18.463   3.393  1.00  0.00     0.089 A 
HETATM    9  C   UNL     1      43.204 -17.432   2.450  1.00  0.00    -0.022 A 
HETATM   10  C   UNL     1      44.036 -17.425   1.200  1.00  0.00     0.051 C 
ENDROOT
BRANCH   1  11
HETATM   11  N   UNL     1      42.234 -14.790   0.939  1.00  0.00    -0.372 N 
HETATM   12  H   UNL     1      43.182 -15.089   0.732  1.00  0.00     0.161 HD
BRANCH  11  13
HETATM   13  C   UNL     1      41.323 -14.928  -0.189  1.00  0.00     0.145 C 
BRANCH  13  14
HETATM   14  C   UNL     1      40.960 -13.589  -0.887  1.00  0.00     0.092 C 
HETATM   15  C   UNL     1      41.936 -12.470  -0.480  1.00  0.00     0.033 C 
BRANCH  14  16
HETATM   16  N   UNL     1      40.809 -13.650  -2.362  1.00  0.00    -0.404 N 
HETATM   17  C   UNL     1      39.985 -12.596  -2.963  1.00  0.00     0.145 C 
HETATM   18  C   UNL     1      38.510 -12.960  -3.249  1.00  0.00     0.254 C 
HETATM   19  N   UNL     1      38.405 -14.276  -3.996  1.00  0.00    -0.068 N 
HETATM   20  H   UNL     1      38.875 -14.151  -4.904  1.00  0.00     0.280 HD
HETATM   21  C   UNL     1      39.166 -15.379  -3.268  1.00  0.00     0.254 C 
HETATM   22  C   UNL     1      40.623 -14.958  -3.001  1.00  0.00     0.145 C 
BRANCH  19  23
HETATM   23  C   UNL     1      36.981 -14.710  -4.273  1.00  0.00     0.230 C 
HETATM   24  C   UNL     1      36.088 -13.521  -4.576  1.00  0.00     0.034 C 
ENDBRANCH  19  23
ENDBRANCH  14  16
ENDBRANCH  13  14
ENDBRANCH  11  13
ENDBRANCH   1  11
BRANCH   3  25
HETATM   25  C   UNL     1      39.720 -13.747   4.925  1.00  0.00     0.314 C 
BRANCH  25  26
HETATM   26  N   UNL     1      40.381 -13.232   6.204  1.00  0.00    -0.072 N 
HETATM   27  H   UNL     1      40.602 -14.091   6.738  1.00  0.00     0.279 HD
HETATM   28  C   UNL     1      41.698 -12.558   5.941  1.00  0.00     0.269 C 
HETATM   29  C   UNL     1      39.466 -12.393   7.036  1.00  0.00     0.269 C 
ENDBRANCH  25  26
ENDBRANCH   3  25
BRANCH   8  30
HETATM   30  C   UNL     1      43.951 -19.734   3.318  1.00  0.00     0.300 C 
HETATM   31  O   UNL     1      43.814 -20.557   2.422  1.00  0.00    -0.259 OA
BRANCH  30  32
HETATM   32  O   UNL     1      44.810 -19.880   4.367  1.00  0.00    -0.317 OA
BRANCH  32  33
HETATM   33  C   UNL     1      44.945 -21.207   4.897  1.00  0.00     0.174 C 
HETATM   34  C   UNL     1      44.129 -21.342   6.169  1.00  0.00     0.034 C 
ENDBRANCH  32  33
ENDBRANCH  30  32
ENDBRANCH   8  30
TORSDOF 10
ENDMDL
MODEL 7
REMARK VINA RESULT:      -6.7      1.871      4.875
REMARK  10 active torsions:
REMARK  status: ('A' for Active; 'I' for Inactive)
REMARK    1  A    between atoms: C_2  and  N_3 
REMARK    2  A    between atoms: N_7  and  C_8 
REMARK    3  A    between atoms: C_8  and  C_9 
REMARK    4  A    between atoms: C_9  and  N_10 
REMARK    5  A    between atoms: N_10  and  C_11 
REMARK    6  A    between atoms: C_13  and  C_14 
REMARK    7  A    between atoms: C_14  and  N_15 
REMARK    8  A    between atoms: C_23  and  C_24 
REMARK    9  A    between atoms: C_24  and  O_25 
REMARK   10  A    between atoms: O_25  and  C_26 
ROOT
HETATM    1  C   UNL     1      41.864 -15.911   2.563  1.00  0.00     0.139 A 
HETATM    2  N   UNL     1      40.991 -15.079   3.187  1.00  0.00    -0.214 NA
HETATM    3  C   UNL     1      40.724 -15.250   4.491  1.00  0.00     0.155 A 
HETATM    4  N   UNL     1      41.201 -16.222   5.278  1.00  0.00    -0.224 NA
HETATM    5  C   UNL     1      42.054 -17.039   4.642  1.00  0.00     0.115 A 
HETATM    6  C   UNL     1      42.465 -16.950   3.322  1.00  0.00     0.053 A 
HETATM    7  S   UNL     1      42.740 -18.337   5.479  1.00  0.00    -0.063 SA
HETATM    8  C   UNL     1      43.652 -18.838   4.121  1.00  0.00     0.089 A 
HETATM    9  C   UNL     1      43.463 -17.979   3.036  1.00  0.00    -0.022 A 
HETATM   10  C   UNL     1      44.203 -18.107   1.735  1.00  0.00     0.051 C 
ENDROOT
BRANCH   1  11
HETATM   11  N   UNL     1      42.145 -15.707   1.217  1.00  0.00    -0.372 N 
HETATM   12  H   UNL     1      42.929 -16.267   0.898  1.00  0.00     0.161 HD
BRANCH  11  13
HETATM   13  C   UNL     1      41.058 -15.630   0.251  1.00  0.00     0.145 C 
BRANCH  13  14
HETATM   14  C   UNL     1      41.379 -14.777  -1.007  1.00  0.00     0.092 C 
HETATM   15  C   UNL     1      40.821 -15.437  -2.281  1.00  0.00     0.033 C 
BRANCH  14  16
HETATM   16  N   UNL     1      40.986 -13.348  -0.935  1.00  0.00    -0.404 N 
HETATM   17  C   UNL     1      41.987 -12.438  -0.370  1.00  0.00     0.145 C 
HETATM   18  C   UNL     1      41.828 -12.091   1.128  1.00  0.00     0.254 C 
HETATM   19  N   UNL     1      40.408 -11.658   1.442  1.00  0.00    -0.068 N 
HETATM   20  H   UNL     1      40.224 -10.800   0.903  1.00  0.00     0.280 HD
HETATM   21  C   UNL     1      39.402 -12.695   0.956  1.00  0.00     0.254 C 
HETATM   22  C   UNL     1      39.614 -13.009  -0.537  1.00  0.00     0.145 C 
BRANCH  19  23
HETATM   23  C   UNL     1      40.176 -11.341   2.905  1.00  0.00     0.230 C 
HETATM   24  C   UNL     1      40.610  -9.927   3.241  1.00  0.00     0.034 C 
ENDBRANCH  19  23
ENDBRANCH  14  16
ENDBRANCH  13  14
ENDBRANCH  11  13
ENDBRANCH   1  11
BRANCH   3  25
HETATM   25  C   UNL     1      39.823 -14.243   5.187  1.00  0.00     0.314 C 
BRANCH  25  26
HETATM   26  N   UNL     1      40.544 -13.403   6.241  1.00  0.00    -0.072 N 
HETATM   27  H   UNL     1      40.729 -14.068   7.012  1.00  0.00     0.279 HD
HETATM   28  C   UNL     1      41.889 -12.924   5.776  1.00  0.00     0.269 C 
HETATM   29  C   UNL     1      39.698 -12.294   6.782  1.00  0.00     0.269 C 
ENDBRANCH  25  26
ENDBRANCH   3  25
BRANCH   8  30
HETATM   30  C   UNL     1      44.484 -20.040   4.186  1.00  0.00     0.300 C 
HETATM   31  O   UNL     1      45.604 -20.082   4.677  1.00  0.00    -0.259 OA
BRANCH  30  32
HETATM   32  O   UNL     1      43.844 -21.115   3.642  1.00  0.00    -0.317 OA
BRANCH  32  33
HETATM   33  C   UNL     1      44.596 -21.887   2.694  1.00  0.00     0.174 C 
HETATM   34  C   UNL     1      43.907 -21.861   1.342  1.00  0.00     0.034 C 
ENDBRANCH  32  33
ENDBRANCH  30  32
ENDBRANCH   8  30
TORSDOF 10
ENDMDL
MODEL 8
REMARK VINA RESULT:      -6.6      2.084      6.418
REMARK  10 active torsions:
REMARK  status: ('A' for Active; 'I' for Inactive)
REMARK    1  A    between atoms: C_2  and  N_3 
REMARK    2  A    between atoms: N_7  and  C_8 
REMARK    3  A    between atoms: C_8  and  C_9 
REMARK    4  A    between atoms: C_9  and  N_10 
REMARK    5  A    between atoms: N_10  and  C_11 
REMARK    6  A    between atoms: C_13  and  C_14 
REMARK    7  A    between atoms: C_14  and  N_15 
REMARK    8  A    between atoms: C_23  and  C_24 
REMARK    9  A    between atoms: C_24  and  O_25 
REMARK   10  A    between atoms: O_25  and  C_26 
ROOT
HETATM    1  C   UNL     1      43.082 -15.010   3.229  1.00  0.00     0.139 A 
HETATM    2  N   UNL     1      43.042 -14.191   4.313  1.00  0.00    -0.214 NA
HETATM    3  C   UNL     1      43.289 -14.692   5.534  1.00  0.00     0.155 A 
HETATM    4  N   UNL     1      43.531 -15.973   5.832  1.00  0.00    -0.224 NA
HETATM    5  C   UNL     1      43.556 -16.767   4.751  1.00  0.00     0.115 A 
HETATM    6  C   UNL     1      43.378 -16.384   3.432  1.00  0.00     0.053 A 
HETATM    7  S   UNL     1      43.831 -18.424   4.943  1.00  0.00    -0.063 SA
HETATM    8  C   UNL     1      43.753 -18.716   3.260  1.00  0.00     0.089 A 
HETATM    9  C   UNL     1      43.561 -17.532   2.545  1.00  0.00    -0.022 A 
HETATM   10  C   UNL     1      43.547 -17.457   1.045  1.00  0.00     0.051 C 
ENDROOT
BRANCH   1  11
HETATM   11  N   UNL     1      42.844 -14.471   1.970  1.00  0.00    -0.372 N 
HETATM   12  H   UNL     1      42.488 -15.163   1.317  1.00  0.00     0.161 HD
BRANCH  11  13
HETATM   13  C   UNL     1      42.202 -13.170   1.844  1.00  0.00     0.145 C 
BRANCH  13  14
HETATM   14  C   UNL     1      41.299 -13.021   0.588  1.00  0.00     0.092 C 
HETATM   15  C   UNL     1      42.114 -12.541  -0.626  1.00  0.00     0.033 C 
BRANCH  14  16
HETATM   16  N   UNL     1      40.476 -14.205   0.241  1.00  0.00    -0.404 N 
HETATM   17  C   UNL     1      40.969 -15.020  -0.874  1.00  0.00     0.145 C 
HETATM   18  C   UNL     1      40.340 -14.740  -2.258  1.00  0.00     0.254 C 
HETATM   19  N   UNL     1      38.825 -14.723  -2.177  1.00  0.00    -0.068 N 
HETATM   20  H   UNL     1      38.524 -15.663  -1.884  1.00  0.00     0.280 HD
HETATM   21  C   UNL     1      38.347 -13.762  -1.094  1.00  0.00     0.254 C 
HETATM   22  C   UNL     1      39.014 -14.082   0.257  1.00  0.00     0.145 C 
BRANCH  19  23
HETATM   23  C   UNL     1      38.147 -14.414  -3.496  1.00  0.00     0.230 C 
HETATM   24  C   UNL     1      37.262 -13.187  -3.390  1.00  0.00     0.034 C 
ENDBRANCH  19  23
ENDBRANCH  14  16
ENDBRANCH  13  14
ENDBRANCH  11  13
ENDBRANCH   1  11
BRANCH   3  25
HETATM   25  C   UNL     1      43.339 -13.736   6.714  1.00  0.00     0.314 C 
BRANCH  25  26
HETATM   26  N   UNL     1      44.665 -13.771   7.474  1.00  0.00    -0.072 N 
HETATM   27  H   UNL     1      44.724 -14.739   7.836  1.00  0.00     0.279 HD
HETATM   28  C   UNL     1      45.852 -13.593   6.571  1.00  0.00     0.269 C 
HETATM   29  C   UNL     1      44.692 -12.839   8.643  1.00  0.00     0.269 C 
ENDBRANCH  25  26
ENDBRANCH   3  25
BRANCH   8  30
HETATM   30  C   UNL     1      43.870 -20.077   2.735  1.00  0.00     0.300 C 
HETATM   31  O   UNL     1      43.132 -20.556   1.883  1.00  0.00    -0.259 OA
BRANCH  30  32
HETATM   32  O   UNL     1      44.917 -20.740   3.303  1.00  0.00    -0.317 OA
BRANCH  32  33
HETATM   33  C   UNL     1      44.663 -22.091   3.717  1.00  0.00     0.174 C 
HETATM   34  C   UNL     1      45.013 -22.258   5.183  1.00  0.00     0.034 C 
ENDBRANCH  32  33
ENDBRANCH  30  32
ENDBRANCH   8  30
TORSDOF 10
ENDMDL
MODEL 9
REMARK VINA RESULT:      -6.6      2.240      6.249
REMARK  10 active torsions:
REMARK  status: ('A' for Active; 'I' for Inactive)
REMARK    1  A    between atoms: C_2  and  N_3 
REMARK    2  A    between atoms: N_7  and  C_8 
REMARK    3  A    between atoms: C_8  and  C_9 
REMARK    4  A    between atoms: C_9  and  N_10 
REMARK    5  A    between atoms: N_10  and  C_11 
REMARK    6  A    between atoms: C_13  and  C_14 
REMARK    7  A    between atoms: C_14  and  N_15 
REMARK    8  A    between atoms: C_23  and  C_24 
REMARK    9  A    between atoms: C_24  and  O_25 
REMARK   10  A    between atoms: O_25  and  C_26 
ROOT
HETATM    1  C   UNL     1      41.595 -14.442   3.386  1.00  0.00     0.139 A 
HETATM    2  N   UNL     1      40.727 -13.639   4.054  1.00  0.00    -0.214 NA
HETATM    3  C   UNL     1      40.449 -13.886   5.344  1.00  0.00     0.155 A 
HETATM    4  N   UNL     1      40.910 -14.910   6.072  1.00  0.00    -0.224 NA
HETATM    5  C   UNL     1      41.758 -15.697   5.393  1.00  0.00     0.115 A 
HETATM    6  C   UNL     1      42.179 -15.532   4.084  1.00  0.00     0.053 A 
HETATM    7  S   UNL     1      42.424 -17.052   6.153  1.00  0.00    -0.063 SA
HETATM    8  C   UNL     1      43.339 -17.479   4.773  1.00  0.00     0.089 A 
HETATM    9  C   UNL     1      43.168 -16.554   3.741  1.00  0.00    -0.022 A 
HETATM   10  C   UNL     1      43.915 -16.610   2.439  1.00  0.00     0.051 C 
ENDROOT
BRANCH   1  11
HETATM   11  N   UNL     1      41.888 -14.159   2.056  1.00  0.00    -0.372 N 
HETATM   12  H   UNL     1      42.759 -14.584   1.756  1.00  0.00     0.161 HD
BRANCH  11  13
HETATM   13  C   UNL     1      40.836 -14.221   1.051  1.00  0.00     0.145 C 
BRANCH  13  14
HETATM   14  C   UNL     1      41.225 -14.997  -0.237  1.00  0.00     0.092 C 
HETATM   15  C   UNL     1      41.357 -16.505   0.044  1.00  0.00     0.033 C 
BRANCH  14  16
HETATM   16  N   UNL     1      40.368 -14.751  -1.422  1.00  0.00    -0.404 N 
HETATM   17  C   UNL     1      40.978 -15.046  -2.723  1.00  0.00     0.145 C 
HETATM   18  C   UNL     1      41.590 -13.846  -3.480  1.00  0.00     0.254 C 
HETATM   19  N   UNL     1      40.616 -12.684  -3.545  1.00  0.00    -0.068 N 
HETATM   20  H   UNL     1      39.796 -13.003  -4.081  1.00  0.00     0.280 HD
HETATM   21  C   UNL     1      40.105 -12.321  -2.155  1.00  0.00     0.254 C 
HETATM   22  C   UNL     1      39.517 -13.556  -1.446  1.00  0.00     0.145 C 
BRANCH  19  23
HETATM   23  C   UNL     1      41.172 -11.459  -4.242  1.00  0.00     0.230 C 
HETATM   24  C   UNL     1      42.232 -10.776  -3.400  1.00  0.00     0.034 C 
ENDBRANCH  19  23
ENDBRANCH  14  16
ENDBRANCH  13  14
ENDBRANCH  11  13
ENDBRANCH   1  11
BRANCH   3  25
HETATM   25  C   UNL     1      39.555 -12.913   6.094  1.00  0.00     0.314 C 
BRANCH  25  26
HETATM   26  N   UNL     1      40.262 -12.193   7.242  1.00  0.00    -0.072 N 
HETATM   27  H   UNL     1      40.776 -12.945   7.735  1.00  0.00     0.279 HD
HETATM   28  C   UNL     1      41.305 -11.225   6.760  1.00  0.00     0.269 C 
HETATM   29  C   UNL     1      39.312 -11.571   8.214  1.00  0.00     0.269 C 
ENDBRANCH  25  26
ENDBRANCH   3  25
BRANCH   8  30
HETATM   30  C   UNL     1      44.156 -18.693   4.769  1.00  0.00     0.300 C 
HETATM   31  O   UNL     1      45.195 -18.831   5.403  1.00  0.00    -0.259 OA
BRANCH  30  32
HETATM   32  O   UNL     1      43.605 -19.659   3.980  1.00  0.00    -0.317 OA
BRANCH  32  33
HETATM   33  C   UNL     1      44.485 -20.281   3.030  1.00  0.00     0.174 C 
HETATM   34  C   UNL     1      43.684 -20.826   1.863  1.00  0.00     0.034 C 
ENDBRANCH  32  33
ENDBRANCH  30  32
ENDBRANCH   8  30
TORSDOF 10
ENDMDL
MODEL 10
REMARK VINA RESULT:      -6.5      2.181      5.479
REMARK  10 active torsions:
REMARK  status: ('A' for Active; 'I' for Inactive)
REMARK    1  A    between atoms: C_2  and  N_3 
REMARK    2  A    between atoms: N_7  and  C_8 
REMARK    3  A    between atoms: C_8  and  C_9 
REMARK    4  A    between atoms: C_9  and  N_10 
REMARK    5  A    between atoms: N_10  and  C_11 
REMARK    6  A    between atoms: C_13  and  C_14 
REMARK    7  A    between atoms: C_14  and  N_15 
REMARK    8  A    between atoms: C_23  and  C_24 
REMARK    9  A    between atoms: C_24  and  O_25 
REMARK   10  A    between atoms: O_25  and  C_26 
ROOT
HETATM    1  C   UNL     1      42.393 -15.150   1.970  1.00  0.00     0.139 A 
HETATM    2  N   UNL     1      41.899 -13.989   2.472  1.00  0.00    -0.214 NA
HETATM    3  C   UNL     1      41.923 -13.773   3.797  1.00  0.00     0.155 A 
HETATM    4  N   UNL     1      42.351 -14.628   4.732  1.00  0.00    -0.224 NA
HETATM    5  C   UNL     1      42.826 -15.773   4.218  1.00  0.00     0.115 A 
HETATM    6  C   UNL     1      42.917 -16.109   2.877  1.00  0.00     0.053 A 
HETATM    7  S   UNL     1      43.394 -16.979   5.258  1.00  0.00    -0.063 SA
HETATM    8  C   UNL     1      43.819 -18.011   3.962  1.00  0.00     0.089 A 
HETATM    9  C   UNL     1      43.567 -17.410   2.727  1.00  0.00    -0.022 A 
HETATM   10  C   UNL     1      43.925 -18.034   1.408  1.00  0.00     0.051 C 
ENDROOT
BRANCH   1  11
HETATM   11  N   UNL     1      42.378 -15.349   0.594  1.00  0.00    -0.372 N 
HETATM   12  H   UNL     1      42.928 -16.156   0.316  1.00  0.00     0.161 HD
BRANCH  11  13
HETATM   13  C   UNL     1      41.132 -15.213  -0.148  1.00  0.00     0.145 C 
BRANCH  13  14
HETATM   14  C   UNL     1      41.298 -14.617  -1.573  1.00  0.00     0.092 C 
HETATM   15  C   UNL     1      40.642 -15.522  -2.632  1.00  0.00     0.033 C 
BRANCH  14  16
HETATM   16  N   UNL     1      40.863 -13.208  -1.738  1.00  0.00    -0.404 N 
HETATM   17  C   UNL     1      41.309 -12.541  -2.965  1.00  0.00     0.145 C 
HETATM   18  C   UNL     1      42.575 -11.664  -2.847  1.00  0.00     0.254 C 
HETATM   19  N   UNL     1      42.471 -10.708  -1.673  1.00  0.00    -0.068 N 
HETATM   20  H   UNL     1      41.676 -10.081  -1.858  1.00  0.00     0.280 HD
HETATM   21  C   UNL     1      42.137 -11.457  -0.387  1.00  0.00     0.254 C 
HETATM   22  C   UNL     1      40.875 -12.321  -0.568  1.00  0.00     0.145 C 
BRANCH  19  23
HETATM   23  C   UNL     1      43.700  -9.844  -1.478  1.00  0.00     0.230 C 
HETATM   24  C   UNL     1      43.485  -8.811  -0.389  1.00  0.00     0.034 C 
ENDBRANCH  19  23
ENDBRANCH  14  16
ENDBRANCH  13  14
ENDBRANCH  11  13
ENDBRANCH   1  11
BRANCH   3  25
HETATM   25  C   UNL     1      41.458 -12.425   4.322  1.00  0.00     0.314 C 
BRANCH  25  26
HETATM   26  N   UNL     1      40.935 -12.475   5.758  1.00  0.00    -0.072 N 
HETATM   27  H   UNL     1      41.396 -13.307   6.166  1.00  0.00     0.279 HD
HETATM   28  C   UNL     1      41.392 -11.303   6.579  1.00  0.00     0.269 C 
HETATM   29  C   UNL     1      39.456 -12.683   5.832  1.00  0.00     0.269 C 
ENDBRANCH  25  26
ENDBRANCH   3  25
BRANCH   8  30
HETATM   30  C   UNL     1      44.359 -19.346   4.221  1.00  0.00     0.300 C 
HETATM   31  O   UNL     1      45.227 -19.595   5.048  1.00  0.00    -0.259 OA
BRANCH  30  32
HETATM   32  O   UNL     1      43.759 -20.285   3.434  1.00  0.00    -0.317 OA
BRANCH  32  33
HETATM   33  C   UNL     1      44.611 -21.317   2.916  1.00  0.00     0.174 C 
HETATM   34  C   UNL     1      44.010 -21.898   1.650  1.00  0.00     0.034 C 
ENDBRANCH  32  33
ENDBRANCH  30  32
ENDBRANCH   8  30
TORSDOF 10
ENDMDL
