MODEL 1
REMARK VINA RESULT:      -8.6      0.000      0.000
REMARK  8 active torsions:
REMARK  status: ('A' for Active; 'I' for Inactive)
REMARK    1  A    between atoms: N_2  and  C_4 
REMARK    2  A    between atoms: N_2  and  C_10 
REMARK    3  A    between atoms: C_10  and  C_11 
REMARK    4  A    between atoms: C_12  and  N_13 
REMARK    5  A    between atoms: N_13  and  C_14 
REMARK    6  A    between atoms: C_14  and  C_15 
REMARK       I    between atoms: C_15  and  N_16 
REMARK    7  A    between atoms: N_16  and  N_17 
REMARK       I    between atoms: N_17  and  C_18 
REMARK    8  A    between atoms: C_18  and  C_19 
ROOT
HETATM    1  N   UNL     1      43.757 -18.023   5.131  1.00  0.00    -0.284 NA
HETATM    2  H   UNL     1      42.748 -17.845   5.232  1.00  0.00     0.128 HD
ENDROOT
BRANCH   1   3
HETATM    3  C   UNL     1      43.919 -19.051   4.176  1.00  0.00     0.016 A 
HETATM    4  C   UNL     1      43.159 -18.989   2.984  1.00  0.00    -0.011 A 
HETATM    5  C   UNL     1      43.228 -20.043   2.053  1.00  0.00     0.011 A 
HETATM    6  C   UNL     1      44.038 -21.149   2.291  1.00  0.00     0.001 A 
HETATM    7  C   UNL     1      44.775 -21.221   3.466  1.00  0.00     0.002 A 
HETATM    8  C   UNL     1      44.706 -20.189   4.406  1.00  0.00     0.024 A 
BRANCH   4   9
HETATM    9  C   UNL     1      42.240 -17.826   2.682  1.00  0.00     0.275 C 
BRANCH   9  10
HETATM   10  N   UNL     1      42.897 -16.452   2.698  1.00  0.00    -0.067 N 
HETATM   11  C   UNL     1      44.049 -16.408   1.719  1.00  0.00     0.270 C 
HETATM   12  H   UNL     1      43.322 -16.423   3.644  1.00  0.00     0.280 HD
BRANCH  10  13
HETATM   13  C   UNL     1      41.921 -15.287   2.508  1.00  0.00     0.188 C 
HETATM   14  C   UNL     1      40.785 -15.284   3.546  1.00  0.00     0.033 C 
HETATM   15  C   UNL     1      41.271 -14.995   4.963  1.00  0.00     0.002 C 
HETATM   16  C   UNL     1      42.053 -13.685   5.032  1.00  0.00     0.000 C 
HETATM   17  C   UNL     1      43.169 -13.622   3.993  1.00  0.00     0.002 C 
HETATM   18  C   UNL     1      42.647 -13.930   2.590  1.00  0.00     0.033 C 
ENDBRANCH  10  13
ENDBRANCH   9  10
ENDBRANCH   4   9
ENDBRANCH   1   3
BRANCH   1  19
HETATM   19  C   UNL     1      44.263 -18.287   6.505  1.00  0.00     0.197 C 
BRANCH  19  20
HETATM   20  C   UNL     1      43.875 -17.115   7.411  1.00  0.00     0.249 C 
HETATM   21  N   UNL     1      44.248 -15.876   6.944  1.00  0.00    -0.266 N 
HETATM   22  H   UNL     1      44.959 -15.733   6.222  1.00  0.00     0.190 HD
HETATM   23  O   UNL     1      43.242 -17.274   8.458  1.00  0.00    -0.270 OA
BRANCH  21  24
HETATM   24  N   UNL     1      44.003 -14.761   7.759  1.00  0.00    -0.263 N 
HETATM   25  C   UNL     1      44.820 -13.660   7.576  1.00  0.00     0.270 C 
HETATM   26  O   UNL     1      45.663 -13.624   6.684  1.00  0.00    -0.266 OA
HETATM   27  H   UNL     1      43.513 -14.933   8.636  1.00  0.00     0.190 HD
BRANCH  25  28
HETATM   28  C   UNL     1      44.651 -12.537   8.538  1.00  0.00     0.033 A 
HETATM   29  C   UNL     1      45.708 -12.240   9.407  1.00  0.00     0.017 A 
HETATM   30  C   UNL     1      45.590 -11.193  10.323  1.00  0.00     0.001 A 
HETATM   31  C   UNL     1      44.422 -10.434  10.368  1.00  0.00     0.000 A 
HETATM   32  C   UNL     1      43.372 -10.714   9.494  1.00  0.00     0.001 A 
HETATM   33  C   UNL     1      43.484 -11.761   8.577  1.00  0.00     0.017 A 
ENDBRANCH  25  28
ENDBRANCH  21  24
ENDBRANCH  19  20
ENDBRANCH   1  19
TORSDOF 8
ENDMDL
MODEL 2
REMARK VINA RESULT:      -8.3      2.480      4.643
REMARK  8 active torsions:
REMARK  status: ('A' for Active; 'I' for Inactive)
REMARK    1  A    between atoms: N_2  and  C_4 
REMARK    2  A    between atoms: N_2  and  C_10 
REMARK    3  A    between atoms: C_10  and  C_11 
REMARK    4  A    between atoms: C_12  and  N_13 
REMARK    5  A    between atoms: N_13  and  C_14 
REMARK    6  A    between atoms: C_14  and  C_15 
REMARK       I    between atoms: C_15  and  N_16 
REMARK    7  A    between atoms: N_16  and  N_17 
REMARK       I    between atoms: N_17  and  C_18 
REMARK    8  A    between atoms: C_18  and  C_19 
ROOT
HETATM    1  N   UNL     1      44.258 -13.868   6.526  1.00  0.00    -0.284 NA
HETATM    2  H   UNL     1      43.518 -13.250   6.888  1.00  0.00     0.128 HD
ENDROOT
BRANCH   1   3
HETATM    3  C   UNL     1      43.784 -15.197   6.596  1.00  0.00     0.016 A 
HETATM    4  C   UNL     1      43.133 -15.740   5.463  1.00  0.00    -0.011 A 
HETATM    5  C   UNL     1      42.568 -17.027   5.530  1.00  0.00     0.011 A 
HETATM    6  C   UNL     1      42.643 -17.776   6.701  1.00  0.00     0.001 A 
HETATM    7  C   UNL     1      43.268 -17.241   7.819  1.00  0.00     0.002 A 
HETATM    8  C   UNL     1      43.821 -15.959   7.773  1.00  0.00     0.024 A 
BRANCH   4   9
HETATM    9  C   UNL     1      42.996 -14.964   4.171  1.00  0.00     0.275 C 
BRANCH   9  10
HETATM   10  N   UNL     1      42.042 -15.563   3.147  1.00  0.00    -0.067 N 
HETATM   11  C   UNL     1      40.824 -14.683   2.983  1.00  0.00     0.270 C 
HETATM   12  H   UNL     1      41.714 -16.421   3.629  1.00  0.00     0.280 HD
BRANCH  10  13
HETATM   13  C   UNL     1      42.698 -15.913   1.808  1.00  0.00     0.188 C 
HETATM   14  C   UNL     1      44.010 -16.699   1.972  1.00  0.00     0.033 C 
HETATM   15  C   UNL     1      43.799 -18.101   2.538  1.00  0.00     0.002 C 
HETATM   16  C   UNL     1      42.804 -18.901   1.700  1.00  0.00     0.000 C 
HETATM   17  C   UNL     1      41.497 -18.145   1.475  1.00  0.00     0.002 C 
HETATM   18  C   UNL     1      41.750 -16.744   0.920  1.00  0.00     0.033 C 
ENDBRANCH  10  13
ENDBRANCH   9  10
ENDBRANCH   4   9
ENDBRANCH   1   3
BRANCH   1  19
HETATM   19  C   UNL     1      45.480 -13.540   7.310  1.00  0.00     0.197 C 
BRANCH  19  20
HETATM   20  C   UNL     1      45.129 -12.480   8.357  1.00  0.00     0.249 C 
HETATM   21  N   UNL     1      43.986 -12.737   9.079  1.00  0.00    -0.266 N 
HETATM   22  H   UNL     1      43.268 -13.403   8.785  1.00  0.00     0.190 HD
HETATM   23  O   UNL     1      45.840 -11.492   8.558  1.00  0.00    -0.270 OA
BRANCH  21  24
HETATM   24  N   UNL     1      43.552 -11.769   9.998  1.00  0.00    -0.263 N 
HETATM   25  C   UNL     1      43.754 -12.043  11.338  1.00  0.00     0.270 C 
HETATM   26  O   UNL     1      44.363 -13.044  11.707  1.00  0.00    -0.266 OA
HETATM   27  H   UNL     1      42.829 -11.126   9.677  1.00  0.00     0.190 HD
BRANCH  25  28
HETATM   28  C   UNL     1      43.163 -11.085  12.311  1.00  0.00     0.033 A 
HETATM   29  C   UNL     1      41.904 -11.374  12.849  1.00  0.00     0.017 A 
HETATM   30  C   UNL     1      41.316 -10.500  13.766  1.00  0.00     0.001 A 
HETATM   31  C   UNL     1      41.987  -9.342  14.156  1.00  0.00     0.000 A 
HETATM   32  C   UNL     1      43.248  -9.057  13.636  1.00  0.00     0.001 A 
HETATM   33  C   UNL     1      43.841  -9.925  12.717  1.00  0.00     0.017 A 
ENDBRANCH  25  28
ENDBRANCH  21  24
ENDBRANCH  19  20
ENDBRANCH   1  19
TORSDOF 8
ENDMDL
MODEL 3
REMARK VINA RESULT:      -8.2      1.990      8.252
REMARK  8 active torsions:
REMARK  status: ('A' for Active; 'I' for Inactive)
REMARK    1  A    between atoms: N_2  and  C_4 
REMARK    2  A    between atoms: N_2  and  C_10 
REMARK    3  A    between atoms: C_10  and  C_11 
REMARK    4  A    between atoms: C_12  and  N_13 
REMARK    5  A    between atoms: N_13  and  C_14 
REMARK    6  A    between atoms: C_14  and  C_15 
REMARK       I    between atoms: C_15  and  N_16 
REMARK    7  A    between atoms: N_16  and  N_17 
REMARK       I    between atoms: N_17  and  C_18 
REMARK    8  A    between atoms: C_18  and  C_19 
ROOT
HETATM    1  N   UNL     1      43.619 -12.009   8.496  1.00  0.00    -0.284 NA
HETATM    2  H   UNL     1      43.715 -11.402   7.670  1.00  0.00     0.128 HD
ENDROOT
BRANCH   1   3
HETATM    3  C   UNL     1      43.341 -11.184   9.608  1.00  0.00     0.016 A 
HETATM    4  C   UNL     1      42.331 -10.201   9.480  1.00  0.00    -0.011 A 
HETATM    5  C   UNL     1      42.091  -9.302  10.537  1.00  0.00     0.011 A 
HETATM    6  C   UNL     1      42.837  -9.368  11.710  1.00  0.00     0.001 A 
HETATM    7  C   UNL     1      43.839 -10.322  11.834  1.00  0.00     0.002 A 
HETATM    8  C   UNL     1      44.098 -11.213  10.788  1.00  0.00     0.024 A 
BRANCH   4   9
HETATM    9  C   UNL     1      41.506 -10.061   8.220  1.00  0.00     0.275 C 
BRANCH   9  10
HETATM   10  N   UNL     1      40.609 -11.247   7.892  1.00  0.00    -0.067 N 
HETATM   11  C   UNL     1      39.532 -11.399   8.942  1.00  0.00     0.270 C 
HETATM   12  H   UNL     1      41.252 -12.051   8.021  1.00  0.00     0.280 HD
BRANCH  10  13
HETATM   13  C   UNL     1      40.043 -11.231   6.468  1.00  0.00     0.188 C 
HETATM   14  C   UNL     1      41.135 -11.102   5.393  1.00  0.00     0.033 C 
HETATM   15  C   UNL     1      42.036 -12.330   5.305  1.00  0.00     0.002 C 
HETATM   16  C   UNL     1      41.225 -13.606   5.086  1.00  0.00     0.000 C 
HETATM   17  C   UNL     1      40.101 -13.760   6.107  1.00  0.00     0.002 C 
HETATM   18  C   UNL     1      39.230 -12.507   6.174  1.00  0.00     0.033 C 
ENDBRANCH  10  13
ENDBRANCH   9  10
ENDBRANCH   4   9
ENDBRANCH   1   3
BRANCH   1  19
HETATM   19  C   UNL     1      44.864 -12.823   8.549  1.00  0.00     0.197 C 
BRANCH  19  20
HETATM   20  C   UNL     1      44.914 -13.736   7.322  1.00  0.00     0.249 C 
HETATM   21  N   UNL     1      43.975 -14.742   7.312  1.00  0.00    -0.266 N 
HETATM   22  H   UNL     1      43.472 -15.055   8.146  1.00  0.00     0.190 HD
HETATM   23  O   UNL     1      45.710 -13.556   6.398  1.00  0.00    -0.270 OA
BRANCH  21  24
HETATM   24  N   UNL     1      44.012 -15.672   6.262  1.00  0.00    -0.263 N 
HETATM   25  C   UNL     1      43.890 -17.007   6.602  1.00  0.00     0.270 C 
HETATM   26  O   UNL     1      43.670 -17.359   7.758  1.00  0.00    -0.266 OA
HETATM   27  H   UNL     1      44.465 -15.370   5.400  1.00  0.00     0.190 HD
BRANCH  25  28
HETATM   28  C   UNL     1      44.074 -17.994   5.505  1.00  0.00     0.033 A 
HETATM   29  C   UNL     1      43.613 -17.662   4.226  1.00  0.00     0.017 A 
HETATM   30  C   UNL     1      43.769 -18.561   3.169  1.00  0.00     0.001 A 
HETATM   31  C   UNL     1      44.394 -19.788   3.383  1.00  0.00     0.000 A 
HETATM   32  C   UNL     1      44.870 -20.118   4.651  1.00  0.00     0.001 A 
HETATM   33  C   UNL     1      44.716 -19.224   5.712  1.00  0.00     0.017 A 
ENDBRANCH  25  28
ENDBRANCH  21  24
ENDBRANCH  19  20
ENDBRANCH   1  19
TORSDOF 8
ENDMDL
MODEL 4
REMARK VINA RESULT:      -8.0      1.123      2.116
REMARK  8 active torsions:
REMARK  status: ('A' for Active; 'I' for Inactive)
REMARK    1  A    between atoms: N_2  and  C_4 
REMARK    2  A    between atoms: N_2  and  C_10 
REMARK    3  A    between atoms: C_10  and  C_11 
REMARK    4  A    between atoms: C_12  and  N_13 
REMARK    5  A    between atoms: N_13  and  C_14 
REMARK    6  A    between atoms: C_14  and  C_15 
REMARK       I    between atoms: C_15  and  N_16 
REMARK    7  A    between atoms: N_16  and  N_17 
REMARK       I    between atoms: N_17  and  C_18 
REMARK    8  A    between atoms: C_18  and  C_19 
ROOT
HETATM    1  N   UNL     1      44.720 -17.838   5.183  1.00  0.00    -0.284 NA
HETATM    2  H   UNL     1      44.565 -16.820   5.189  1.00  0.00     0.128 HD
ENDROOT
BRANCH   1   3
HETATM    3  C   UNL     1      44.168 -18.352   3.989  1.00  0.00     0.016 A 
HETATM    4  C   UNL     1      43.298 -17.525   3.239  1.00  0.00    -0.011 A 
HETATM    5  C   UNL     1      42.659 -18.036   2.093  1.00  0.00     0.011 A 
HETATM    6  C   UNL     1      42.874 -19.349   1.687  1.00  0.00     0.001 A 
HETATM    7  C   UNL     1      43.715 -20.169   2.428  1.00  0.00     0.002 A 
HETATM    8  C   UNL     1      44.346 -19.680   3.575  1.00  0.00     0.024 A 
BRANCH   4   9
HETATM    9  C   UNL     1      43.004 -16.097   3.646  1.00  0.00     0.275 C 
BRANCH   9  10
HETATM   10  N   UNL     1      41.528 -15.731   3.722  1.00  0.00    -0.067 N 
HETATM   11  C   UNL     1      40.994 -15.982   5.114  1.00  0.00     0.270 C 
HETATM   12  H   UNL     1      41.092 -16.449   3.113  1.00  0.00     0.280 HD
BRANCH  10  13
HETATM   13  C   UNL     1      41.204 -14.322   3.215  1.00  0.00     0.188 C 
HETATM   14  C   UNL     1      41.878 -14.002   1.870  1.00  0.00     0.033 C 
HETATM   15  C   UNL     1      41.327 -14.833   0.713  1.00  0.00     0.002 C 
HETATM   16  C   UNL     1      39.812 -14.692   0.593  1.00  0.00     0.000 C 
HETATM   17  C   UNL     1      39.098 -14.962   1.916  1.00  0.00     0.002 C 
HETATM   18  C   UNL     1      39.685 -14.122   3.050  1.00  0.00     0.033 C 
ENDBRANCH  10  13
ENDBRANCH   9  10
ENDBRANCH   4   9
ENDBRANCH   1   3
BRANCH   1  19
HETATM   19  C   UNL     1      44.155 -18.342   6.464  1.00  0.00     0.197 C 
BRANCH  19  20
HETATM   20  C   UNL     1      43.756 -17.149   7.335  1.00  0.00     0.249 C 
HETATM   21  N   UNL     1      44.312 -15.948   6.959  1.00  0.00    -0.266 N 
HETATM   22  H   UNL     1      45.130 -15.868   6.350  1.00  0.00     0.190 HD
HETATM   23  O   UNL     1      42.966 -17.255   8.276  1.00  0.00    -0.270 OA
BRANCH  21  24
HETATM   24  N   UNL     1      44.061 -14.823   7.759  1.00  0.00    -0.263 N 
HETATM   25  C   UNL     1      44.862 -13.715   7.552  1.00  0.00     0.270 C 
HETATM   26  O   UNL     1      45.696 -13.683   6.650  1.00  0.00    -0.266 OA
HETATM   27  H   UNL     1      43.581 -14.988   8.643  1.00  0.00     0.190 HD
BRANCH  25  28
HETATM   28  C   UNL     1      44.689 -12.580   8.498  1.00  0.00     0.033 A 
HETATM   29  C   UNL     1      45.776 -12.208   9.298  1.00  0.00     0.017 A 
HETATM   30  C   UNL     1      45.654 -11.147  10.197  1.00  0.00     0.001 A 
HETATM   31  C   UNL     1      44.452 -10.449  10.293  1.00  0.00     0.000 A 
HETATM   32  C   UNL     1      43.371 -10.803   9.488  1.00  0.00     0.001 A 
HETATM   33  C   UNL     1      43.485 -11.865   8.588  1.00  0.00     0.017 A 
ENDBRANCH  25  28
ENDBRANCH  21  24
ENDBRANCH  19  20
ENDBRANCH   1  19
TORSDOF 8
ENDMDL
MODEL 5
REMARK VINA RESULT:      -8.0      3.509      6.842
REMARK  8 active torsions:
REMARK  status: ('A' for Active; 'I' for Inactive)
REMARK    1  A    between atoms: N_2  and  C_4 
REMARK    2  A    between atoms: N_2  and  C_10 
REMARK    3  A    between atoms: C_10  and  C_11 
REMARK    4  A    between atoms: C_12  and  N_13 
REMARK    5  A    between atoms: N_13  and  C_14 
REMARK    6  A    between atoms: C_14  and  C_15 
REMARK       I    between atoms: C_15  and  N_16 
REMARK    7  A    between atoms: N_16  and  N_17 
REMARK       I    between atoms: N_17  and  C_18 
REMARK    8  A    between atoms: C_18  and  C_19 
ROOT
HETATM    1  N   UNL     1      44.042 -17.577   2.443  1.00  0.00    -0.284 NA
HETATM    2  H   UNL     1      44.981 -17.168   2.330  1.00  0.00     0.128 HD
ENDROOT
BRANCH   1   3
HETATM    3  C   UNL     1      44.170 -18.741   3.233  1.00  0.00     0.016 A 
HETATM    4  C   UNL     1      44.072 -18.614   4.639  1.00  0.00    -0.011 A 
HETATM    5  C   UNL     1      44.286 -19.737   5.461  1.00  0.00     0.011 A 
HETATM    6  C   UNL     1      44.593 -20.975   4.905  1.00  0.00     0.001 A 
HETATM    7  C   UNL     1      44.705 -21.101   3.526  1.00  0.00     0.002 A 
HETATM    8  C   UNL     1      44.509 -19.992   2.699  1.00  0.00     0.024 A 
BRANCH   4   9
HETATM    9  C   UNL     1      43.768 -17.288   5.303  1.00  0.00     0.275 C 
BRANCH   9  10
HETATM   10  N   UNL     1      42.472 -16.620   4.863  1.00  0.00    -0.067 N 
HETATM   11  C   UNL     1      41.284 -17.474   5.244  1.00  0.00     0.270 C 
HETATM   12  H   UNL     1      42.541 -16.667   3.829  1.00  0.00     0.280 HD
BRANCH  10  13
HETATM   13  C   UNL     1      42.325 -15.168   5.330  1.00  0.00     0.188 C 
HETATM   14  C   UNL     1      43.520 -14.287   4.927  1.00  0.00     0.033 C 
HETATM   15  C   UNL     1      43.621 -14.071   3.419  1.00  0.00     0.002 C 
HETATM   16  C   UNL     1      42.325 -13.501   2.846  1.00  0.00     0.000 C 
HETATM   17  C   UNL     1      41.102 -14.320   3.252  1.00  0.00     0.002 C 
HETATM   18  C   UNL     1      41.044 -14.525   4.765  1.00  0.00     0.033 C 
ENDBRANCH  10  13
ENDBRANCH   9  10
ENDBRANCH   4   9
ENDBRANCH   1   3
BRANCH   1  19
HETATM   19  C   UNL     1      43.505 -17.747   1.065  1.00  0.00     0.197 C 
BRANCH  19  20
HETATM   20  C   UNL     1      42.108 -17.126   0.996  1.00  0.00     0.249 C 
HETATM   21  N   UNL     1      41.899 -16.291  -0.077  1.00  0.00    -0.266 N 
HETATM   22  H   UNL     1      42.655 -15.879  -0.630  1.00  0.00     0.190 HD
HETATM   23  O   UNL     1      41.230 -17.387   1.821  1.00  0.00    -0.270 OA
BRANCH  21  24
HETATM   24  N   UNL     1      40.671 -15.618  -0.163  1.00  0.00    -0.263 N 
HETATM   25  C   UNL     1      40.718 -14.263  -0.440  1.00  0.00     0.270 C 
HETATM   26  O   UNL     1      41.777 -13.692  -0.688  1.00  0.00    -0.266 OA
HETATM   27  H   UNL     1      39.879 -16.048   0.314  1.00  0.00     0.190 HD
BRANCH  25  28
HETATM   28  C   UNL     1      39.426 -13.527  -0.386  1.00  0.00     0.033 A 
HETATM   29  C   UNL     1      38.493 -13.891   0.592  1.00  0.00     0.017 A 
HETATM   30  C   UNL     1      37.269 -13.223   0.677  1.00  0.00     0.001 A 
HETATM   31  C   UNL     1      36.979 -12.185  -0.207  1.00  0.00     0.000 A 
HETATM   32  C   UNL     1      37.910 -11.807  -1.172  1.00  0.00     0.001 A 
HETATM   33  C   UNL     1      39.135 -12.472  -1.263  1.00  0.00     0.017 A 
ENDBRANCH  25  28
ENDBRANCH  21  24
ENDBRANCH  19  20
ENDBRANCH   1  19
TORSDOF 8
ENDMDL
MODEL 6
REMARK VINA RESULT:      -8.0      4.515      8.344
REMARK  8 active torsions:
REMARK  status: ('A' for Active; 'I' for Inactive)
REMARK    1  A    between atoms: N_2  and  C_4 
REMARK    2  A    between atoms: N_2  and  C_10 
REMARK    3  A    between atoms: C_10  and  C_11 
REMARK    4  A    between atoms: C_12  and  N_13 
REMARK    5  A    between atoms: N_13  and  C_14 
REMARK    6  A    between atoms: C_14  and  C_15 
REMARK       I    between atoms: C_15  and  N_16 
REMARK    7  A    between atoms: N_16  and  N_17 
REMARK       I    between atoms: N_17  and  C_18 
REMARK    8  A    between atoms: C_18  and  C_19 
ROOT
HETATM    1  N   UNL     1      42.787 -18.173   2.400  1.00  0.00    -0.284 NA
HETATM    2  H   UNL     1      43.226 -17.585   3.123  1.00  0.00     0.128 HD
ENDROOT
BRANCH   1   3
HETATM    3  C   UNL     1      43.321 -19.475   2.522  1.00  0.00     0.016 A 
HETATM    4  C   UNL     1      44.215 -19.739   3.586  1.00  0.00    -0.011 A 
HETATM    5  C   UNL     1      44.836 -20.999   3.684  1.00  0.00     0.011 A 
HETATM    6  C   UNL     1      44.579 -21.992   2.744  1.00  0.00     0.001 A 
HETATM    7  C   UNL     1      43.714 -21.733   1.689  1.00  0.00     0.002 A 
HETATM    8  C   UNL     1      43.101 -20.483   1.571  1.00  0.00     0.024 A 
BRANCH   4   9
HETATM    9  C   UNL     1      44.555 -18.691   4.623  1.00  0.00     0.275 C 
BRANCH   9  10
HETATM   10  N   UNL     1      43.503 -18.477   5.704  1.00  0.00    -0.067 N 
HETATM   11  C   UNL     1      43.589 -19.568   6.747  1.00  0.00     0.270 C 
HETATM   12  H   UNL     1      42.620 -18.642   5.186  1.00  0.00     0.280 HD
BRANCH  10  13
HETATM   13  C   UNL     1      43.514 -17.074   6.320  1.00  0.00     0.188 C 
HETATM   14  C   UNL     1      43.434 -15.957   5.265  1.00  0.00     0.033 C 
HETATM   15  C   UNL     1      42.093 -15.917   4.538  1.00  0.00     0.002 C 
HETATM   16  C   UNL     1      40.927 -15.803   5.518  1.00  0.00     0.000 C 
HETATM   17  C   UNL     1      40.983 -16.868   6.611  1.00  0.00     0.002 C 
HETATM   18  C   UNL     1      42.344 -16.886   7.305  1.00  0.00     0.033 C 
ENDBRANCH  10  13
ENDBRANCH   9  10
ENDBRANCH   4   9
ENDBRANCH   1   3
BRANCH   1  19
HETATM   19  C   UNL     1      43.011 -17.466   1.110  1.00  0.00     0.197 C 
BRANCH  19  20
HETATM   20  C   UNL     1      41.668 -16.950   0.587  1.00  0.00     0.249 C 
HETATM   21  N   UNL     1      41.747 -16.190  -0.557  1.00  0.00    -0.266 N 
HETATM   22  H   UNL     1      42.611 -15.754  -0.889  1.00  0.00     0.190 HD
HETATM   23  O   UNL     1      40.598 -17.231   1.131  1.00  0.00    -0.270 OA
BRANCH  21  24
HETATM   24  N   UNL     1      40.568 -15.610  -1.049  1.00  0.00    -0.263 N 
HETATM   25  C   UNL     1      40.496 -15.398  -2.414  1.00  0.00     0.270 C 
HETATM   26  O   UNL     1      41.385 -15.778  -3.173  1.00  0.00    -0.266 OA
HETATM   27  H   UNL     1      40.010 -15.073  -0.386  1.00  0.00     0.190 HD
BRANCH  25  28
HETATM   28  C   UNL     1      39.309 -14.653  -2.912  1.00  0.00     0.033 A 
HETATM   29  C   UNL     1      38.328 -15.360  -3.619  1.00  0.00     0.017 A 
HETATM   30  C   UNL     1      37.198 -14.697  -4.101  1.00  0.00     0.001 A 
HETATM   31  C   UNL     1      37.037 -13.332  -3.870  1.00  0.00     0.000 A 
HETATM   32  C   UNL     1      38.002 -12.626  -3.153  1.00  0.00     0.001 A 
HETATM   33  C   UNL     1      39.136 -13.282  -2.669  1.00  0.00     0.017 A 
ENDBRANCH  25  28
ENDBRANCH  21  24
ENDBRANCH  19  20
ENDBRANCH   1  19
TORSDOF 8
ENDMDL
MODEL 7
REMARK VINA RESULT:      -8.0      1.898      2.943
REMARK  8 active torsions:
REMARK  status: ('A' for Active; 'I' for Inactive)
REMARK    1  A    between atoms: N_2  and  C_4 
REMARK    2  A    between atoms: N_2  and  C_10 
REMARK    3  A    between atoms: C_10  and  C_11 
REMARK    4  A    between atoms: C_12  and  N_13 
REMARK    5  A    between atoms: N_13  and  C_14 
REMARK    6  A    between atoms: C_14  and  C_15 
REMARK       I    between atoms: C_15  and  N_16 
REMARK    7  A    between atoms: N_16  and  N_17 
REMARK       I    between atoms: N_17  and  C_18 
REMARK    8  A    between atoms: C_18  and  C_19 
ROOT
HETATM    1  N   UNL     1      42.688 -15.664   5.131  1.00  0.00    -0.284 NA
HETATM    2  H   UNL     1      42.141 -15.514   5.991  1.00  0.00     0.128 HD
ENDROOT
BRANCH   1   3
HETATM    3  C   UNL     1      43.491 -16.809   5.325  1.00  0.00     0.016 A 
HETATM    4  C   UNL     1      43.306 -17.915   4.462  1.00  0.00    -0.011 A 
HETATM    5  C   UNL     1      44.025 -19.105   4.684  1.00  0.00     0.011 A 
HETATM    6  C   UNL     1      44.920 -19.207   5.745  1.00  0.00     0.001 A 
HETATM    7  C   UNL     1      45.093 -18.129   6.603  1.00  0.00     0.002 A 
HETATM    8  C   UNL     1      44.377 -16.946   6.404  1.00  0.00     0.024 A 
BRANCH   4   9
HETATM    9  C   UNL     1      42.328 -17.874   3.308  1.00  0.00     0.275 C 
BRANCH   9  10
HETATM   10  N   UNL     1      42.599 -16.803   2.260  1.00  0.00    -0.067 N 
HETATM   11  C   UNL     1      43.910 -17.074   1.557  1.00  0.00     0.270 C 
HETATM   12  H   UNL     1      42.755 -15.959   2.844  1.00  0.00     0.280 HD
BRANCH  10  13
HETATM   13  C   UNL     1      41.443 -16.577   1.281  1.00  0.00     0.188 C 
HETATM   14  C   UNL     1      40.099 -16.337   1.988  1.00  0.00     0.033 C 
HETATM   15  C   UNL     1      40.055 -15.019   2.758  1.00  0.00     0.002 C 
HETATM   16  C   UNL     1      40.400 -13.834   1.859  1.00  0.00     0.000 C 
HETATM   17  C   UNL     1      41.709 -14.041   1.102  1.00  0.00     0.002 C 
HETATM   18  C   UNL     1      41.719 -15.375   0.357  1.00  0.00     0.033 C 
ENDBRANCH  10  13
ENDBRANCH   9  10
ENDBRANCH   4   9
ENDBRANCH   1   3
BRANCH   1  19
HETATM   19  C   UNL     1      43.389 -14.378   4.866  1.00  0.00     0.197 C 
BRANCH  19  20
HETATM   20  C   UNL     1      43.011 -13.372   5.955  1.00  0.00     0.249 C 
HETATM   21  N   UNL     1      43.853 -13.355   7.043  1.00  0.00    -0.266 N 
HETATM   22  H   UNL     1      44.503 -14.112   7.269  1.00  0.00     0.190 HD
HETATM   23  O   UNL     1      42.046 -12.612   5.844  1.00  0.00    -0.270 OA
BRANCH  21  24
HETATM   24  N   UNL     1      43.524 -12.519   8.122  1.00  0.00    -0.263 N 
HETATM   25  C   UNL     1      44.466 -12.394   9.127  1.00  0.00     0.270 C 
HETATM   26  O   UNL     1      45.574 -12.917   9.040  1.00  0.00    -0.266 OA
HETATM   27  H   UNL     1      42.532 -12.349   8.283  1.00  0.00     0.190 HD
BRANCH  25  28
HETATM   28  C   UNL     1      44.056 -11.626  10.333  1.00  0.00     0.033 A 
HETATM   29  C   UNL     1      43.696 -12.336  11.484  1.00  0.00     0.017 A 
HETATM   30  C   UNL     1      43.306 -11.652  12.637  1.00  0.00     0.001 A 
HETATM   31  C   UNL     1      43.285 -10.258  12.648  1.00  0.00     0.000 A 
HETATM   32  C   UNL     1      43.658  -9.545  11.509  1.00  0.00     0.001 A 
HETATM   33  C   UNL     1      44.047 -10.223  10.353  1.00  0.00     0.017 A 
ENDBRANCH  25  28
ENDBRANCH  21  24
ENDBRANCH  19  20
ENDBRANCH   1  19
TORSDOF 8
ENDMDL
MODEL 8
REMARK VINA RESULT:      -8.0      4.616      8.330
REMARK  8 active torsions:
REMARK  status: ('A' for Active; 'I' for Inactive)
REMARK    1  A    between atoms: N_2  and  C_4 
REMARK    2  A    between atoms: N_2  and  C_10 
REMARK    3  A    between atoms: C_10  and  C_11 
REMARK    4  A    between atoms: C_12  and  N_13 
REMARK    5  A    between atoms: N_13  and  C_14 
REMARK    6  A    between atoms: C_14  and  C_15 
REMARK       I    between atoms: C_15  and  N_16 
REMARK    7  A    between atoms: N_16  and  N_17 
REMARK       I    between atoms: N_17  and  C_18 
REMARK    8  A    between atoms: C_18  and  C_19 
ROOT
HETATM    1  N   UNL     1      43.045 -17.157   2.447  1.00  0.00    -0.284 NA
HETATM    2  H   UNL     1      43.605 -16.380   2.825  1.00  0.00     0.128 HD
ENDROOT
BRANCH   1   3
HETATM    3  C   UNL     1      43.557 -18.359   2.984  1.00  0.00     0.016 A 
HETATM    4  C   UNL     1      43.951 -18.375   4.343  1.00  0.00    -0.011 A 
HETATM    5  C   UNL     1      44.550 -19.528   4.885  1.00  0.00     0.011 A 
HETATM    6  C   UNL     1      44.760 -20.656   4.099  1.00  0.00     0.001 A 
HETATM    7  C   UNL     1      44.388 -20.640   2.761  1.00  0.00     0.002 A 
HETATM    8  C   UNL     1      43.805 -19.498   2.205  1.00  0.00     0.024 A 
BRANCH   4   9
HETATM    9  C   UNL     1      43.775 -17.170   5.240  1.00  0.00     0.275 C 
BRANCH   9  10
HETATM   10  N   UNL     1      42.433 -16.458   5.122  1.00  0.00    -0.067 N 
HETATM   11  C   UNL     1      41.336 -17.296   5.739  1.00  0.00     0.270 C 
HETATM   12  H   UNL     1      42.266 -16.474   4.098  1.00  0.00     0.280 HD
BRANCH  10  13
HETATM   13  C   UNL     1      42.438 -15.019   5.647  1.00  0.00     0.188 C 
HETATM   14  C   UNL     1      43.658 -14.213   5.171  1.00  0.00     0.033 C 
HETATM   15  C   UNL     1      43.649 -13.946   3.668  1.00  0.00     0.002 C 
HETATM   16  C   UNL     1      42.358 -13.261   3.228  1.00  0.00     0.000 C 
HETATM   17  C   UNL     1      41.114 -14.002   3.712  1.00  0.00     0.002 C 
HETATM   18  C   UNL     1      41.166 -14.262   5.217  1.00  0.00     0.033 C 
ENDBRANCH  10  13
ENDBRANCH   9  10
ENDBRANCH   4   9
ENDBRANCH   1   3
BRANCH   1  19
HETATM   19  C   UNL     1      43.083 -17.003   0.967  1.00  0.00     0.197 C 
BRANCH  19  20
HETATM   20  C   UNL     1      41.710 -16.534   0.480  1.00  0.00     0.249 C 
HETATM   21  N   UNL     1      41.703 -15.975  -0.777  1.00  0.00    -0.266 N 
HETATM   22  H   UNL     1      42.543 -15.631  -1.249  1.00  0.00     0.190 HD
HETATM   23  O   UNL     1      40.687 -16.683   1.152  1.00  0.00    -0.270 OA
BRANCH  21  24
HETATM   24  N   UNL     1      40.497 -15.444  -1.258  1.00  0.00    -0.263 N 
HETATM   25  C   UNL     1      40.403 -15.238  -2.622  1.00  0.00     0.270 C 
HETATM   26  O   UNL     1      41.298 -15.585  -3.389  1.00  0.00    -0.266 OA
HETATM   27  H   UNL     1      39.926 -14.927  -0.590  1.00  0.00     0.190 HD
BRANCH  25  28
HETATM   28  C   UNL     1      39.182 -14.542  -3.109  1.00  0.00     0.033 A 
HETATM   29  C   UNL     1      38.149 -15.313  -3.655  1.00  0.00     0.017 A 
HETATM   30  C   UNL     1      36.985 -14.698  -4.121  1.00  0.00     0.001 A 
HETATM   31  C   UNL     1      36.846 -13.313  -4.035  1.00  0.00     0.000 A 
HETATM   32  C   UNL     1      37.864 -12.541  -3.478  1.00  0.00     0.001 A 
HETATM   33  C   UNL     1      39.030 -13.151  -3.011  1.00  0.00     0.017 A 
ENDBRANCH  25  28
ENDBRANCH  21  24
ENDBRANCH  19  20
ENDBRANCH   1  19
TORSDOF 8
ENDMDL
MODEL 9
REMARK VINA RESULT:      -7.7      2.632      8.971
REMARK  8 active torsions:
REMARK  status: ('A' for Active; 'I' for Inactive)
REMARK    1  A    between atoms: N_2  and  C_4 
REMARK    2  A    between atoms: N_2  and  C_10 
REMARK    3  A    between atoms: C_10  and  C_11 
REMARK    4  A    between atoms: C_12  and  N_13 
REMARK    5  A    between atoms: N_13  and  C_14 
REMARK    6  A    between atoms: C_14  and  C_15 
REMARK       I    between atoms: C_15  and  N_16 
REMARK    7  A    between atoms: N_16  and  N_17 
REMARK       I    between atoms: N_17  and  C_18 
REMARK    8  A    between atoms: C_18  and  C_19 
ROOT
HETATM    1  N   UNL     1      44.058 -12.697   7.717  1.00  0.00    -0.284 NA
HETATM    2  H   UNL     1      44.521 -12.148   6.978  1.00  0.00     0.128 HD
ENDROOT
BRANCH   1   3
HETATM    3  C   UNL     1      44.131 -11.955   8.916  1.00  0.00     0.016 A 
HETATM    4  C   UNL     1      43.197 -10.912   9.120  1.00  0.00    -0.011 A 
HETATM    5  C   UNL     1      43.298 -10.094  10.262  1.00  0.00     0.011 A 
HETATM    6  C   UNL     1      44.309 -10.300  11.195  1.00  0.00     0.001 A 
HETATM    7  C   UNL     1      45.237 -11.312  10.992  1.00  0.00     0.002 A 
HETATM    8  C   UNL     1      45.158 -12.124   9.857  1.00  0.00     0.024 A 
BRANCH   4   9
HETATM    9  C   UNL     1      42.092 -10.623   8.127  1.00  0.00     0.275 C 
BRANCH   9  10
HETATM   10  N   UNL     1      41.161  -9.477   8.501  1.00  0.00    -0.067 N 
HETATM   11  C   UNL     1      41.290  -8.347   7.506  1.00  0.00     0.270 C 
HETATM   12  H   UNL     1      41.582  -9.132   9.385  1.00  0.00     0.280 HD
BRANCH  10  13
HETATM   13  C   UNL     1      39.706  -9.899   8.725  1.00  0.00     0.188 C 
HETATM   14  C   UNL     1      39.568 -11.064   9.721  1.00  0.00     0.033 C 
HETATM   15  C   UNL     1      39.954 -10.680  11.146  1.00  0.00     0.002 C 
HETATM   16  C   UNL     1      39.163  -9.470  11.635  1.00  0.00     0.000 C 
HETATM   17  C   UNL     1      39.236  -8.297  10.660  1.00  0.00     0.002 C 
HETATM   18  C   UNL     1      38.855  -8.723   9.243  1.00  0.00     0.033 C 
ENDBRANCH  10  13
ENDBRANCH   9  10
ENDBRANCH   4   9
ENDBRANCH   1   3
BRANCH   1  19
HETATM   19  C   UNL     1      44.716 -14.032   7.703  1.00  0.00     0.197 C 
BRANCH  19  20
HETATM   20  C   UNL     1      44.225 -14.815   6.483  1.00  0.00     0.249 C 
HETATM   21  N   UNL     1      44.188 -16.181   6.649  1.00  0.00    -0.266 N 
HETATM   22  H   UNL     1      44.695 -16.675   7.387  1.00  0.00     0.190 HD
HETATM   23  O   UNL     1      43.856 -14.258   5.447  1.00  0.00    -0.270 OA
BRANCH  21  24
HETATM   24  N   UNL     1      43.830 -16.972   5.548  1.00  0.00    -0.263 N 
HETATM   25  C   UNL     1      44.391 -18.234   5.474  1.00  0.00     0.270 C 
HETATM   26  O   UNL     1      45.100 -18.678   6.375  1.00  0.00    -0.266 OA
HETATM   27  H   UNL     1      43.489 -16.481   4.723  1.00  0.00     0.190 HD
BRANCH  25  28
HETATM   28  C   UNL     1      44.123 -19.012   4.235  1.00  0.00     0.033 A 
HETATM   29  C   UNL     1      43.265 -18.461   3.276  1.00  0.00     0.017 A 
HETATM   30  C   UNL     1      42.989 -19.159   2.098  1.00  0.00     0.001 A 
HETATM   31  C   UNL     1      43.577 -20.402   1.870  1.00  0.00     0.000 A 
HETATM   32  C   UNL     1      44.446 -20.948   2.814  1.00  0.00     0.001 A 
HETATM   33  C   UNL     1      44.724 -20.257   3.994  1.00  0.00     0.017 A 
ENDBRANCH  25  28
ENDBRANCH  21  24
ENDBRANCH  19  20
ENDBRANCH   1  19
TORSDOF 8
ENDMDL
MODEL 10
REMARK VINA RESULT:      -7.7      3.087      5.718
REMARK  8 active torsions:
REMARK  status: ('A' for Active; 'I' for Inactive)
REMARK    1  A    between atoms: N_2  and  C_4 
REMARK    2  A    between atoms: N_2  and  C_10 
REMARK    3  A    between atoms: C_10  and  C_11 
REMARK    4  A    between atoms: C_12  and  N_13 
REMARK    5  A    between atoms: N_13  and  C_14 
REMARK    6  A    between atoms: C_14  and  C_15 
REMARK       I    between atoms: C_15  and  N_16 
REMARK    7  A    between atoms: N_16  and  N_17 
REMARK       I    between atoms: N_17  and  C_18 
REMARK    8  A    between atoms: C_18  and  C_19 
ROOT
HETATM    1  N   UNL     1      40.566 -13.096   6.232  1.00  0.00    -0.284 NA
HETATM    2  H   UNL     1      41.248 -13.036   7.001  1.00  0.00     0.128 HD
ENDROOT
BRANCH   1   3
HETATM    3  C   UNL     1      41.284 -13.311   5.034  1.00  0.00     0.016 A 
HETATM    4  C   UNL     1      42.155 -14.424   4.962  1.00  0.00    -0.011 A 
HETATM    5  C   UNL     1      42.954 -14.615   3.819  1.00  0.00     0.011 A 
HETATM    6  C   UNL     1      42.896 -13.721   2.754  1.00  0.00     0.001 A 
HETATM    7  C   UNL     1      42.053 -12.620   2.827  1.00  0.00     0.002 A 
HETATM    8  C   UNL     1      41.265 -12.409   3.961  1.00  0.00     0.024 A 
BRANCH   4   9
HETATM    9  C   UNL     1      42.282 -15.415   6.099  1.00  0.00     0.275 C 
BRANCH   9  10
HETATM   10  N   UNL     1      43.270 -16.550   5.868  1.00  0.00    -0.067 N 
HETATM   11  C   UNL     1      44.403 -16.475   6.866  1.00  0.00     0.270 C 
HETATM   12  H   UNL     1      43.679 -16.301   4.948  1.00  0.00     0.280 HD
BRANCH  10  13
HETATM   13  C   UNL     1      42.627 -17.940   5.814  1.00  0.00     0.188 C 
HETATM   14  C   UNL     1      41.662 -18.107   4.628  1.00  0.00     0.033 C 
HETATM   15  C   UNL     1      42.370 -18.090   3.275  1.00  0.00     0.002 C 
HETATM   16  C   UNL     1      43.477 -19.140   3.209  1.00  0.00     0.000 C 
HETATM   17  C   UNL     1      44.440 -19.041   4.389  1.00  0.00     0.002 C 
HETATM   18  C   UNL     1      43.694 -19.048   5.722  1.00  0.00     0.033 C 
ENDBRANCH  10  13
ENDBRANCH   9  10
ENDBRANCH   4   9
ENDBRANCH   1   3
BRANCH   1  19
HETATM   19  C   UNL     1      39.745 -11.858   6.319  1.00  0.00     0.197 C 
BRANCH  19  20
HETATM   20  C   UNL     1      39.737 -11.368   7.769  1.00  0.00     0.249 C 
HETATM   21  N   UNL     1      40.964 -11.387   8.392  1.00  0.00    -0.266 N 
HETATM   22  H   UNL     1      41.763 -11.930   8.054  1.00  0.00     0.190 HD
HETATM   23  O   UNL     1      38.714 -10.954   8.319  1.00  0.00    -0.270 OA
BRANCH  21  24
HETATM   24  N   UNL     1      41.023 -11.033   9.748  1.00  0.00    -0.263 N 
HETATM   25  C   UNL     1      42.235 -10.562  10.221  1.00  0.00     0.270 C 
HETATM   26  O   UNL     1      43.191 -10.377   9.471  1.00  0.00    -0.266 OA
HETATM   27  H   UNL     1      40.329 -11.457  10.362  1.00  0.00     0.190 HD
BRANCH  25  28
HETATM   28  C   UNL     1      42.333 -10.327  11.686  1.00  0.00     0.033 A 
HETATM   29  C   UNL     1      43.443  -9.628  12.175  1.00  0.00     0.017 A 
HETATM   30  C   UNL     1      43.571  -9.385  13.544  1.00  0.00     0.001 A 
HETATM   31  C   UNL     1      42.588  -9.830  14.427  1.00  0.00     0.000 A 
HETATM   32  C   UNL     1      41.472 -10.512  13.944  1.00  0.00     0.001 A 
HETATM   33  C   UNL     1      41.339 -10.760  12.577  1.00  0.00     0.017 A 
ENDBRANCH  25  28
ENDBRANCH  21  24
ENDBRANCH  19  20
ENDBRANCH   1  19
TORSDOF 8
ENDMDL
