MODEL 1
REMARK VINA RESULT:      -8.5      0.000      0.000
REMARK  10 active torsions:
REMARK  status: ('A' for Active; 'I' for Inactive)
REMARK    1  A    between atoms: N_2  and  C_4 
REMARK    2  A    between atoms: C_4  and  C_5 
REMARK    3  A    between atoms: N_6  and  C_7 
REMARK    4  A    between atoms: C_11  and  N_12 
REMARK    5  A    between atoms: C_15  and  C_16 
REMARK       I    between atoms: C_16  and  N_17 
REMARK    6  A    between atoms: N_17  and  N_18 
REMARK    7  A    between atoms: C_19  and  C_20 
REMARK    8  A    between atoms: C_21  and  O_22 
REMARK    9  A    between atoms: O_22  and  C_23 
REMARK   10  A    between atoms: C_23  and  C_24 
ROOT
HETATM    1  C   UNL     1      41.420 -16.798   0.922  1.00  0.00     0.293 C 
HETATM    2  N   UNL     1      42.684 -17.351   1.032  1.00  0.00    -0.242 N 
HETATM    3  O   UNL     1      40.454 -17.095   1.622  1.00  0.00    -0.264 OA
HETATM    4  H   UNL     1      43.467 -16.992   0.491  1.00  0.00     0.192 HD
ENDROOT
BRANCH   1   5
HETATM    5  C   UNL     1      41.302 -15.737  -0.066  1.00  0.00     0.170 A 
HETATM    6  C   UNL     1      41.513 -14.383   0.147  1.00  0.00     0.096 A 
HETATM    7  N   UNL     1      41.343 -13.805  -1.108  1.00  0.00    -0.215 N 
HETATM    8  N   UNL     1      40.965 -14.772  -1.985  1.00  0.00     0.012 NA
HETATM    9  N   UNL     1      40.973 -15.945  -1.372  1.00  0.00    -0.152 NA
BRANCH   6  10
HETATM   10  C   UNL     1      41.775 -13.643   1.406  1.00  0.00     0.295 C 
BRANCH  10  11
HETATM   11  N   UNL     1      40.626 -12.789   1.890  1.00  0.00    -0.073 N 
HETATM   12  C   UNL     1      40.990 -11.876   3.030  1.00  0.00     0.269 C 
HETATM   13  H   UNL     1      40.325 -12.212   1.093  1.00  0.00     0.279 HD
HETATM   14  C   UNL     1      39.438 -13.640   2.253  1.00  0.00     0.269 C 
ENDBRANCH  10  11
ENDBRANCH   6  10
BRANCH   7  15
HETATM   15  C   UNL     1      41.567 -12.465  -1.502  1.00  0.00     0.225 A 
HETATM   16  N   UNL     1      41.133 -11.463  -0.732  1.00  0.00    -0.081 NA
HETATM   17  O   UNL     1      41.543 -10.317  -1.423  1.00  0.00    -0.103 OA
HETATM   18  N   UNL     1      42.240 -10.647  -2.575  1.00  0.00    -0.083 NA
HETATM   19  C   UNL     1      42.258 -11.979  -2.625  1.00  0.00     0.201 A 
BRANCH  19  20
HETATM   20  N   UNL     1      42.837 -12.698  -3.598  1.00  0.00    -0.379 N 
HETATM   21  H   UNL     1      43.432 -13.490  -3.368  1.00  0.00     0.158 HD
HETATM   22  H   UNL     1      42.607 -12.608  -4.586  1.00  0.00     0.158 HD
ENDBRANCH  19  20
ENDBRANCH   7  15
ENDBRANCH   1   5
BRANCH   2  23
HETATM   23  N   UNL     1      42.876 -18.295   1.985  1.00  0.00    -0.183 NA
HETATM   24  C   UNL     1      43.981 -18.961   1.969  1.00  0.00     0.153 C 
BRANCH  24  25
HETATM   25  C   UNL     1      44.246 -19.987   2.992  1.00  0.00     0.016 A 
HETATM   26  C   UNL     1      44.487 -19.737   4.356  1.00  0.00     0.080 A 
HETATM   27  C   UNL     1      44.756 -20.826   5.197  1.00  0.00     0.037 A 
HETATM   28  C   UNL     1      44.764 -22.135   4.708  1.00  0.00     0.003 A 
HETATM   29  C   UNL     1      44.528 -22.373   3.359  1.00  0.00     0.001 A 
HETATM   30  C   UNL     1      44.277 -21.303   2.500  1.00  0.00     0.016 A 
BRANCH  26  31
HETATM   31  O   UNL     1      44.656 -18.526   4.974  1.00  0.00    -0.346 OA
BRANCH  31  32
HETATM   32  C   UNL     1      43.808 -18.254   6.089  1.00  0.00     0.219 C 
BRANCH  32  33
HETATM   33  C   UNL     1      42.953 -17.048   5.796  1.00  0.00     0.026 A 
HETATM   34  C   UNL     1      43.328 -15.742   6.132  1.00  0.00     0.045 A 
HETATM   35 CL   UNL     1      44.826 -15.393   6.918  1.00  0.00    -0.084 Cl
HETATM   36  C   UNL     1      42.479 -14.662   5.855  1.00  0.00     0.024 A 
HETATM   37  C   UNL     1      41.254 -14.869   5.220  1.00  0.00     0.005 A 
HETATM   38  C   UNL     1      40.875 -16.159   4.866  1.00  0.00     0.043 A 
HETATM   39  C   UNL     1      41.720 -17.229   5.156  1.00  0.00     0.126 A 
HETATM   40  F   UNL     1      41.304 -18.464   4.839  1.00  0.00    -0.205 F 
ENDBRANCH  32  33
ENDBRANCH  31  32
ENDBRANCH  26  31
ENDBRANCH  24  25
ENDBRANCH   2  23
TORSDOF 10
ENDMDL
MODEL 2
REMARK VINA RESULT:      -8.4      1.835      2.807
REMARK  10 active torsions:
REMARK  status: ('A' for Active; 'I' for Inactive)
REMARK    1  A    between atoms: N_2  and  C_4 
REMARK    2  A    between atoms: C_4  and  C_5 
REMARK    3  A    between atoms: N_6  and  C_7 
REMARK    4  A    between atoms: C_11  and  N_12 
REMARK    5  A    between atoms: C_15  and  C_16 
REMARK       I    between atoms: C_16  and  N_17 
REMARK    6  A    between atoms: N_17  and  N_18 
REMARK    7  A    between atoms: C_19  and  C_20 
REMARK    8  A    between atoms: C_21  and  O_22 
REMARK    9  A    between atoms: O_22  and  C_23 
REMARK   10  A    between atoms: C_23  and  C_24 
ROOT
HETATM    1  C   UNL     1      41.941 -15.890   1.370  1.00  0.00     0.293 C 
HETATM    2  N   UNL     1      43.128 -16.529   1.056  1.00  0.00    -0.242 N 
HETATM    3  O   UNL     1      40.964 -16.429   1.886  1.00  0.00    -0.264 OA
HETATM    4  H   UNL     1      43.936 -16.007   0.722  1.00  0.00     0.192 HD
ENDROOT
BRANCH   1   5
HETATM    5  C   UNL     1      41.930 -14.459   1.114  1.00  0.00     0.170 A 
HETATM    6  C   UNL     1      41.249 -13.808   0.096  1.00  0.00     0.096 A 
HETATM    7  N   UNL     1      41.501 -12.457   0.321  1.00  0.00    -0.215 N 
HETATM    8  N   UNL     1      42.361 -12.344   1.368  1.00  0.00     0.012 NA
HETATM    9  N   UNL     1      42.595 -13.544   1.874  1.00  0.00    -0.152 NA
BRANCH   6  10
HETATM   10  C   UNL     1      40.484 -14.360  -1.049  1.00  0.00     0.295 C 
BRANCH  10  11
HETATM   11  N   UNL     1      41.331 -14.839  -2.205  1.00  0.00    -0.073 N 
HETATM   12  C   UNL     1      41.820 -13.729  -3.096  1.00  0.00     0.269 C 
HETATM   13  H   UNL     1      42.149 -15.317  -1.800  1.00  0.00     0.279 HD
HETATM   14  C   UNL     1      40.604 -15.882  -3.011  1.00  0.00     0.269 C 
ENDBRANCH  10  11
ENDBRANCH   6  10
BRANCH   7  15
HETATM   15  C   UNL     1      40.951 -11.333  -0.338  1.00  0.00     0.225 A 
HETATM   16  N   UNL     1      39.657 -11.038  -0.184  1.00  0.00    -0.081 NA
HETATM   17  O   UNL     1      39.490  -9.882  -0.955  1.00  0.00    -0.103 OA
HETATM   18  N   UNL     1      40.687  -9.486  -1.532  1.00  0.00    -0.083 NA
HETATM   19  C   UNL     1      41.594 -10.383  -1.149  1.00  0.00     0.201 A 
BRANCH  19  20
HETATM   20  N   UNL     1      42.888 -10.357  -1.501  1.00  0.00    -0.379 N 
HETATM   21  H   UNL     1      43.352 -11.205  -1.818  1.00  0.00     0.158 HD
HETATM   22  H   UNL     1      43.428  -9.503  -1.626  1.00  0.00     0.158 HD
ENDBRANCH  19  20
ENDBRANCH   7  15
ENDBRANCH   1   5
BRANCH   2  23
HETATM   23  N   UNL     1      43.226 -17.850   1.338  1.00  0.00    -0.183 NA
HETATM   24  C   UNL     1      44.039 -18.215   2.272  1.00  0.00     0.153 C 
BRANCH  24  25
HETATM   25  C   UNL     1      44.170 -19.638   2.629  1.00  0.00     0.016 A 
HETATM   26  C   UNL     1      44.494 -20.133   3.906  1.00  0.00     0.080 A 
HETATM   27  C   UNL     1      44.614 -21.520   4.074  1.00  0.00     0.037 A 
HETATM   28  C   UNL     1      44.394 -22.401   3.011  1.00  0.00     0.003 A 
HETATM   29  C   UNL     1      44.077 -21.902   1.752  1.00  0.00     0.001 A 
HETATM   30  C   UNL     1      43.973 -20.525   1.558  1.00  0.00     0.016 A 
BRANCH  26  31
HETATM   31  O   UNL     1      44.876 -19.423   5.014  1.00  0.00    -0.346 OA
BRANCH  31  32
HETATM   32  C   UNL     1      43.866 -19.165   5.987  1.00  0.00     0.219 C 
BRANCH  32  33
HETATM   33  C   UNL     1      43.578 -17.686   6.041  1.00  0.00     0.026 A 
HETATM   34  C   UNL     1      42.406 -17.113   5.533  1.00  0.00     0.045 A 
HETATM   35 CL   UNL     1      41.168 -18.066   4.794  1.00  0.00    -0.084 Cl
HETATM   36  C   UNL     1      42.204 -15.728   5.592  1.00  0.00     0.024 A 
HETATM   37  C   UNL     1      43.162 -14.897   6.176  1.00  0.00     0.005 A 
HETATM   38  C   UNL     1      44.323 -15.453   6.699  1.00  0.00     0.043 A 
HETATM   39  C   UNL     1      44.521 -16.831   6.626  1.00  0.00     0.126 A 
HETATM   40  F   UNL     1      45.673 -17.328   7.101  1.00  0.00    -0.205 F 
ENDBRANCH  32  33
ENDBRANCH  31  32
ENDBRANCH  26  31
ENDBRANCH  24  25
ENDBRANCH   2  23
TORSDOF 10
ENDMDL
MODEL 3
REMARK VINA RESULT:      -8.2      2.715      4.832
REMARK  10 active torsions:
REMARK  status: ('A' for Active; 'I' for Inactive)
REMARK    1  A    between atoms: N_2  and  C_4 
REMARK    2  A    between atoms: C_4  and  C_5 
REMARK    3  A    between atoms: N_6  and  C_7 
REMARK    4  A    between atoms: C_11  and  N_12 
REMARK    5  A    between atoms: C_15  and  C_16 
REMARK       I    between atoms: C_16  and  N_17 
REMARK    6  A    between atoms: N_17  and  N_18 
REMARK    7  A    between atoms: C_19  and  C_20 
REMARK    8  A    between atoms: C_21  and  O_22 
REMARK    9  A    between atoms: O_22  and  C_23 
REMARK   10  A    between atoms: C_23  and  C_24 
ROOT
HETATM    1  C   UNL     1      41.934 -13.959   0.667  1.00  0.00     0.293 C 
HETATM    2  N   UNL     1      42.113 -15.134   1.376  1.00  0.00    -0.242 N 
HETATM    3  O   UNL     1      42.363 -12.857   1.005  1.00  0.00    -0.264 OA
HETATM    4  H   UNL     1      41.821 -16.030   0.994  1.00  0.00     0.192 HD
ENDROOT
BRANCH   1   5
HETATM    5  C   UNL     1      41.241 -14.109  -0.602  1.00  0.00     0.170 A 
HETATM    6  C   UNL     1      39.867 -14.130  -0.795  1.00  0.00     0.096 A 
HETATM    7  N   UNL     1      39.714 -14.226  -2.175  1.00  0.00    -0.215 N 
HETATM    8  N   UNL     1      40.944 -14.343  -2.742  1.00  0.00     0.012 NA
HETATM    9  N   UNL     1      41.871 -14.237  -1.804  1.00  0.00    -0.152 NA
BRANCH   6  10
HETATM   10  C   UNL     1      38.763 -14.142   0.196  1.00  0.00     0.295 C 
BRANCH  10  11
HETATM   11  N   UNL     1      38.378 -12.783   0.732  1.00  0.00    -0.073 N 
HETATM   12  C   UNL     1      38.766 -12.568   2.170  1.00  0.00     0.269 C 
HETATM   13  H   UNL     1      38.864 -12.084   0.154  1.00  0.00     0.279 HD
HETATM   14  C   UNL     1      36.907 -12.524   0.537  1.00  0.00     0.269 C 
ENDBRANCH  10  11
ENDBRANCH   6  10
BRANCH   7  15
HETATM   15  C   UNL     1      38.526 -14.157  -2.940  1.00  0.00     0.225 A 
HETATM   16  N   UNL     1      37.847 -13.008  -3.014  1.00  0.00    -0.081 NA
HETATM   17  O   UNL     1      36.768 -13.318  -3.850  1.00  0.00    -0.103 OA
HETATM   18  N   UNL     1      36.833 -14.633  -4.287  1.00  0.00    -0.083 NA
HETATM   19  C   UNL     1      37.923 -15.154  -3.725  1.00  0.00     0.201 A 
BRANCH  19  20
HETATM   20  N   UNL     1      38.339 -16.417  -3.896  1.00  0.00    -0.379 N 
HETATM   21  H   UNL     1      37.699 -17.128  -4.243  1.00  0.00     0.158 HD
HETATM   22  H   UNL     1      39.314 -16.708  -3.847  1.00  0.00     0.158 HD
ENDBRANCH  19  20
ENDBRANCH   7  15
ENDBRANCH   1   5
BRANCH   2  23
HETATM   23  N   UNL     1      42.816 -15.070   2.533  1.00  0.00    -0.183 NA
HETATM   24  C   UNL     1      42.385 -15.745   3.545  1.00  0.00     0.153 C 
BRANCH  24  25
HETATM   25  C   UNL     1      43.120 -15.723   4.821  1.00  0.00     0.016 A 
HETATM   26  C   UNL     1      43.648 -16.848   5.479  1.00  0.00     0.080 A 
HETATM   27  C   UNL     1      44.296 -16.660   6.709  1.00  0.00     0.037 A 
HETATM   28  C   UNL     1      44.440 -15.387   7.265  1.00  0.00     0.003 A 
HETATM   29  C   UNL     1      43.912 -14.280   6.609  1.00  0.00     0.001 A 
HETATM   30  C   UNL     1      43.246 -14.446   5.395  1.00  0.00     0.016 A 
BRANCH  26  31
HETATM   31  O   UNL     1      43.481 -18.169   5.157  1.00  0.00    -0.346 OA
BRANCH  31  32
HETATM   32  C   UNL     1      44.667 -18.948   5.019  1.00  0.00     0.219 C 
BRANCH  32  33
HETATM   33  C   UNL     1      44.474 -19.983   3.940  1.00  0.00     0.026 A 
HETATM   34  C   UNL     1      44.555 -21.361   4.175  1.00  0.00     0.045 A 
HETATM   35 CL   UNL     1      44.883 -22.004   5.744  1.00  0.00    -0.084 Cl
HETATM   36  C   UNL     1      44.389 -22.275   3.125  1.00  0.00     0.024 A 
HETATM   37  C   UNL     1      44.120 -21.827   1.831  1.00  0.00     0.005 A 
HETATM   38  C   UNL     1      44.021 -20.462   1.586  1.00  0.00     0.043 A 
HETATM   39  C   UNL     1      44.200 -19.559   2.633  1.00  0.00     0.126 A 
HETATM   40  F   UNL     1      44.140 -18.249   2.352  1.00  0.00    -0.205 F 
ENDBRANCH  32  33
ENDBRANCH  31  32
ENDBRANCH  26  31
ENDBRANCH  24  25
ENDBRANCH   2  23
TORSDOF 10
ENDMDL
MODEL 4
REMARK VINA RESULT:      -8.1      5.590      8.675
REMARK  10 active torsions:
REMARK  status: ('A' for Active; 'I' for Inactive)
REMARK    1  A    between atoms: N_2  and  C_4 
REMARK    2  A    between atoms: C_4  and  C_5 
REMARK    3  A    between atoms: N_6  and  C_7 
REMARK    4  A    between atoms: C_11  and  N_12 
REMARK    5  A    between atoms: C_15  and  C_16 
REMARK       I    between atoms: C_16  and  N_17 
REMARK    6  A    between atoms: N_17  and  N_18 
REMARK    7  A    between atoms: C_19  and  C_20 
REMARK    8  A    between atoms: C_21  and  O_22 
REMARK    9  A    between atoms: O_22  and  C_23 
REMARK   10  A    between atoms: C_23  and  C_24 
ROOT
HETATM    1  C   UNL     1      44.485 -13.504   7.376  1.00  0.00     0.293 C 
HETATM    2  N   UNL     1      43.342 -14.143   6.929  1.00  0.00    -0.242 N 
HETATM    3  O   UNL     1      45.547 -13.439   6.760  1.00  0.00    -0.264 OA
HETATM    4  H   UNL     1      42.465 -14.075   7.440  1.00  0.00     0.192 HD
ENDROOT
BRANCH   1   5
HETATM    5  C   UNL     1      44.341 -12.811   8.646  1.00  0.00     0.170 A 
HETATM    6  C   UNL     1      43.501 -11.738   8.911  1.00  0.00     0.096 A 
HETATM    7  N   UNL     1      43.679 -11.487  10.268  1.00  0.00    -0.215 N 
HETATM    8  N   UNL     1      44.644 -12.320  10.742  1.00  0.00     0.012 NA
HETATM    9  N   UNL     1      45.021 -13.145   9.779  1.00  0.00    -0.152 NA
BRANCH   6  10
HETATM   10  C   UNL     1      42.651 -10.941   7.993  1.00  0.00     0.295 C 
BRANCH  10  11
HETATM   11  N   UNL     1      41.217 -11.406   7.891  1.00  0.00    -0.073 N 
HETATM   12  C   UNL     1      40.814 -11.822   6.502  1.00  0.00     0.269 C 
HETATM   13  H   UNL     1      41.121 -12.219   8.516  1.00  0.00     0.279 HD
HETATM   14  C   UNL     1      40.272 -10.363   8.426  1.00  0.00     0.269 C 
ENDBRANCH  10  11
ENDBRANCH   6  10
BRANCH   7  15
HETATM   15  C   UNL     1      42.976 -10.584  11.101  1.00  0.00     0.225 A 
HETATM   16  N   UNL     1      43.500  -9.386  11.375  1.00  0.00    -0.081 NA
HETATM   17  O   UNL     1      42.534  -8.785  12.191  1.00  0.00    -0.103 OA
HETATM   18  N   UNL     1      41.439  -9.617  12.368  1.00  0.00    -0.083 NA
HETATM   19  C   UNL     1      41.710 -10.731  11.690  1.00  0.00     0.201 A 
BRANCH  19  20
HETATM   20  N   UNL     1      40.895 -11.794  11.613  1.00  0.00    -0.379 N 
HETATM   21  H   UNL     1      41.099 -12.553  10.968  1.00  0.00     0.158 HD
HETATM   22  H   UNL     1      40.143 -11.984  12.273  1.00  0.00     0.158 HD
ENDBRANCH  19  20
ENDBRANCH   7  15
ENDBRANCH   1   5
BRANCH   2  23
HETATM   23  N   UNL     1      43.393 -14.746   5.717  1.00  0.00    -0.183 NA
HETATM   24  C   UNL     1      42.290 -14.894   5.064  1.00  0.00     0.153 C 
BRANCH  24  25
HETATM   25  C   UNL     1      42.292 -15.529   3.735  1.00  0.00     0.016 A 
HETATM   26  C   UNL     1      42.443 -16.905   3.487  1.00  0.00     0.080 A 
HETATM   27  C   UNL     1      42.456 -17.348   2.156  1.00  0.00     0.037 A 
HETATM   28  C   UNL     1      42.298 -16.454   1.094  1.00  0.00     0.003 A 
HETATM   29  C   UNL     1      42.152 -15.094   1.348  1.00  0.00     0.001 A 
HETATM   30  C   UNL     1      42.156 -14.630   2.663  1.00  0.00     0.016 A 
BRANCH  26  31
HETATM   31  O   UNL     1      42.746 -17.895   4.385  1.00  0.00    -0.346 OA
BRANCH  31  32
HETATM   32  C   UNL     1      44.128 -18.208   4.549  1.00  0.00     0.219 C 
BRANCH  32  33
HETATM   33  C   UNL     1      44.302 -19.701   4.661  1.00  0.00     0.026 A 
HETATM   34  C   UNL     1      44.197 -20.398   5.871  1.00  0.00     0.045 A 
HETATM   35 CL   UNL     1      43.850 -19.596   7.361  1.00  0.00    -0.084 Cl
HETATM   36  C   UNL     1      44.392 -21.785   5.916  1.00  0.00     0.024 A 
HETATM   37  C   UNL     1      44.675 -22.498   4.750  1.00  0.00     0.005 A 
HETATM   38  C   UNL     1      44.766 -21.822   3.539  1.00  0.00     0.043 A 
HETATM   39  C   UNL     1      44.583 -20.441   3.505  1.00  0.00     0.126 A 
HETATM   40  F   UNL     1      44.721 -19.816   2.326  1.00  0.00    -0.205 F 
ENDBRANCH  32  33
ENDBRANCH  31  32
ENDBRANCH  26  31
ENDBRANCH  24  25
ENDBRANCH   2  23
TORSDOF 10
ENDMDL
MODEL 5
REMARK VINA RESULT:      -8.0      5.468      8.656
REMARK  10 active torsions:
REMARK  status: ('A' for Active; 'I' for Inactive)
REMARK    1  A    between atoms: N_2  and  C_4 
REMARK    2  A    between atoms: C_4  and  C_5 
REMARK    3  A    between atoms: N_6  and  C_7 
REMARK    4  A    between atoms: C_11  and  N_12 
REMARK    5  A    between atoms: C_15  and  C_16 
REMARK       I    between atoms: C_16  and  N_17 
REMARK    6  A    between atoms: N_17  and  N_18 
REMARK    7  A    between atoms: C_19  and  C_20 
REMARK    8  A    between atoms: C_21  and  O_22 
REMARK    9  A    between atoms: O_22  and  C_23 
REMARK   10  A    between atoms: C_23  and  C_24 
ROOT
HETATM    1  C   UNL     1      40.756 -12.012   6.093  1.00  0.00     0.293 C 
HETATM    2  N   UNL     1      40.882 -13.384   5.959  1.00  0.00    -0.242 N 
HETATM    3  O   UNL     1      40.904 -11.196   5.185  1.00  0.00    -0.264 OA
HETATM    4  H   UNL     1      40.649 -14.012   6.725  1.00  0.00     0.192 HD
ENDROOT
BRANCH   1   5
HETATM    5  C   UNL     1      40.345 -11.562   7.413  1.00  0.00     0.170 A 
HETATM    6  C   UNL     1      41.160 -10.996   8.383  1.00  0.00     0.096 A 
HETATM    7  N   UNL     1      40.289 -10.680   9.423  1.00  0.00    -0.215 N 
HETATM    8  N   UNL     1      39.046 -11.125   9.100  1.00  0.00     0.012 NA
HETATM    9  N   UNL     1      39.064 -11.625   7.875  1.00  0.00    -0.152 NA
BRANCH   6  10
HETATM   10  C   UNL     1      42.632 -10.818   8.410  1.00  0.00     0.295 C 
BRANCH  10  11
HETATM   11  N   UNL     1      43.372 -11.798   9.290  1.00  0.00    -0.073 N 
HETATM   12  C   UNL     1      43.901 -11.188  10.561  1.00  0.00     0.269 C 
HETATM   13  H   UNL     1      42.705 -12.542   9.538  1.00  0.00     0.279 HD
HETATM   14  C   UNL     1      44.480 -12.476   8.529  1.00  0.00     0.269 C 
ENDBRANCH  10  11
ENDBRANCH   6  10
BRANCH   7  15
HETATM   15  C   UNL     1      40.558  -9.965  10.614  1.00  0.00     0.225 A 
HETATM   16  N   UNL     1      41.013  -8.711  10.550  1.00  0.00    -0.081 NA
HETATM   17  O   UNL     1      41.140  -8.339  11.894  1.00  0.00    -0.103 OA
HETATM   18  N   UNL     1      40.733  -9.361  12.738  1.00  0.00    -0.083 NA
HETATM   19  C   UNL     1      40.369 -10.369  11.946  1.00  0.00     0.201 A 
BRANCH  19  20
HETATM   20  N   UNL     1      39.914 -11.554  12.381  1.00  0.00    -0.379 N 
HETATM   21  H   UNL     1      40.512 -12.376  12.356  1.00  0.00     0.158 HD
HETATM   22  H   UNL     1      39.040 -11.677  12.889  1.00  0.00     0.158 HD
ENDBRANCH  19  20
ENDBRANCH   7  15
ENDBRANCH   1   5
BRANCH   2  23
HETATM   23  N   UNL     1      41.193 -13.870   4.733  1.00  0.00    -0.183 NA
HETATM   24  C   UNL     1      40.661 -14.988   4.369  1.00  0.00     0.153 C 
BRANCH  24  25
HETATM   25  C   UNL     1      40.953 -15.552   3.040  1.00  0.00     0.016 A 
HETATM   26  C   UNL     1      41.646 -16.752   2.796  1.00  0.00     0.080 A 
HETATM   27  C   UNL     1      41.872 -17.135   1.466  1.00  0.00     0.037 A 
HETATM   28  C   UNL     1      41.402 -16.363   0.400  1.00  0.00     0.003 A 
HETATM   29  C   UNL     1      40.721 -15.177   0.650  1.00  0.00     0.001 A 
HETATM   30  C   UNL     1      40.503 -14.767   1.965  1.00  0.00     0.016 A 
BRANCH  26  31
HETATM   31  O   UNL     1      42.291 -17.552   3.702  1.00  0.00    -0.346 OA
BRANCH  31  32
HETATM   32  C   UNL     1      43.693 -17.732   3.512  1.00  0.00     0.219 C 
BRANCH  32  33
HETATM   33  C   UNL     1      44.058 -19.175   3.753  1.00  0.00     0.026 A 
HETATM   34  C   UNL     1      44.412 -19.677   5.011  1.00  0.00     0.045 A 
HETATM   35 CL   UNL     1      44.456 -18.674   6.417  1.00  0.00    -0.084 Cl
HETATM   36  C   UNL     1      44.764 -21.024   5.169  1.00  0.00     0.024 A 
HETATM   37  C   UNL     1      44.750 -21.892   4.077  1.00  0.00     0.005 A 
HETATM   38  C   UNL     1      44.385 -21.412   2.824  1.00  0.00     0.043 A 
HETATM   39  C   UNL     1      44.048 -20.068   2.674  1.00  0.00     0.126 A 
HETATM   40  F   UNL     1      43.743 -19.629   1.443  1.00  0.00    -0.205 F 
ENDBRANCH  32  33
ENDBRANCH  31  32
ENDBRANCH  26  31
ENDBRANCH  24  25
ENDBRANCH   2  23
TORSDOF 10
ENDMDL
MODEL 6
REMARK VINA RESULT:      -8.0      6.064      9.231
REMARK  10 active torsions:
REMARK  status: ('A' for Active; 'I' for Inactive)
REMARK    1  A    between atoms: N_2  and  C_4 
REMARK    2  A    between atoms: C_4  and  C_5 
REMARK    3  A    between atoms: N_6  and  C_7 
REMARK    4  A    between atoms: C_11  and  N_12 
REMARK    5  A    between atoms: C_15  and  C_16 
REMARK       I    between atoms: C_16  and  N_17 
REMARK    6  A    between atoms: N_17  and  N_18 
REMARK    7  A    between atoms: C_19  and  C_20 
REMARK    8  A    between atoms: C_21  and  O_22 
REMARK    9  A    between atoms: O_22  and  C_23 
REMARK   10  A    between atoms: C_23  and  C_24 
ROOT
HETATM    1  C   UNL     1      41.602 -11.442   6.897  1.00  0.00     0.293 C 
HETATM    2  N   UNL     1      42.104 -12.699   6.611  1.00  0.00    -0.242 N 
HETATM    3  O   UNL     1      40.851 -10.797   6.167  1.00  0.00    -0.264 OA
HETATM    4  H   UNL     1      42.640 -13.223   7.299  1.00  0.00     0.192 HD
ENDROOT
BRANCH   1   5
HETATM    5  C   UNL     1      41.965 -10.922   8.205  1.00  0.00     0.170 A 
HETATM    6  C   UNL     1      41.122 -10.772   9.297  1.00  0.00     0.096 A 
HETATM    7  N   UNL     1      41.953 -10.307  10.313  1.00  0.00    -0.215 N 
HETATM    8  N   UNL     1      43.198 -10.114   9.803  1.00  0.00     0.012 NA
HETATM    9  N   UNL     1      43.222 -10.517   8.543  1.00  0.00    -0.152 NA
BRANCH   6  10
HETATM   10  C   UNL     1      39.654 -10.960   9.405  1.00  0.00     0.295 C 
BRANCH  10  11
HETATM   11  N   UNL     1      38.844  -9.690   9.304  1.00  0.00    -0.073 N 
HETATM   12  C   UNL     1      39.594  -8.542   8.683  1.00  0.00     0.269 C 
HETATM   13  H   UNL     1      38.026  -9.901   8.715  1.00  0.00     0.279 HD
HETATM   14  C   UNL     1      38.290  -9.295  10.647  1.00  0.00     0.269 C 
ENDBRANCH  10  11
ENDBRANCH   6  10
BRANCH   7  15
HETATM   15  C   UNL     1      41.649 -10.104  11.680  1.00  0.00     0.225 A 
HETATM   16  N   UNL     1      41.403 -11.152  12.471  1.00  0.00    -0.081 NA
HETATM   17  O   UNL     1      41.166 -10.571  13.722  1.00  0.00    -0.103 OA
HETATM   18  N   UNL     1      41.302  -9.192  13.669  1.00  0.00    -0.083 NA
HETATM   19  C   UNL     1      41.604  -8.901  12.404  1.00  0.00     0.201 A 
BRANCH  19  20
HETATM   20  N   UNL     1      41.814  -7.661  11.936  1.00  0.00    -0.379 N 
HETATM   21  H   UNL     1      42.632  -7.457  11.368  1.00  0.00     0.158 HD
HETATM   22  H   UNL     1      41.125  -6.912  11.978  1.00  0.00     0.158 HD
ENDBRANCH  19  20
ENDBRANCH   7  15
ENDBRANCH   1   5
BRANCH   2  23
HETATM   23  N   UNL     1      41.742 -13.268   5.435  1.00  0.00    -0.183 NA
HETATM   24  C   UNL     1      41.192 -14.435   5.468  1.00  0.00     0.153 C 
BRANCH  24  25
HETATM   25  C   UNL     1      40.765 -15.091   4.220  1.00  0.00     0.016 A 
HETATM   26  C   UNL     1      41.191 -16.356   3.775  1.00  0.00     0.080 A 
HETATM   27  C   UNL     1      40.714 -16.826   2.543  1.00  0.00     0.037 A 
HETATM   28  C   UNL     1      39.817 -16.075   1.779  1.00  0.00     0.003 A 
HETATM   29  C   UNL     1      39.404 -14.824   2.225  1.00  0.00     0.001 A 
HETATM   30  C   UNL     1      39.881 -14.329   3.438  1.00  0.00     0.016 A 
BRANCH  26  31
HETATM   31  O   UNL     1      42.161 -17.158   4.317  1.00  0.00    -0.346 OA
BRANCH  31  32
HETATM   32  C   UNL     1      43.391 -17.246   3.602  1.00  0.00     0.219 C 
BRANCH  32  33
HETATM   33  C   UNL     1      43.810 -18.689   3.486  1.00  0.00     0.026 A 
HETATM   34  C   UNL     1      44.476 -19.379   4.507  1.00  0.00     0.045 A 
HETATM   35 CL   UNL     1      44.873 -18.627   6.011  1.00  0.00    -0.084 Cl
HETATM   36  C   UNL     1      44.861 -20.715   4.332  1.00  0.00     0.024 A 
HETATM   37  C   UNL     1      44.571 -21.386   3.144  1.00  0.00     0.005 A 
HETATM   38  C   UNL     1      43.898 -20.719   2.127  1.00  0.00     0.043 A 
HETATM   39  C   UNL     1      43.528 -19.387   2.304  1.00  0.00     0.126 A 
HETATM   40  F   UNL     1      42.918 -18.761   1.286  1.00  0.00    -0.205 F 
ENDBRANCH  32  33
ENDBRANCH  31  32
ENDBRANCH  26  31
ENDBRANCH  24  25
ENDBRANCH   2  23
TORSDOF 10
ENDMDL
MODEL 7
REMARK VINA RESULT:      -8.0      1.557      1.925
REMARK  10 active torsions:
REMARK  status: ('A' for Active; 'I' for Inactive)
REMARK    1  A    between atoms: N_2  and  C_4 
REMARK    2  A    between atoms: C_4  and  C_5 
REMARK    3  A    between atoms: N_6  and  C_7 
REMARK    4  A    between atoms: C_11  and  N_12 
REMARK    5  A    between atoms: C_15  and  C_16 
REMARK       I    between atoms: C_16  and  N_17 
REMARK    6  A    between atoms: N_17  and  N_18 
REMARK    7  A    between atoms: C_19  and  C_20 
REMARK    8  A    between atoms: C_21  and  O_22 
REMARK    9  A    between atoms: O_22  and  C_23 
REMARK   10  A    between atoms: C_23  and  C_24 
ROOT
HETATM    1  C   UNL     1      41.448 -15.933   0.092  1.00  0.00     0.293 C 
HETATM    2  N   UNL     1      42.603 -16.688   0.187  1.00  0.00    -0.242 N 
HETATM    3  O   UNL     1      40.622 -15.786   0.991  1.00  0.00    -0.264 OA
HETATM    4  H   UNL     1      43.296 -16.689  -0.558  1.00  0.00     0.192 HD
ENDROOT
BRANCH   1   5
HETATM    5  C   UNL     1      41.284 -15.222  -1.166  1.00  0.00     0.170 A 
HETATM    6  C   UNL     1      41.413 -13.855  -1.365  1.00  0.00     0.096 A 
HETATM    7  N   UNL     1      41.230 -13.687  -2.735  1.00  0.00    -0.215 N 
HETATM    8  N   UNL     1      40.923 -14.892  -3.284  1.00  0.00     0.012 NA
HETATM    9  N   UNL     1      40.989 -15.828  -2.351  1.00  0.00    -0.152 NA
BRANCH   6  10
HETATM   10  C   UNL     1      41.610 -12.761  -0.383  1.00  0.00     0.295 C 
BRANCH  10  11
HETATM   11  N   UNL     1      40.474 -12.575   0.596  1.00  0.00    -0.073 N 
HETATM   12  C   UNL     1      39.181 -12.156  -0.051  1.00  0.00     0.269 C 
HETATM   13  H   UNL     1      40.327 -13.482   1.061  1.00  0.00     0.279 HD
HETATM   14  C   UNL     1      40.855 -11.612   1.688  1.00  0.00     0.269 C 
ENDBRANCH  10  11
ENDBRANCH   6  10
BRANCH   7  15
HETATM   15  C   UNL     1      41.382 -12.512  -3.509  1.00  0.00     0.225 A 
HETATM   16  N   UNL     1      42.602 -12.016  -3.735  1.00  0.00    -0.081 NA
HETATM   17  O   UNL     1      42.356 -10.892  -4.531  1.00  0.00    -0.103 OA
HETATM   18  N   UNL     1      41.002 -10.749  -4.794  1.00  0.00    -0.083 NA
HETATM   19  C   UNL     1      40.397 -11.754  -4.164  1.00  0.00     0.201 A 
BRANCH  19  20
HETATM   20  N   UNL     1      39.073 -11.970  -4.168  1.00  0.00    -0.379 N 
HETATM   21  H   UNL     1      38.679 -12.763  -3.667  1.00  0.00     0.158 HD
HETATM   22  H   UNL     1      38.388 -11.302  -4.517  1.00  0.00     0.158 HD
ENDBRANCH  19  20
ENDBRANCH   7  15
ENDBRANCH   1   5
BRANCH   2  23
HETATM   23  N   UNL     1      42.848 -17.317   1.362  1.00  0.00    -0.183 NA
HETATM   24  C   UNL     1      43.687 -18.298   1.364  1.00  0.00     0.153 C 
BRANCH  24  25
HETATM   25  C   UNL     1      44.001 -19.005   2.618  1.00  0.00     0.016 A 
HETATM   26  C   UNL     1      44.039 -18.421   3.897  1.00  0.00     0.080 A 
HETATM   27  C   UNL     1      44.389 -19.227   4.990  1.00  0.00     0.037 A 
HETATM   28  C   UNL     1      44.671 -20.586   4.827  1.00  0.00     0.003 A 
HETATM   29  C   UNL     1      44.634 -21.155   3.558  1.00  0.00     0.001 A 
HETATM   30  C   UNL     1      44.307 -20.366   2.455  1.00  0.00     0.016 A 
BRANCH  26  31
HETATM   31  O   UNL     1      43.931 -17.094   4.222  1.00  0.00    -0.346 OA
BRANCH  31  32
HETATM   32  C   UNL     1      43.271 -16.788   5.449  1.00  0.00     0.219 C 
BRANCH  32  33
HETATM   33  C   UNL     1      42.368 -15.597   5.258  1.00  0.00     0.026 A 
HETATM   34  C   UNL     1      42.674 -14.317   5.736  1.00  0.00     0.045 A 
HETATM   35 CL   UNL     1      44.137 -13.986   6.594  1.00  0.00    -0.084 Cl
HETATM   36  C   UNL     1      41.783 -13.252   5.548  1.00  0.00     0.024 A 
HETATM   37  C   UNL     1      40.583 -13.446   4.862  1.00  0.00     0.005 A 
HETATM   38  C   UNL     1      40.272 -14.707   4.368  1.00  0.00     0.043 A 
HETATM   39  C   UNL     1      41.159 -15.764   4.570  1.00  0.00     0.126 A 
HETATM   40  F   UNL     1      40.807 -16.977   4.118  1.00  0.00    -0.205 F 
ENDBRANCH  32  33
ENDBRANCH  31  32
ENDBRANCH  26  31
ENDBRANCH  24  25
ENDBRANCH   2  23
TORSDOF 10
ENDMDL
MODEL 8
REMARK VINA RESULT:      -7.8      2.287      4.974
REMARK  10 active torsions:
REMARK  status: ('A' for Active; 'I' for Inactive)
REMARK    1  A    between atoms: N_2  and  C_4 
REMARK    2  A    between atoms: C_4  and  C_5 
REMARK    3  A    between atoms: N_6  and  C_7 
REMARK    4  A    between atoms: C_11  and  N_12 
REMARK    5  A    between atoms: C_15  and  C_16 
REMARK       I    between atoms: C_16  and  N_17 
REMARK    6  A    between atoms: N_17  and  N_18 
REMARK    7  A    between atoms: C_19  and  C_20 
REMARK    8  A    between atoms: C_21  and  O_22 
REMARK    9  A    between atoms: O_22  and  C_23 
REMARK   10  A    between atoms: C_23  and  C_24 
ROOT
HETATM    1  C   UNL     1      41.378 -12.343   0.646  1.00  0.00     0.293 C 
HETATM    2  N   UNL     1      41.987 -13.561   0.891  1.00  0.00    -0.242 N 
HETATM    3  O   UNL     1      40.424 -11.890   1.275  1.00  0.00    -0.264 OA
HETATM    4  H   UNL     1      42.836 -13.835   0.402  1.00  0.00     0.192 HD
ENDROOT
BRANCH   1   5
HETATM    5  C   UNL     1      42.001 -11.548  -0.401  1.00  0.00     0.170 A 
HETATM    6  C   UNL     1      41.441 -11.211  -1.625  1.00  0.00     0.096 A 
HETATM    7  N   UNL     1      42.395 -10.396  -2.227  1.00  0.00    -0.215 N 
HETATM    8  N   UNL     1      43.490 -10.340  -1.424  1.00  0.00     0.012 NA
HETATM    9  N   UNL     1      43.246 -11.002  -0.305  1.00  0.00    -0.152 NA
BRANCH   6  10
HETATM   10  C   UNL     1      40.168 -11.651  -2.248  1.00  0.00     0.295 C 
BRANCH  10  11
HETATM   11  N   UNL     1      40.030 -13.146  -2.418  1.00  0.00    -0.073 N 
HETATM   12  C   UNL     1      41.138 -13.768  -3.225  1.00  0.00     0.269 C 
HETATM   13  H   UNL     1      40.043 -13.558  -1.475  1.00  0.00     0.279 HD
HETATM   14  C   UNL     1      38.688 -13.500  -3.002  1.00  0.00     0.269 C 
ENDBRANCH  10  11
ENDBRANCH   6  10
BRANCH   7  15
HETATM   15  C   UNL     1      42.298  -9.665  -3.435  1.00  0.00     0.225 A 
HETATM   16  N   UNL     1      42.039  -8.354  -3.401  1.00  0.00    -0.081 NA
HETATM   17  O   UNL     1      42.035  -7.986  -4.751  1.00  0.00    -0.103 OA
HETATM   18  N   UNL     1      42.321  -9.069  -5.568  1.00  0.00    -0.083 NA
HETATM   19  C   UNL     1      42.486 -10.110  -4.754  1.00  0.00     0.201 A 
BRANCH  19  20
HETATM   20  N   UNL     1      42.774 -11.357  -5.158  1.00  0.00    -0.379 N 
HETATM   21  H   UNL     1      43.343 -11.510  -5.987  1.00  0.00     0.158 HD
HETATM   22  H   UNL     1      42.590 -12.192  -4.606  1.00  0.00     0.158 HD
ENDBRANCH  19  20
ENDBRANCH   7  15
ENDBRANCH   1   5
BRANCH   2  23
HETATM   23  N   UNL     1      41.497 -14.317   1.904  1.00  0.00    -0.183 NA
HETATM   24  C   UNL     1      42.337 -14.914   2.680  1.00  0.00     0.153 C 
BRANCH  24  25
HETATM   25  C   UNL     1      41.857 -15.735   3.805  1.00  0.00     0.016 A 
HETATM   26  C   UNL     1      42.033 -17.124   3.937  1.00  0.00     0.080 A 
HETATM   27  C   UNL     1      41.484 -17.764   5.058  1.00  0.00     0.037 A 
HETATM   28  C   UNL     1      40.797 -17.045   6.038  1.00  0.00     0.003 A 
HETATM   29  C   UNL     1      40.624 -15.672   5.898  1.00  0.00     0.001 A 
HETATM   30  C   UNL     1      41.145 -15.018   4.782  1.00  0.00     0.016 A 
BRANCH  26  31
HETATM   31  O   UNL     1      42.550 -18.000   3.018  1.00  0.00    -0.346 OA
BRANCH  31  32
HETATM   32  C   UNL     1      43.956 -18.234   3.079  1.00  0.00     0.219 C 
BRANCH  32  33
HETATM   33  C   UNL     1      44.216 -19.671   3.450  1.00  0.00     0.026 A 
HETATM   34  C   UNL     1      44.605 -20.075   4.733  1.00  0.00     0.045 A 
HETATM   35 CL   UNL     1      44.818 -18.944   6.022  1.00  0.00    -0.084 Cl
HETATM   36  C   UNL     1      44.856 -21.425   5.012  1.00  0.00     0.024 A 
HETATM   37  C   UNL     1      44.702 -22.393   4.019  1.00  0.00     0.005 A 
HETATM   38  C   UNL     1      44.301 -22.010   2.745  1.00  0.00     0.043 A 
HETATM   39  C   UNL     1      44.066 -20.663   2.472  1.00  0.00     0.126 A 
HETATM   40  F   UNL     1      43.722 -20.324   1.221  1.00  0.00    -0.205 F 
ENDBRANCH  32  33
ENDBRANCH  31  32
ENDBRANCH  26  31
ENDBRANCH  24  25
ENDBRANCH   2  23
TORSDOF 10
ENDMDL
MODEL 9
REMARK VINA RESULT:      -7.7      2.274      2.707
REMARK  10 active torsions:
REMARK  status: ('A' for Active; 'I' for Inactive)
REMARK    1  A    between atoms: N_2  and  C_4 
REMARK    2  A    between atoms: C_4  and  C_5 
REMARK    3  A    between atoms: N_6  and  C_7 
REMARK    4  A    between atoms: C_11  and  N_12 
REMARK    5  A    between atoms: C_15  and  C_16 
REMARK       I    between atoms: C_16  and  N_17 
REMARK    6  A    between atoms: N_17  and  N_18 
REMARK    7  A    between atoms: C_19  and  C_20 
REMARK    8  A    between atoms: C_21  and  O_22 
REMARK    9  A    between atoms: O_22  and  C_23 
REMARK   10  A    between atoms: C_23  and  C_24 
ROOT
HETATM    1  C   UNL     1      41.357 -15.769   0.410  1.00  0.00     0.293 C 
HETATM    2  N   UNL     1      41.082 -17.122   0.489  1.00  0.00    -0.242 N 
HETATM    3  O   UNL     1      42.094 -15.150   1.176  1.00  0.00    -0.264 OA
HETATM    4  H   UNL     1      40.544 -17.595  -0.234  1.00  0.00     0.192 HD
ENDROOT
BRANCH   1   5
HETATM    5  C   UNL     1      40.759 -15.089  -0.728  1.00  0.00     0.170 A 
HETATM    6  C   UNL     1      39.764 -14.122  -0.682  1.00  0.00     0.096 A 
HETATM    7  N   UNL     1      39.590 -13.744  -2.011  1.00  0.00    -0.215 N 
HETATM    8  N   UNL     1      40.386 -14.520  -2.792  1.00  0.00     0.012 NA
HETATM    9  N   UNL     1      41.120 -15.308  -2.023  1.00  0.00    -0.152 NA
BRANCH   6  10
HETATM   10  C   UNL     1      38.967 -13.625   0.465  1.00  0.00     0.295 C 
BRANCH  10  11
HETATM   11  N   UNL     1      39.767 -12.920   1.535  1.00  0.00    -0.073 N 
HETATM   12  C   UNL     1      38.921 -12.295   2.611  1.00  0.00     0.269 C 
HETATM   13  H   UNL     1      40.377 -13.628   1.969  1.00  0.00     0.279 HD
HETATM   14  C   UNL     1      40.693 -11.898   0.931  1.00  0.00     0.269 C 
ENDBRANCH  10  11
ENDBRANCH   6  10
BRANCH   7  15
HETATM   15  C   UNL     1      38.792 -12.700  -2.536  1.00  0.00     0.225 A 
HETATM   16  N   UNL     1      38.980 -11.444  -2.121  1.00  0.00    -0.081 NA
HETATM   17  O   UNL     1      38.042 -10.711  -2.856  1.00  0.00    -0.103 OA
HETATM   18  N   UNL     1      37.329 -11.531  -3.718  1.00  0.00    -0.083 NA
HETATM   19  C   UNL     1      37.794 -12.764  -3.523  1.00  0.00     0.201 A 
BRANCH  19  20
HETATM   20  N   UNL     1      37.357 -13.855  -4.168  1.00  0.00    -0.379 N 
HETATM   21  H   UNL     1      36.419 -14.211  -4.001  1.00  0.00     0.158 HD
HETATM   22  H   UNL     1      37.845 -14.289  -4.949  1.00  0.00     0.158 HD
ENDBRANCH  19  20
ENDBRANCH   7  15
ENDBRANCH   1   5
BRANCH   2  23
HETATM   23  N   UNL     1      41.670 -17.826   1.487  1.00  0.00    -0.183 NA
HETATM   24  C   UNL     1      42.752 -18.475   1.219  1.00  0.00     0.153 C 
BRANCH  24  25
HETATM   25  C   UNL     1      43.440 -19.242   2.272  1.00  0.00     0.016 A 
HETATM   26  C   UNL     1      43.825 -18.741   3.529  1.00  0.00     0.080 A 
HETATM   27  C   UNL     1      44.503 -19.595   4.410  1.00  0.00     0.037 A 
HETATM   28  C   UNL     1      44.774 -20.923   4.067  1.00  0.00     0.003 A 
HETATM   29  C   UNL     1      44.393 -21.409   2.821  1.00  0.00     0.001 A 
HETATM   30  C   UNL     1      43.734 -20.571   1.922  1.00  0.00     0.016 A 
BRANCH  26  31
HETATM   31  O   UNL     1      43.768 -17.446   3.974  1.00  0.00    -0.346 OA
BRANCH  31  32
HETATM   32  C   UNL     1      42.864 -17.178   5.044  1.00  0.00     0.219 C 
BRANCH  32  33
HETATM   33  C   UNL     1      43.201 -15.850   5.673  1.00  0.00     0.026 A 
HETATM   34  C   UNL     1      42.463 -14.682   5.443  1.00  0.00     0.045 A 
HETATM   35 CL   UNL     1      41.080 -14.663   4.408  1.00  0.00    -0.084 Cl
HETATM   36  C   UNL     1      42.840 -13.471   6.039  1.00  0.00     0.024 A 
HETATM   37  C   UNL     1      43.946 -13.413   6.887  1.00  0.00     0.005 A 
HETATM   38  C   UNL     1      44.679 -14.567   7.138  1.00  0.00     0.043 A 
HETATM   39  C   UNL     1      44.305 -15.765   6.531  1.00  0.00     0.126 A 
HETATM   40  F   UNL     1      45.060 -16.850   6.761  1.00  0.00    -0.205 F 
ENDBRANCH  32  33
ENDBRANCH  31  32
ENDBRANCH  26  31
ENDBRANCH  24  25
ENDBRANCH   2  23
TORSDOF 10
ENDMDL
MODEL 10
REMARK VINA RESULT:      -7.7      6.265      9.717
REMARK  10 active torsions:
REMARK  status: ('A' for Active; 'I' for Inactive)
REMARK    1  A    between atoms: N_2  and  C_4 
REMARK    2  A    between atoms: C_4  and  C_5 
REMARK    3  A    between atoms: N_6  and  C_7 
REMARK    4  A    between atoms: C_11  and  N_12 
REMARK    5  A    between atoms: C_15  and  C_16 
REMARK       I    between atoms: C_16  and  N_17 
REMARK    6  A    between atoms: N_17  and  N_18 
REMARK    7  A    between atoms: C_19  and  C_20 
REMARK    8  A    between atoms: C_21  and  O_22 
REMARK    9  A    between atoms: O_22  and  C_23 
REMARK   10  A    between atoms: C_23  and  C_24 
ROOT
HETATM    1  C   UNL     1      41.119 -10.801   7.550  1.00  0.00     0.293 C 
HETATM    2  N   UNL     1      41.218 -12.114   7.127  1.00  0.00    -0.242 N 
HETATM    3  O   UNL     1      41.167  -9.815   6.816  1.00  0.00    -0.264 OA
HETATM    4  H   UNL     1      41.070 -12.889   7.770  1.00  0.00     0.192 HD
ENDROOT
BRANCH   1   5
HETATM    5  C   UNL     1      40.868 -10.634   8.973  1.00  0.00     0.170 A 
HETATM    6  C   UNL     1      41.825 -10.537   9.973  1.00  0.00     0.096 A 
HETATM    7  N   UNL     1      41.087 -10.322  11.135  1.00  0.00    -0.215 N 
HETATM    8  N   UNL     1      39.765 -10.380  10.828  1.00  0.00     0.012 NA
HETATM    9  N   UNL     1      39.625 -10.532   9.521  1.00  0.00    -0.152 NA
BRANCH   6  10
HETATM   10  C   UNL     1      43.297 -10.703   9.908  1.00  0.00     0.295 C 
BRANCH  10  11
HETATM   11  N   UNL     1      43.773 -12.136   9.886  1.00  0.00    -0.073 N 
HETATM   12  C   UNL     1      44.535 -12.540  11.120  1.00  0.00     0.269 C 
HETATM   13  H   UNL     1      42.935 -12.730   9.812  1.00  0.00     0.279 HD
HETATM   14  C   UNL     1      44.585 -12.417   8.649  1.00  0.00     0.269 C 
ENDBRANCH  10  11
ENDBRANCH   6  10
BRANCH   7  15
HETATM   15  C   UNL     1      41.555 -10.023  12.436  1.00  0.00     0.225 A 
HETATM   16  N   UNL     1      42.152 -10.973  13.164  1.00  0.00    -0.081 NA
HETATM   17  O   UNL     1      42.483 -10.314  14.354  1.00  0.00    -0.103 OA
HETATM   18  N   UNL     1      42.109  -8.980  14.310  1.00  0.00    -0.083 NA
HETATM   19  C   UNL     1      41.536  -8.797  13.121  1.00  0.00     0.201 A 
BRANCH  19  20
HETATM   20  N   UNL     1      41.032  -7.631  12.689  1.00  0.00    -0.379 N 
HETATM   21  H   UNL     1      41.639  -6.827  12.554  1.00  0.00     0.158 HD
HETATM   22  H   UNL     1      40.086  -7.518  12.330  1.00  0.00     0.158 HD
ENDBRANCH  19  20
ENDBRANCH   7  15
ENDBRANCH   1   5
BRANCH   2  23
HETATM   23  N   UNL     1      41.380 -12.337   5.800  1.00  0.00    -0.183 NA
HETATM   24  C   UNL     1      41.659 -13.536   5.413  1.00  0.00     0.153 C 
BRANCH  24  25
HETATM   25  C   UNL     1      41.829 -13.835   3.981  1.00  0.00     0.016 A 
HETATM   26  C   UNL     1      42.426 -14.994   3.453  1.00  0.00     0.080 A 
HETATM   27  C   UNL     1      42.541 -15.113   2.061  1.00  0.00     0.037 A 
HETATM   28  C   UNL     1      42.055 -14.119   1.206  1.00  0.00     0.003 A 
HETATM   29  C   UNL     1      41.469 -12.974   1.737  1.00  0.00     0.001 A 
HETATM   30  C   UNL     1      41.362 -12.827   3.119  1.00  0.00     0.016 A 
BRANCH  26  31
HETATM   31  O   UNL     1      43.074 -15.992   4.132  1.00  0.00    -0.346 OA
BRANCH  31  32
HETATM   32  C   UNL     1      42.339 -17.193   4.359  1.00  0.00     0.219 C 
BRANCH  32  33
HETATM   33  C   UNL     1      43.116 -18.372   3.832  1.00  0.00     0.026 A 
HETATM   34  C   UNL     1      44.142 -18.998   4.550  1.00  0.00     0.045 A 
HETATM   35 CL   UNL     1      44.610 -18.469   6.127  1.00  0.00    -0.084 Cl
HETATM   36  C   UNL     1      44.845 -20.077   3.997  1.00  0.00     0.024 A 
HETATM   37  C   UNL     1      44.521 -20.558   2.728  1.00  0.00     0.005 A 
HETATM   38  C   UNL     1      43.494 -19.957   2.010  1.00  0.00     0.043 A 
HETATM   39  C   UNL     1      42.808 -18.877   2.562  1.00  0.00     0.126 A 
HETATM   40  F   UNL     1      41.852 -18.293   1.823  1.00  0.00    -0.205 F 
ENDBRANCH  32  33
ENDBRANCH  31  32
ENDBRANCH  26  31
ENDBRANCH  24  25
ENDBRANCH   2  23
TORSDOF 10
ENDMDL
