MODEL 1
REMARK VINA RESULT:      -9.0      0.000      0.000
REMARK  2 active torsions:
REMARK  status: ('A' for Active; 'I' for Inactive)
REMARK    1  A    between atoms: C_15  and  C_16 
REMARK    2  A    between atoms: C_19  and  O_20 
ROOT
HETATM    1  C   UNL     1      42.467 -10.948  -3.515  1.00  0.00     0.048 C 
HETATM    2  C   UNL     1      41.968 -12.186  -2.827  1.00  0.00    -0.061 A 
HETATM    3  C   UNL     1      42.124 -12.325  -1.437  1.00  0.00     0.021 A 
HETATM    4  C   UNL     1      41.683 -13.499  -0.796  1.00  0.00    -0.000 A 
HETATM    5  C   UNL     1      41.085 -14.500  -1.568  1.00  0.00     0.043 A 
HETATM    6  N   UNL     1      40.715 -15.519  -0.715  1.00  0.00    -0.353 N 
HETATM    7  H   UNL     1      40.261 -16.380  -0.989  1.00  0.00     0.166 HD
HETATM    8  C   UNL     1      41.156 -15.234   0.540  1.00  0.00     0.066 A 
HETATM    9  C   UNL     1      41.722 -13.972   0.544  1.00  0.00    -0.017 A 
HETATM   10  C   UNL     1      42.294 -13.360   1.794  1.00  0.00     0.043 C 
HETATM   11  C   UNL     1      42.006 -14.228   3.060  1.00  0.00     0.018 C 
HETATM   12  C   UNL     1      42.158 -15.729   2.740  1.00  0.00     0.065 A 
HETATM   13  C   UNL     1      41.113 -16.034   1.714  1.00  0.00     0.082 A 
HETATM   14  N   UNL     1      40.192 -16.880   2.031  1.00  0.00    -0.203 NA
HETATM   15  C   UNL     1      41.768 -16.747   3.818  1.00  0.00     0.121 A 
HETATM   16  N   UNL     1      40.505 -17.303   3.284  1.00  0.00    -0.207 NA
HETATM   17  C   UNL     1      40.944 -14.398  -2.956  1.00  0.00     0.031 A 
HETATM   18  C   UNL     1      41.406 -13.228  -3.570  1.00  0.00     0.009 A 
HETATM   19  H   UNL     1      39.728 -17.184   3.935  1.00  0.00     0.149 HD
ENDROOT
BRANCH  15  20
HETATM   20  C   UNL     1      42.825 -17.839   4.003  1.00  0.00    -0.038 A 
HETATM   21  C   UNL     1      43.243 -18.636   2.923  1.00  0.00     0.011 A 
HETATM   22  C   UNL     1      44.126 -19.706   3.112  1.00  0.00     0.037 A 
HETATM   23  C   UNL     1      44.629 -19.978   4.381  1.00  0.00     0.068 A 
HETATM   24  C   UNL     1      44.311 -19.137   5.442  1.00  0.00     0.037 A 
HETATM   25  C   UNL     1      43.415 -18.080   5.257  1.00  0.00     0.011 A 
BRANCH  23  26
HETATM   26  O   UNL     1      45.472 -21.017   4.665  1.00  0.00    -0.356 OA
HETATM   27  C   UNL     1      44.806 -22.150   5.219  1.00  0.00     0.210 C 
ENDBRANCH  23  26
ENDBRANCH  15  20
TORSDOF 2
ENDMDL
MODEL 2
REMARK VINA RESULT:      -8.6      2.337      2.735
REMARK  2 active torsions:
REMARK  status: ('A' for Active; 'I' for Inactive)
REMARK    1  A    between atoms: C_15  and  C_16 
REMARK    2  A    between atoms: C_19  and  O_20 
ROOT
HETATM    1  C   UNL     1      38.541 -11.185  -1.398  1.00  0.00     0.048 C 
HETATM    2  C   UNL     1      38.630 -12.247  -0.340  1.00  0.00    -0.061 A 
HETATM    3  C   UNL     1      39.857 -12.497   0.299  1.00  0.00     0.021 A 
HETATM    4  C   UNL     1      39.947 -13.514   1.269  1.00  0.00    -0.000 A 
HETATM    5  C   UNL     1      38.797 -14.246   1.583  1.00  0.00     0.043 A 
HETATM    6  N   UNL     1      39.134 -15.147   2.572  1.00  0.00    -0.353 N 
HETATM    7  H   UNL     1      38.506 -15.815   2.998  1.00  0.00     0.166 HD
HETATM    8  C   UNL     1      40.471 -15.073   2.808  1.00  0.00     0.066 A 
HETATM    9  C   UNL     1      41.007 -14.044   2.056  1.00  0.00    -0.017 A 
HETATM   10  C   UNL     1      42.471 -13.698   2.107  1.00  0.00     0.043 C 
HETATM   11  C   UNL     1      43.227 -14.501   3.212  1.00  0.00     0.018 C 
HETATM   12  C   UNL     1      42.729 -15.960   3.266  1.00  0.00     0.065 A 
HETATM   13  C   UNL     1      41.284 -15.881   3.649  1.00  0.00     0.082 A 
HETATM   14  N   UNL     1      40.931 -16.423   4.765  1.00  0.00    -0.203 NA
HETATM   15  C   UNL     1      43.246 -16.864   4.390  1.00  0.00     0.121 A 
HETATM   16  N   UNL     1      42.061 -16.984   5.268  1.00  0.00    -0.207 NA
HETATM   17  C   UNL     1      37.573 -14.036   0.942  1.00  0.00     0.031 A 
HETATM   18  C   UNL     1      37.515 -13.032  -0.031  1.00  0.00     0.009 A 
HETATM   19  H   UNL     1      42.256 -16.669   6.220  1.00  0.00     0.149 HD
ENDROOT
BRANCH  15  20
HETATM   20  C   UNL     1      43.702 -18.233   3.878  1.00  0.00    -0.038 A 
HETATM   21  C   UNL     1      43.454 -18.632   2.553  1.00  0.00     0.011 A 
HETATM   22  C   UNL     1      43.772 -19.924   2.114  1.00  0.00     0.037 A 
HETATM   23  C   UNL     1      44.371 -20.828   2.988  1.00  0.00     0.068 A 
HETATM   24  C   UNL     1      44.720 -20.419   4.270  1.00  0.00     0.037 A 
HETATM   25  C   UNL     1      44.386 -19.135   4.713  1.00  0.00     0.011 A 
BRANCH  23  26
HETATM   26  O   UNL     1      44.689 -22.117   2.657  1.00  0.00    -0.356 OA
HETATM   27  C   UNL     1      44.721 -22.997   3.778  1.00  0.00     0.210 C 
ENDBRANCH  23  26
ENDBRANCH  15  20
TORSDOF 2
ENDMDL
MODEL 3
REMARK VINA RESULT:      -8.5      4.953      5.413
REMARK  2 active torsions:
REMARK  status: ('A' for Active; 'I' for Inactive)
REMARK    1  A    between atoms: C_15  and  C_16 
REMARK    2  A    between atoms: C_19  and  O_20 
ROOT
HETATM    1  C   UNL     1      40.573  -9.785   4.236  1.00  0.00     0.048 C 
HETATM    2  C   UNL     1      40.485 -11.186   4.770  1.00  0.00    -0.061 A 
HETATM    3  C   UNL     1      41.661 -11.885   5.095  1.00  0.00     0.021 A 
HETATM    4  C   UNL     1      41.581 -13.209   5.567  1.00  0.00    -0.000 A 
HETATM    5  C   UNL     1      40.319 -13.794   5.715  1.00  0.00     0.043 A 
HETATM    6  N   UNL     1      40.504 -15.065   6.218  1.00  0.00    -0.353 N 
HETATM    7  H   UNL     1      39.770 -15.729   6.424  1.00  0.00     0.166 HD
HETATM    8  C   UNL     1      41.837 -15.328   6.288  1.00  0.00     0.066 A 
HETATM    9  C   UNL     1      42.542 -14.191   5.937  1.00  0.00    -0.017 A 
HETATM   10  C   UNL     1      44.046 -14.156   5.929  1.00  0.00     0.043 C 
HETATM   11  C   UNL     1      44.668 -15.461   6.521  1.00  0.00     0.018 C 
HETATM   12  C   UNL     1      43.875 -16.702   6.063  1.00  0.00     0.065 A 
HETATM   13  C   UNL     1      42.500 -16.538   6.630  1.00  0.00     0.082 A 
HETATM   14  N   UNL     1      42.095 -17.420   7.479  1.00  0.00    -0.203 NA
HETATM   15  C   UNL     1      44.243 -18.063   6.663  1.00  0.00     0.121 A 
HETATM   16  N   UNL     1      43.104 -18.325   7.570  1.00  0.00    -0.207 NA
HETATM   17  C   UNL     1      39.137 -13.130   5.372  1.00  0.00     0.031 A 
HETATM   18  C   UNL     1      39.246 -11.821   4.889  1.00  0.00     0.009 A 
HETATM   19  H   UNL     1      43.406 -18.468   8.535  1.00  0.00     0.149 HD
ENDROOT
BRANCH  15  20
HETATM   20  C   UNL     1      44.374 -19.157   5.601  1.00  0.00    -0.038 A 
HETATM   21  C   UNL     1      44.226 -18.863   4.234  1.00  0.00     0.011 A 
HETATM   22  C   UNL     1      44.236 -19.879   3.269  1.00  0.00     0.037 A 
HETATM   23  C   UNL     1      44.425 -21.203   3.655  1.00  0.00     0.068 A 
HETATM   24  C   UNL     1      44.679 -21.502   4.989  1.00  0.00     0.037 A 
HETATM   25  C   UNL     1      44.650 -20.490   5.954  1.00  0.00     0.011 A 
BRANCH  23  26
HETATM   26  O   UNL     1      44.420 -22.262   2.789  1.00  0.00    -0.356 OA
HETATM   27  C   UNL     1      44.047 -21.902   1.459  1.00  0.00     0.210 C 
ENDBRANCH  23  26
ENDBRANCH  15  20
TORSDOF 2
ENDMDL
MODEL 4
REMARK VINA RESULT:      -8.4      3.038      8.194
REMARK  2 active torsions:
REMARK  status: ('A' for Active; 'I' for Inactive)
REMARK    1  A    between atoms: C_15  and  C_16 
REMARK    2  A    between atoms: C_19  and  O_20 
ROOT
HETATM    1  C   UNL     1      43.984 -19.279   7.278  1.00  0.00     0.048 C 
HETATM    2  C   UNL     1      43.066 -18.349   6.538  1.00  0.00    -0.061 A 
HETATM    3  C   UNL     1      43.051 -18.354   5.132  1.00  0.00     0.021 A 
HETATM    4  C   UNL     1      42.212 -17.462   4.437  1.00  0.00    -0.000 A 
HETATM    5  C   UNL     1      41.398 -16.595   5.174  1.00  0.00     0.043 A 
HETATM    6  N   UNL     1      40.656 -15.856   4.276  1.00  0.00    -0.353 N 
HETATM    7  H   UNL     1      39.981 -15.143   4.516  1.00  0.00     0.166 HD
HETATM    8  C   UNL     1      41.056 -16.158   3.011  1.00  0.00     0.066 A 
HETATM    9  C   UNL     1      41.986 -17.179   3.062  1.00  0.00    -0.017 A 
HETATM   10  C   UNL     1      42.612 -17.750   1.818  1.00  0.00     0.043 C 
HETATM   11  C   UNL     1      41.959 -17.183   0.518  1.00  0.00     0.018 C 
HETATM   12  C   UNL     1      41.661 -15.677   0.667  1.00  0.00     0.065 A 
HETATM   13  C   UNL     1      40.664 -15.569   1.778  1.00  0.00     0.082 A 
HETATM   14  N   UNL     1      39.501 -15.089   1.493  1.00  0.00    -0.203 NA
HETATM   15  C   UNL     1      40.881 -14.975  -0.450  1.00  0.00     0.121 A 
HETATM   16  N   UNL     1      39.558 -14.760   0.176  1.00  0.00    -0.207 NA
HETATM   17  C   UNL     1      41.416 -16.551   6.571  1.00  0.00     0.031 A 
HETATM   18  C   UNL     1      42.271 -17.436   7.237  1.00  0.00     0.009 A 
HETATM   19  H   UNL     1      38.804 -15.191  -0.361  1.00  0.00     0.149 HD
ENDROOT
BRANCH  15  20
HETATM   20  C   UNL     1      41.523 -13.650  -0.870  1.00  0.00    -0.038 A 
HETATM   21  C   UNL     1      41.927 -13.428  -2.199  1.00  0.00     0.011 A 
HETATM   22  C   UNL     1      42.612 -12.261  -2.561  1.00  0.00     0.037 A 
HETATM   23  C   UNL     1      42.877 -11.284  -1.606  1.00  0.00     0.068 A 
HETATM   24  C   UNL     1      42.392 -11.437  -0.311  1.00  0.00     0.037 A 
HETATM   25  C   UNL     1      41.724 -12.610   0.055  1.00  0.00     0.011 A 
BRANCH  23  26
HETATM   26  O   UNL     1      43.564 -10.129  -1.861  1.00  0.00    -0.356 OA
HETATM   27  C   UNL     1      43.575  -9.222  -0.760  1.00  0.00     0.210 C 
ENDBRANCH  23  26
ENDBRANCH  15  20
TORSDOF 2
ENDMDL
MODEL 5
REMARK VINA RESULT:      -8.3      1.710      2.286
REMARK  2 active torsions:
REMARK  status: ('A' for Active; 'I' for Inactive)
REMARK    1  A    between atoms: C_15  and  C_16 
REMARK    2  A    between atoms: C_19  and  O_20 
ROOT
HETATM    1  C   UNL     1      42.313  -8.018  -0.129  1.00  0.00     0.048 C 
HETATM    2  C   UNL     1      42.327  -9.487  -0.438  1.00  0.00    -0.061 A 
HETATM    3  C   UNL     1      41.721 -10.394   0.450  1.00  0.00     0.021 A 
HETATM    4  C   UNL     1      41.760 -11.775   0.176  1.00  0.00    -0.000 A 
HETATM    5  C   UNL     1      42.396 -12.209  -0.992  1.00  0.00     0.043 A 
HETATM    6  N   UNL     1      42.270 -13.582  -1.048  1.00  0.00    -0.353 N 
HETATM    7  H   UNL     1      42.636 -14.176  -1.780  1.00  0.00     0.166 HD
HETATM    8  C   UNL     1      41.674 -14.024   0.092  1.00  0.00     0.066 A 
HETATM    9  C   UNL     1      41.301 -12.935   0.858  1.00  0.00    -0.017 A 
HETATM   10  C   UNL     1      40.601 -13.094   2.181  1.00  0.00     0.043 C 
HETATM   11  C   UNL     1      40.210 -14.579   2.464  1.00  0.00     0.018 C 
HETATM   12  C   UNL     1      41.330 -15.537   2.011  1.00  0.00     0.065 A 
HETATM   13  C   UNL     1      41.444 -15.356   0.530  1.00  0.00     0.082 A 
HETATM   14  N   UNL     1      41.186 -16.375  -0.218  1.00  0.00    -0.203 NA
HETATM   15  C   UNL     1      41.066 -17.045   2.069  1.00  0.00     0.121 A 
HETATM   16  N   UNL     1      40.914 -17.394   0.639  1.00  0.00    -0.207 NA
HETATM   17  C   UNL     1      43.029 -11.330  -1.875  1.00  0.00     0.031 A 
HETATM   18  C   UNL     1      42.991  -9.965  -1.571  1.00  0.00     0.009 A 
HETATM   19  H   UNL     1      40.012 -17.830   0.443  1.00  0.00     0.149 HD
ENDROOT
BRANCH  15  20
HETATM   20  C   UNL     1      42.219 -17.819   2.712  1.00  0.00    -0.038 A 
HETATM   21  C   UNL     1      42.871 -18.857   2.024  1.00  0.00     0.011 A 
HETATM   22  C   UNL     1      43.851 -19.638   2.649  1.00  0.00     0.037 A 
HETATM   23  C   UNL     1      44.217 -19.371   3.966  1.00  0.00     0.068 A 
HETATM   24  C   UNL     1      43.661 -18.282   4.628  1.00  0.00     0.037 A 
HETATM   25  C   UNL     1      42.670 -17.515   4.010  1.00  0.00     0.011 A 
BRANCH  23  26
HETATM   26  O   UNL     1      45.142 -20.097   4.666  1.00  0.00    -0.356 OA
HETATM   27  C   UNL     1      44.914 -21.505   4.611  1.00  0.00     0.210 C 
ENDBRANCH  23  26
ENDBRANCH  15  20
TORSDOF 2
ENDMDL
MODEL 6
REMARK VINA RESULT:      -8.1      3.098      8.352
REMARK  2 active torsions:
REMARK  status: ('A' for Active; 'I' for Inactive)
REMARK    1  A    between atoms: C_15  and  C_16 
REMARK    2  A    between atoms: C_19  and  O_20 
ROOT
HETATM    1  C   UNL     1      45.118 -21.221   4.762  1.00  0.00     0.048 C 
HETATM    2  C   UNL     1      44.521 -19.843   4.774  1.00  0.00    -0.061 A 
HETATM    3  C   UNL     1      43.726 -19.417   3.695  1.00  0.00     0.021 A 
HETATM    4  C   UNL     1      43.191 -18.114   3.692  1.00  0.00    -0.000 A 
HETATM    5  C   UNL     1      43.457 -17.276   4.780  1.00  0.00     0.043 A 
HETATM    6  N   UNL     1      42.802 -16.083   4.558  1.00  0.00    -0.353 N 
HETATM    7  H   UNL     1      42.814 -15.281   5.174  1.00  0.00     0.166 HD
HETATM    8  C   UNL     1      42.228 -16.111   3.325  1.00  0.00     0.066 A 
HETATM    9  C   UNL     1      42.406 -17.366   2.772  1.00  0.00    -0.017 A 
HETATM   10  C   UNL     1      41.870 -17.720   1.411  1.00  0.00     0.043 C 
HETATM   11  C   UNL     1      40.971 -16.589   0.820  1.00  0.00     0.018 C 
HETATM   12  C   UNL     1      41.565 -15.200   1.129  1.00  0.00     0.065 A 
HETATM   13  C   UNL     1      41.555 -15.076   2.620  1.00  0.00     0.082 A 
HETATM   14  N   UNL     1      40.830 -14.143   3.138  1.00  0.00    -0.203 NA
HETATM   15  C   UNL     1      40.745 -13.959   0.760  1.00  0.00     0.121 A 
HETATM   16  N   UNL     1      40.293 -13.475   2.084  1.00  0.00    -0.207 NA
HETATM   17  C   UNL     1      44.267 -17.668   5.851  1.00  0.00     0.031 A 
HETATM   18  C   UNL     1      44.800 -18.961   5.821  1.00  0.00     0.009 A 
HETATM   19  H   UNL     1      39.276 -13.417   2.144  1.00  0.00     0.149 HD
ENDROOT
BRANCH  15  20
HETATM   20  C   UNL     1      41.578 -12.899   0.034  1.00  0.00    -0.038 A 
HETATM   21  C   UNL     1      41.865 -11.662   0.637  1.00  0.00     0.011 A 
HETATM   22  C   UNL     1      42.532 -10.651  -0.066  1.00  0.00     0.037 A 
HETATM   23  C   UNL     1      42.950 -10.873  -1.376  1.00  0.00     0.068 A 
HETATM   24  C   UNL     1      42.770 -12.125  -1.953  1.00  0.00     0.037 A 
HETATM   25  C   UNL     1      42.088 -13.128  -1.257  1.00  0.00     0.011 A 
BRANCH  23  26
HETATM   26  O   UNL     1      43.581  -9.936  -2.148  1.00  0.00    -0.356 OA
HETATM   27  C   UNL     1      43.344  -8.597  -1.717  1.00  0.00     0.210 C 
ENDBRANCH  23  26
ENDBRANCH  15  20
TORSDOF 2
ENDMDL
MODEL 7
REMARK VINA RESULT:      -8.0      3.672      8.072
REMARK  2 active torsions:
REMARK  status: ('A' for Active; 'I' for Inactive)
REMARK    1  A    between atoms: C_15  and  C_16 
REMARK    2  A    between atoms: C_19  and  O_20 
ROOT
HETATM    1  C   UNL     1      44.717 -21.860   1.875  1.00  0.00     0.048 C 
HETATM    2  C   UNL     1      44.246 -20.650   2.628  1.00  0.00    -0.061 A 
HETATM    3  C   UNL     1      43.179 -19.885   2.126  1.00  0.00     0.021 A 
HETATM    4  C   UNL     1      42.757 -18.732   2.816  1.00  0.00    -0.000 A 
HETATM    5  C   UNL     1      43.411 -18.384   4.003  1.00  0.00     0.043 A 
HETATM    6  N   UNL     1      42.799 -17.252   4.500  1.00  0.00    -0.353 N 
HETATM    7  H   UNL     1      43.059 -16.766   5.347  1.00  0.00     0.166 HD
HETATM    8  C   UNL     1      41.861 -16.825   3.612  1.00  0.00     0.066 A 
HETATM    9  C   UNL     1      41.770 -17.736   2.576  1.00  0.00    -0.017 A 
HETATM   10  C   UNL     1      40.806 -17.553   1.435  1.00  0.00     0.043 C 
HETATM   11  C   UNL     1      39.842 -16.347   1.668  1.00  0.00     0.018 C 
HETATM   12  C   UNL     1      40.594 -15.160   2.303  1.00  0.00     0.065 A 
HETATM   13  C   UNL     1      41.068 -15.646   3.637  1.00  0.00     0.082 A 
HETATM   14  N   UNL     1      40.609 -15.052   4.686  1.00  0.00    -0.203 NA
HETATM   15  C   UNL     1      39.782 -13.937   2.746  1.00  0.00     0.121 A 
HETATM   16  N   UNL     1      39.809 -14.059   4.220  1.00  0.00    -0.207 NA
HETATM   17  C   UNL     1      44.492 -19.113   4.508  1.00  0.00     0.031 A 
HETATM   18  C   UNL     1      44.903 -20.243   3.794  1.00  0.00     0.009 A 
HETATM   19  H   UNL     1      38.870 -14.103   4.619  1.00  0.00     0.149 HD
ENDROOT
BRANCH  15  20
HETATM   20  C   UNL     1      40.407 -12.619   2.283  1.00  0.00    -0.038 A 
HETATM   21  C   UNL     1      40.209 -11.428   3.004  1.00  0.00     0.011 A 
HETATM   22  C   UNL     1      40.687 -10.203   2.525  1.00  0.00     0.037 A 
HETATM   23  C   UNL     1      41.399 -10.153   1.329  1.00  0.00     0.068 A 
HETATM   24  C   UNL     1      41.698 -11.333   0.656  1.00  0.00     0.037 A 
HETATM   25  C   UNL     1      41.204 -12.554   1.126  1.00  0.00     0.011 A 
BRANCH  23  26
HETATM   26  O   UNL     1      41.879  -9.000   0.770  1.00  0.00    -0.356 OA
HETATM   27  C   UNL     1      41.593  -7.836   1.543  1.00  0.00     0.210 C 
ENDBRANCH  23  26
ENDBRANCH  15  20
TORSDOF 2
ENDMDL
MODEL 8
REMARK VINA RESULT:      -7.9      3.784      5.305
REMARK  2 active torsions:
REMARK  status: ('A' for Active; 'I' for Inactive)
REMARK    1  A    between atoms: C_15  and  C_16 
REMARK    2  A    between atoms: C_19  and  O_20 
ROOT
HETATM    1  C   UNL     1      39.271 -11.722   7.225  1.00  0.00     0.048 C 
HETATM    2  C   UNL     1      40.395 -12.326   6.433  1.00  0.00    -0.061 A 
HETATM    3  C   UNL     1      40.125 -13.340   5.497  1.00  0.00     0.021 A 
HETATM    4  C   UNL     1      41.182 -13.928   4.777  1.00  0.00    -0.000 A 
HETATM    5  C   UNL     1      42.485 -13.474   5.006  1.00  0.00     0.043 A 
HETATM    6  N   UNL     1      43.325 -14.174   4.166  1.00  0.00    -0.353 N 
HETATM    7  H   UNL     1      44.329 -14.063   4.111  1.00  0.00     0.166 HD
HETATM    8  C   UNL     1      42.606 -15.119   3.501  1.00  0.00     0.066 A 
HETATM    9  C   UNL     1      41.268 -14.973   3.816  1.00  0.00    -0.017 A 
HETATM   10  C   UNL     1      40.209 -15.865   3.226  1.00  0.00     0.043 C 
HETATM   11  C   UNL     1      40.783 -16.810   2.123  1.00  0.00     0.018 C 
HETATM   12  C   UNL     1      42.171 -17.345   2.529  1.00  0.00     0.065 A 
HETATM   13  C   UNL     1      43.058 -16.143   2.626  1.00  0.00     0.082 A 
HETATM   14  N   UNL     1      44.061 -16.075   1.817  1.00  0.00    -0.203 NA
HETATM   15  C   UNL     1      42.961 -18.169   1.507  1.00  0.00     0.121 A 
HETATM   16  N   UNL     1      44.029 -17.228   1.101  1.00  0.00    -0.207 NA
HETATM   17  C   UNL     1      42.782 -12.487   5.952  1.00  0.00     0.031 A 
HETATM   18  C   UNL     1      41.716 -11.931   6.666  1.00  0.00     0.009 A 
HETATM   19  H   UNL     1      44.026 -17.055   0.095  1.00  0.00     0.149 HD
ENDROOT
BRANCH  15  20
HETATM   20  C   UNL     1      43.546 -19.449   2.110  1.00  0.00    -0.038 A 
HETATM   21  C   UNL     1      43.356 -20.697   1.490  1.00  0.00     0.011 A 
HETATM   22  C   UNL     1      43.795 -21.881   2.096  1.00  0.00     0.037 A 
HETATM   23  C   UNL     1      44.458 -21.832   3.320  1.00  0.00     0.068 A 
HETATM   24  C   UNL     1      44.749 -20.601   3.897  1.00  0.00     0.037 A 
HETATM   25  C   UNL     1      44.295 -19.421   3.301  1.00  0.00     0.011 A 
BRANCH  23  26
HETATM   26  O   UNL     1      44.896 -22.937   3.998  1.00  0.00    -0.356 OA
HETATM   27  C   UNL     1      45.241 -22.666   5.355  1.00  0.00     0.210 C 
ENDBRANCH  23  26
ENDBRANCH  15  20
TORSDOF 2
ENDMDL
MODEL 9
REMARK VINA RESULT:      -7.6      3.979      6.212
REMARK  2 active torsions:
REMARK  status: ('A' for Active; 'I' for Inactive)
REMARK    1  A    between atoms: C_15  and  C_16 
REMARK    2  A    between atoms: C_19  and  O_20 
ROOT
HETATM    1  C   UNL     1      38.723 -10.454   9.052  1.00  0.00     0.048 C 
HETATM    2  C   UNL     1      39.854 -10.950   8.198  1.00  0.00    -0.061 A 
HETATM    3  C   UNL     1      39.621 -11.956   7.243  1.00  0.00     0.021 A 
HETATM    4  C   UNL     1      40.688 -12.443   6.463  1.00  0.00    -0.000 A 
HETATM    5  C   UNL     1      41.961 -11.897   6.653  1.00  0.00     0.043 A 
HETATM    6  N   UNL     1      42.815 -12.509   5.759  1.00  0.00    -0.353 N 
HETATM    7  H   UNL     1      43.804 -12.321   5.666  1.00  0.00     0.166 HD
HETATM    8  C   UNL     1      42.141 -13.487   5.096  1.00  0.00     0.066 A 
HETATM    9  C   UNL     1      40.810 -13.452   5.468  1.00  0.00    -0.017 A 
HETATM   10  C   UNL     1      39.796 -14.406   4.896  1.00  0.00     0.043 C 
HETATM   11  C   UNL     1      40.392 -15.274   3.743  1.00  0.00     0.018 C 
HETATM   12  C   UNL     1      41.832 -15.713   4.076  1.00  0.00     0.065 A 
HETATM   13  C   UNL     1      42.630 -14.451   4.172  1.00  0.00     0.082 A 
HETATM   14  N   UNL     1      43.589 -14.284   3.326  1.00  0.00    -0.203 NA
HETATM   15  C   UNL     1      42.637 -16.447   2.998  1.00  0.00     0.121 A 
HETATM   16  N   UNL     1      43.613 -15.417   2.577  1.00  0.00    -0.207 NA
HETATM   17  C   UNL     1      42.224 -10.917   7.615  1.00  0.00     0.031 A 
HETATM   18  C   UNL     1      41.150 -10.463   8.389  1.00  0.00     0.009 A 
HETATM   19  H   UNL     1      43.554 -15.218   1.578  1.00  0.00     0.149 HD
ENDROOT
BRANCH  15  20
HETATM   20  C   UNL     1      43.341 -17.695   3.538  1.00  0.00    -0.038 A 
HETATM   21  C   UNL     1      43.676 -18.765   2.690  1.00  0.00     0.011 A 
HETATM   22  C   UNL     1      44.219 -19.950   3.200  1.00  0.00     0.037 A 
HETATM   23  C   UNL     1      44.465 -20.073   4.565  1.00  0.00     0.068 A 
HETATM   24  C   UNL     1      44.240 -18.988   5.405  1.00  0.00     0.037 A 
HETATM   25  C   UNL     1      43.681 -17.811   4.899  1.00  0.00     0.011 A 
BRANCH  23  26
HETATM   26  O   UNL     1      44.965 -21.201   5.154  1.00  0.00    -0.356 OA
HETATM   27  C   UNL     1      44.727 -22.388   4.398  1.00  0.00     0.210 C 
ENDBRANCH  23  26
ENDBRANCH  15  20
TORSDOF 2
ENDMDL
MODEL 10
REMARK VINA RESULT:      -7.6      4.577      7.969
REMARK  2 active torsions:
REMARK  status: ('A' for Active; 'I' for Inactive)
REMARK    1  A    between atoms: C_15  and  C_16 
REMARK    2  A    between atoms: C_19  and  O_20 
ROOT
HETATM    1  C   UNL     1      44.728 -20.960   1.598  1.00  0.00     0.048 C 
HETATM    2  C   UNL     1      44.177 -20.054   2.662  1.00  0.00    -0.061 A 
HETATM    3  C   UNL     1      43.118 -19.181   2.358  1.00  0.00     0.021 A 
HETATM    4  C   UNL     1      42.622 -18.310   3.346  1.00  0.00    -0.000 A 
HETATM    5  C   UNL     1      43.195 -18.347   4.622  1.00  0.00     0.043 A 
HETATM    6  N   UNL     1      42.521 -17.435   5.409  1.00  0.00    -0.353 N 
HETATM    7  H   UNL     1      42.716 -17.239   6.381  1.00  0.00     0.166 HD
HETATM    8  C   UNL     1      41.623 -16.761   4.641  1.00  0.00     0.066 A 
HETATM    9  C   UNL     1      41.621 -17.300   3.368  1.00  0.00    -0.017 A 
HETATM   10  C   UNL     1      40.719 -16.776   2.282  1.00  0.00     0.043 C 
HETATM   11  C   UNL     1      39.707 -15.716   2.819  1.00  0.00     0.018 C 
HETATM   12  C   UNL     1      40.383 -14.781   3.843  1.00  0.00     0.065 A 
HETATM   13  C   UNL     1      40.794 -15.658   4.984  1.00  0.00     0.082 A 
HETATM   14  N   UNL     1      40.257 -15.431   6.135  1.00  0.00    -0.203 NA
HETATM   15  C   UNL     1      39.510 -13.770   4.593  1.00  0.00     0.121 A 
HETATM   16  N   UNL     1      39.455 -14.350   5.954  1.00  0.00    -0.207 NA
HETATM   17  C   UNL     1      44.267 -19.185   4.941  1.00  0.00     0.031 A 
HETATM   18  C   UNL     1      44.753 -20.028   3.936  1.00  0.00     0.009 A 
HETATM   19  H   UNL     1      38.496 -14.528   6.257  1.00  0.00     0.149 HD
ENDROOT
BRANCH  15  20
HETATM   20  C   UNL     1      40.120 -12.366   4.610  1.00  0.00    -0.038 A 
HETATM   21  C   UNL     1      40.112 -11.557   3.460  1.00  0.00     0.011 A 
HETATM   22  C   UNL     1      40.765 -10.319   3.441  1.00  0.00     0.037 A 
HETATM   23  C   UNL     1      41.412  -9.856   4.583  1.00  0.00     0.068 A 
HETATM   24  C   UNL     1      41.341 -10.592   5.761  1.00  0.00     0.037 A 
HETATM   25  C   UNL     1      40.705 -11.837   5.774  1.00  0.00     0.011 A 
BRANCH  23  26
HETATM   26  O   UNL     1      42.099  -8.675   4.649  1.00  0.00    -0.356 OA
HETATM   27  C   UNL     1      41.717  -7.859   5.755  1.00  0.00     0.210 C 
ENDBRANCH  23  26
ENDBRANCH  15  20
TORSDOF 2
ENDMDL
