MODEL 1
REMARK VINA RESULT:      -8.7      0.000      0.000
REMARK  5 active torsions:
REMARK  status: ('A' for Active; 'I' for Inactive)
REMARK    1  A    between atoms: C_7  and  C_8 
REMARK    2  A    between atoms: C_11  and  N_12 
REMARK       I    between atoms: N_12  and  C_13 
REMARK    3  A    between atoms: C_13  and  C_14 
REMARK    4  A    between atoms: C_16  and  O_17 
REMARK    5  A    between atoms: C_20  and  O_21 
ROOT
HETATM    1  C   UNL     1      43.707 -15.644   5.656  1.00  0.00     0.017 A 
HETATM    2  C   UNL     1      44.647 -15.420   6.668  1.00  0.00     0.018 A 
HETATM    3  C   UNL     1      44.579 -14.276   7.476  1.00  0.00     0.030 A 
HETATM    4  C   UNL     1      43.565 -13.336   7.291  1.00  0.00     0.035 A 
HETATM    5  C   UNL     1      42.652 -13.531   6.249  1.00  0.00     0.030 A 
HETATM    6  C   UNL     1      42.722 -14.671   5.441  1.00  0.00     0.018 A 
ENDROOT
BRANCH   4   7
HETATM    7  N   UNL     1      43.365 -12.214   8.121  1.00  0.00    -0.323 N 
HETATM    8  C   UNL     1      43.952 -11.970   9.349  1.00  0.00     0.256 C 
HETATM    9  O   UNL     1      44.825 -12.629   9.899  1.00  0.00    -0.267 OA
HETATM   10  H   UNL     1      42.612 -11.599   7.841  1.00  0.00     0.169 HD
BRANCH   8  11
HETATM   11  C   UNL     1      43.384 -10.805  10.079  1.00  0.00     0.037 A 
HETATM   12  C   UNL     1      43.829 -10.571  11.384  1.00  0.00     0.054 A 
HETATM   13  C   UNL     1      43.286  -9.534  12.139  1.00  0.00     0.071 A 
HETATM   14  C   UNL     1      42.310  -8.717  11.567  1.00  0.00     0.073 A 
HETATM   15  C   UNL     1      41.876  -8.928  10.251  1.00  0.00     0.071 A 
HETATM   16  C   UNL     1      42.415  -9.975   9.502  1.00  0.00     0.054 A 
BRANCH  13  17
HETATM   17  O   UNL     1      43.784  -9.428  13.407  1.00  0.00    -0.356 OA
HETATM   18  C   UNL     1      42.849  -9.166  14.447  1.00  0.00     0.210 C 
ENDBRANCH  13  17
BRANCH  15  19
HETATM   19  O   UNL     1      40.920  -8.047   9.823  1.00  0.00    -0.356 OA
HETATM   20  C   UNL     1      40.337  -8.283   8.548  1.00  0.00     0.210 C 
ENDBRANCH  15  19
ENDBRANCH   8  11
ENDBRANCH   4   7
BRANCH   1  21
HETATM   21  C   UNL     1      43.694 -16.871   4.863  1.00  0.00     0.180 A 
HETATM   22  O   UNL     1      42.985 -16.837   3.687  1.00  0.00    -0.289 OA
HETATM   23  C   UNL     1      43.231 -18.052   3.119  1.00  0.00     0.106 A 
HETATM   24  C   UNL     1      44.054 -18.761   3.975  1.00  0.00     0.094 A 
HETATM   25  C   UNL     1      42.770 -18.518   1.896  1.00  0.00     0.040 A 
HETATM   26  C   UNL     1      44.471 -20.048   3.607  1.00  0.00     0.041 A 
HETATM   27  N   UNL     1      44.333 -18.007   5.086  1.00  0.00    -0.221 NA
HETATM   28  C   UNL     1      44.038 -20.567   2.371  1.00  0.00    -0.060 A 
HETATM   29  C   UNL     1      44.482 -21.931   1.924  1.00  0.00     0.048 C 
HETATM   30  C   UNL     1      43.199 -19.803   1.536  1.00  0.00     0.009 A 
ENDBRANCH   1  21
TORSDOF 5
ENDMDL
MODEL 2
REMARK VINA RESULT:      -8.4      1.031      2.708
REMARK  5 active torsions:
REMARK  status: ('A' for Active; 'I' for Inactive)
REMARK    1  A    between atoms: C_7  and  C_8 
REMARK    2  A    between atoms: C_11  and  N_12 
REMARK       I    between atoms: N_12  and  C_13 
REMARK    3  A    between atoms: C_13  and  C_14 
REMARK    4  A    between atoms: C_16  and  O_17 
REMARK    5  A    between atoms: C_20  and  O_21 
ROOT
HETATM    1  C   UNL     1      43.857 -15.705   5.493  1.00  0.00     0.017 A 
HETATM    2  C   UNL     1      44.621 -15.400   6.626  1.00  0.00     0.018 A 
HETATM    3  C   UNL     1      44.392 -14.227   7.358  1.00  0.00     0.030 A 
HETATM    4  C   UNL     1      43.388 -13.337   6.974  1.00  0.00     0.035 A 
HETATM    5  C   UNL     1      42.654 -13.612   5.816  1.00  0.00     0.030 A 
HETATM    6  C   UNL     1      42.886 -14.781   5.083  1.00  0.00     0.018 A 
ENDROOT
BRANCH   4   7
HETATM    7  N   UNL     1      43.025 -12.189   7.709  1.00  0.00    -0.323 N 
HETATM    8  C   UNL     1      43.653 -11.686   8.834  1.00  0.00     0.256 C 
HETATM    9  O   UNL     1      44.693 -12.082   9.343  1.00  0.00    -0.267 OA
HETATM   10  H   UNL     1      42.135 -11.780   7.457  1.00  0.00     0.169 HD
BRANCH   8  11
HETATM   11  C   UNL     1      42.914 -10.585   9.507  1.00  0.00     0.037 A 
HETATM   12  C   UNL     1      41.876  -9.967   8.802  1.00  0.00     0.054 A 
HETATM   13  C   UNL     1      41.191  -8.889   9.358  1.00  0.00     0.071 A 
HETATM   14  C   UNL     1      41.537  -8.450  10.636  1.00  0.00     0.073 A 
HETATM   15  C   UNL     1      42.559  -9.080  11.361  1.00  0.00     0.071 A 
HETATM   16  C   UNL     1      43.249 -10.153  10.796  1.00  0.00     0.054 A 
BRANCH  13  17
HETATM   17  O   UNL     1      40.220  -8.355   8.557  1.00  0.00    -0.356 OA
HETATM   18  C   UNL     1      39.090  -9.173   8.281  1.00  0.00     0.210 C 
ENDBRANCH  13  17
BRANCH  15  19
HETATM   19  O   UNL     1      42.783  -8.546  12.601  1.00  0.00    -0.356 OA
HETATM   20  C   UNL     1      43.339  -9.403  13.591  1.00  0.00     0.210 C 
ENDBRANCH  15  19
ENDBRANCH   8  11
ENDBRANCH   4   7
BRANCH   1  21
HETATM   21  C   UNL     1      44.008 -16.963   4.768  1.00  0.00     0.180 A 
HETATM   22  O   UNL     1      44.551 -18.015   5.463  1.00  0.00    -0.289 OA
HETATM   23  C   UNL     1      44.474 -19.062   4.592  1.00  0.00     0.106 A 
HETATM   24  C   UNL     1      43.909 -18.595   3.419  1.00  0.00     0.094 A 
HETATM   25  C   UNL     1      44.865 -20.374   4.817  1.00  0.00     0.040 A 
HETATM   26  C   UNL     1      43.703 -19.492   2.361  1.00  0.00     0.041 A 
HETATM   27  N   UNL     1      43.626 -17.258   3.536  1.00  0.00    -0.221 NA
HETATM   28  C   UNL     1      44.075 -20.839   2.539  1.00  0.00    -0.060 A 
HETATM   29  C   UNL     1      43.847 -21.839   1.441  1.00  0.00     0.048 C 
HETATM   30  C   UNL     1      44.648 -21.261   3.754  1.00  0.00     0.009 A 
ENDBRANCH   1  21
TORSDOF 5
ENDMDL
MODEL 3
REMARK VINA RESULT:      -8.2      1.689     11.094
REMARK  5 active torsions:
REMARK  status: ('A' for Active; 'I' for Inactive)
REMARK    1  A    between atoms: C_7  and  C_8 
REMARK    2  A    between atoms: C_11  and  N_12 
REMARK       I    between atoms: N_12  and  C_13 
REMARK    3  A    between atoms: C_13  and  C_14 
REMARK    4  A    between atoms: C_16  and  O_17 
REMARK    5  A    between atoms: C_20  and  O_21 
ROOT
HETATM    1  C   UNL     1      43.474 -12.474   7.991  1.00  0.00     0.017 A 
HETATM    2  C   UNL     1      42.558 -12.380   6.936  1.00  0.00     0.018 A 
HETATM    3  C   UNL     1      42.572 -13.305   5.883  1.00  0.00     0.030 A 
HETATM    4  C   UNL     1      43.499 -14.347   5.867  1.00  0.00     0.035 A 
HETATM    5  C   UNL     1      44.448 -14.418   6.892  1.00  0.00     0.030 A 
HETATM    6  C   UNL     1      44.436 -13.492   7.942  1.00  0.00     0.018 A 
ENDROOT
BRANCH   4   7
HETATM    7  N   UNL     1      43.517 -15.375   4.902  1.00  0.00    -0.323 N 
HETATM    8  C   UNL     1      43.153 -16.697   5.084  1.00  0.00     0.256 C 
HETATM    9  O   UNL     1      42.656 -17.199   6.084  1.00  0.00    -0.267 OA
HETATM   10  H   UNL     1      43.973 -15.140   4.030  1.00  0.00     0.169 HD
BRANCH   8  11
HETATM   11  C   UNL     1      43.480 -17.587   3.938  1.00  0.00     0.037 A 
HETATM   12  C   UNL     1      43.199 -17.122   2.650  1.00  0.00     0.054 A 
HETATM   13  C   UNL     1      43.425 -17.937   1.542  1.00  0.00     0.071 A 
HETATM   14  C   UNL     1      43.959 -19.212   1.735  1.00  0.00     0.073 A 
HETATM   15  C   UNL     1      44.267 -19.676   3.021  1.00  0.00     0.071 A 
HETATM   16  C   UNL     1      44.030 -18.861   4.128  1.00  0.00     0.054 A 
BRANCH  13  17
HETATM   17  O   UNL     1      43.083 -17.379   0.343  1.00  0.00    -0.356 OA
HETATM   18  C   UNL     1      41.925 -16.554   0.323  1.00  0.00     0.210 C 
ENDBRANCH  13  17
BRANCH  15  19
HETATM   19  O   UNL     1      44.788 -20.941   3.055  1.00  0.00    -0.356 OA
HETATM   20  C   UNL     1      44.388 -21.840   2.029  1.00  0.00     0.210 C 
ENDBRANCH  15  19
ENDBRANCH   8  11
ENDBRANCH   4   7
BRANCH   1  21
HETATM   21  C   UNL     1      43.423 -11.585   9.149  1.00  0.00     0.180 A 
HETATM   22  O   UNL     1      42.555 -10.524   9.074  1.00  0.00    -0.289 OA
HETATM   23  C   UNL     1      42.638  -9.943  10.304  1.00  0.00     0.106 A 
HETATM   24  C   UNL     1      43.552 -10.662  11.052  1.00  0.00     0.094 A 
HETATM   25  C   UNL     1      41.932  -8.839  10.763  1.00  0.00     0.040 A 
HETATM   26  C   UNL     1      43.804 -10.272  12.375  1.00  0.00     0.041 A 
HETATM   27  N   UNL     1      44.055 -11.697  10.306  1.00  0.00    -0.221 NA
HETATM   28  C   UNL     1      43.109  -9.163  12.894  1.00  0.00    -0.060 A 
HETATM   29  C   UNL     1      43.328  -8.727  14.314  1.00  0.00     0.048 C 
HETATM   30  C   UNL     1      42.188  -8.464  12.089  1.00  0.00     0.009 A 
ENDBRANCH   1  21
TORSDOF 5
ENDMDL
MODEL 4
REMARK VINA RESULT:      -8.1      2.517      3.131
REMARK  5 active torsions:
REMARK  status: ('A' for Active; 'I' for Inactive)
REMARK    1  A    between atoms: C_7  and  C_8 
REMARK    2  A    between atoms: C_11  and  N_12 
REMARK       I    between atoms: N_12  and  C_13 
REMARK    3  A    between atoms: C_13  and  C_14 
REMARK    4  A    between atoms: C_16  and  O_17 
REMARK    5  A    between atoms: C_20  and  O_21 
ROOT
HETATM    1  C   UNL     1      42.338 -15.373   4.428  1.00  0.00     0.017 A 
HETATM    2  C   UNL     1      42.915 -14.146   4.078  1.00  0.00     0.018 A 
HETATM    3  C   UNL     1      42.423 -12.942   4.600  1.00  0.00     0.030 A 
HETATM    4  C   UNL     1      41.347 -12.941   5.488  1.00  0.00     0.035 A 
HETATM    5  C   UNL     1      40.735 -14.159   5.803  1.00  0.00     0.030 A 
HETATM    6  C   UNL     1      41.224 -15.361   5.279  1.00  0.00     0.018 A 
ENDROOT
BRANCH   4   7
HETATM    7  N   UNL     1      40.856 -11.788   6.136  1.00  0.00    -0.323 N 
HETATM    8  C   UNL     1      41.409 -11.147   7.229  1.00  0.00     0.256 C 
HETATM    9  O   UNL     1      42.475 -11.398   7.776  1.00  0.00    -0.267 OA
HETATM   10  H   UNL     1      39.934 -11.491   5.846  1.00  0.00     0.169 HD
BRANCH   8  11
HETATM   11  C   UNL     1      40.550 -10.083   7.814  1.00  0.00     0.037 A 
HETATM   12  C   UNL     1      40.609  -9.883   9.197  1.00  0.00     0.054 A 
HETATM   13  C   UNL     1      39.780  -8.945   9.809  1.00  0.00     0.071 A 
HETATM   14  C   UNL     1      38.911  -8.190   9.021  1.00  0.00     0.073 A 
HETATM   15  C   UNL     1      38.864  -8.365   7.631  1.00  0.00     0.071 A 
HETATM   16  C   UNL     1      39.688  -9.314   7.023  1.00  0.00     0.054 A 
BRANCH  13  17
HETATM   17  O   UNL     1      39.912  -8.866  11.167  1.00  0.00    -0.356 OA
HETATM   18  C   UNL     1      39.870 -10.090  11.891  1.00  0.00     0.210 C 
ENDBRANCH  13  17
BRANCH  15  19
HETATM   19  O   UNL     1      37.969  -7.553   6.990  1.00  0.00    -0.356 OA
HETATM   20  C   UNL     1      37.658  -7.863   5.637  1.00  0.00     0.210 C 
ENDBRANCH  15  19
ENDBRANCH   8  11
ENDBRANCH   4   7
BRANCH   1  21
HETATM   21  C   UNL     1      42.887 -16.649   3.978  1.00  0.00     0.180 A 
HETATM   22  O   UNL     1      43.643 -17.350   4.885  1.00  0.00    -0.289 OA
HETATM   23  C   UNL     1      43.928 -18.519   4.244  1.00  0.00     0.106 A 
HETATM   24  C   UNL     1      43.351 -18.465   2.988  1.00  0.00     0.094 A 
HETATM   25  C   UNL     1      44.648 -19.597   4.740  1.00  0.00     0.040 A 
HETATM   26  C   UNL     1      43.485 -19.566   2.131  1.00  0.00     0.041 A 
HETATM   27  N   UNL     1      42.701 -17.268   2.824  1.00  0.00    -0.221 NA
HETATM   28  C   UNL     1      44.200 -20.691   2.588  1.00  0.00    -0.060 A 
HETATM   29  C   UNL     1      44.346 -21.903   1.713  1.00  0.00     0.048 C 
HETATM   30  C   UNL     1      44.769 -20.694   3.876  1.00  0.00     0.009 A 
ENDBRANCH   1  21
TORSDOF 5
ENDMDL
MODEL 5
REMARK VINA RESULT:      -8.1      7.021     11.006
REMARK  5 active torsions:
REMARK  status: ('A' for Active; 'I' for Inactive)
REMARK    1  A    between atoms: C_7  and  C_8 
REMARK    2  A    between atoms: C_11  and  N_12 
REMARK       I    between atoms: N_12  and  C_13 
REMARK    3  A    between atoms: C_13  and  C_14 
REMARK    4  A    between atoms: C_16  and  O_17 
REMARK    5  A    between atoms: C_20  and  O_21 
ROOT
HETATM    1  C   UNL     1      39.700 -14.395  -0.176  1.00  0.00     0.017 A 
HETATM    2  C   UNL     1      40.876 -14.998  -0.641  1.00  0.00     0.018 A 
HETATM    3  C   UNL     1      41.616 -15.862   0.178  1.00  0.00     0.030 A 
HETATM    4  C   UNL     1      41.191 -16.147   1.476  1.00  0.00     0.035 A 
HETATM    5  C   UNL     1      40.044 -15.510   1.962  1.00  0.00     0.030 A 
HETATM    6  C   UNL     1      39.308 -14.644   1.146  1.00  0.00     0.018 A 
ENDROOT
BRANCH   4   7
HETATM    7  N   UNL     1      41.818 -17.080   2.327  1.00  0.00    -0.323 N 
HETATM    8  C   UNL     1      42.803 -16.824   3.264  1.00  0.00     0.256 C 
HETATM    9  O   UNL     1      43.243 -15.732   3.599  1.00  0.00    -0.267 OA
HETATM   10  H   UNL     1      41.615 -18.051   2.126  1.00  0.00     0.169 HD
BRANCH   8  11
HETATM   11  C   UNL     1      43.415 -18.042   3.858  1.00  0.00     0.037 A 
HETATM   12  C   UNL     1      43.989 -18.975   2.989  1.00  0.00     0.054 A 
HETATM   13  C   UNL     1      44.521 -20.165   3.484  1.00  0.00     0.071 A 
HETATM   14  C   UNL     1      44.495 -20.400   4.859  1.00  0.00     0.073 A 
HETATM   15  C   UNL     1      43.944 -19.459   5.740  1.00  0.00     0.071 A 
HETATM   16  C   UNL     1      43.404 -18.273   5.240  1.00  0.00     0.054 A 
BRANCH  13  17
HETATM   17  O   UNL     1      45.025 -21.005   2.532  1.00  0.00    -0.356 OA
HETATM   18  C   UNL     1      44.094 -21.829   1.841  1.00  0.00     0.210 C 
ENDBRANCH  13  17
BRANCH  15  19
HETATM   19  O   UNL     1      43.994 -19.822   7.058  1.00  0.00    -0.356 OA
HETATM   20  C   UNL     1      43.576 -21.141   7.388  1.00  0.00     0.210 C 
ENDBRANCH  15  19
ENDBRANCH   8  11
ENDBRANCH   4   7
BRANCH   1  21
HETATM   21  C   UNL     1      38.857 -13.567  -1.035  1.00  0.00     0.180 A 
HETATM   22  O   UNL     1      38.459 -14.121  -2.227  1.00  0.00    -0.289 OA
HETATM   23  C   UNL     1      37.618 -13.189  -2.759  1.00  0.00     0.106 A 
HETATM   24  C   UNL     1      37.559 -12.122  -1.881  1.00  0.00     0.094 A 
HETATM   25  C   UNL     1      36.916 -13.273  -3.953  1.00  0.00     0.040 A 
HETATM   26  C   UNL     1      36.737 -11.030  -2.194  1.00  0.00     0.041 A 
HETATM   27  N   UNL     1      38.359 -12.366  -0.794  1.00  0.00    -0.221 NA
HETATM   28  C   UNL     1      35.996 -11.067  -3.391  1.00  0.00    -0.060 A 
HETATM   29  C   UNL     1      35.082  -9.931  -3.752  1.00  0.00     0.048 C 
HETATM   30  C   UNL     1      36.093 -12.179  -4.251  1.00  0.00     0.009 A 
ENDBRANCH   1  21
TORSDOF 5
ENDMDL
MODEL 6
REMARK VINA RESULT:      -8.1      3.178      4.305
REMARK  5 active torsions:
REMARK  status: ('A' for Active; 'I' for Inactive)
REMARK    1  A    between atoms: C_7  and  C_8 
REMARK    2  A    between atoms: C_11  and  N_12 
REMARK       I    between atoms: N_12  and  C_13 
REMARK    3  A    between atoms: C_13  and  C_14 
REMARK    4  A    between atoms: C_16  and  O_17 
REMARK    5  A    between atoms: C_20  and  O_21 
ROOT
HETATM    1  C   UNL     1      42.812 -15.361   4.607  1.00  0.00     0.017 A 
HETATM    2  C   UNL     1      43.521 -14.696   5.615  1.00  0.00     0.018 A 
HETATM    3  C   UNL     1      43.044 -13.496   6.160  1.00  0.00     0.030 A 
HETATM    4  C   UNL     1      41.845 -12.941   5.713  1.00  0.00     0.035 A 
HETATM    5  C   UNL     1      41.158 -13.575   4.673  1.00  0.00     0.030 A 
HETATM    6  C   UNL     1      41.636 -14.771   4.126  1.00  0.00     0.018 A 
ENDROOT
BRANCH   4   7
HETATM    7  N   UNL     1      41.245 -11.795   6.276  1.00  0.00    -0.323 N 
HETATM    8  C   UNL     1      40.027 -11.726   6.927  1.00  0.00     0.256 C 
HETATM    9  O   UNL     1      39.290 -12.658   7.224  1.00  0.00    -0.267 OA
HETATM   10  H   UNL     1      41.698 -10.918   6.054  1.00  0.00     0.169 HD
BRANCH   8  11
HETATM   11  C   UNL     1      39.567 -10.343   7.223  1.00  0.00     0.037 A 
HETATM   12  C   UNL     1      39.572  -9.415   6.177  1.00  0.00     0.054 A 
HETATM   13  C   UNL     1      39.212  -8.089   6.410  1.00  0.00     0.071 A 
HETATM   14  C   UNL     1      38.824  -7.707   7.695  1.00  0.00     0.073 A 
HETATM   15  C   UNL     1      38.791  -8.636   8.744  1.00  0.00     0.071 A 
HETATM   16  C   UNL     1      39.162  -9.961   8.508  1.00  0.00     0.054 A 
BRANCH  13  17
HETATM   17  O   UNL     1      39.287  -7.276   5.315  1.00  0.00    -0.356 OA
HETATM   18  C   UNL     1      38.380  -7.542   4.252  1.00  0.00     0.210 C 
ENDBRANCH  13  17
BRANCH  15  19
HETATM   19  O   UNL     1      38.385  -8.119   9.944  1.00  0.00    -0.356 OA
HETATM   20  C   UNL     1      38.076  -9.041  10.982  1.00  0.00     0.210 C 
ENDBRANCH  15  19
ENDBRANCH   8  11
ENDBRANCH   4   7
BRANCH   1  21
HETATM   21  C   UNL     1      43.232 -16.660   4.087  1.00  0.00     0.180 A 
HETATM   22  O   UNL     1      43.946 -17.465   4.941  1.00  0.00    -0.289 OA
HETATM   23  C   UNL     1      44.107 -18.625   4.243  1.00  0.00     0.106 A 
HETATM   24  C   UNL     1      43.504 -18.464   3.008  1.00  0.00     0.094 A 
HETATM   25  C   UNL     1      44.739 -19.784   4.671  1.00  0.00     0.040 A 
HETATM   26  C   UNL     1      43.516 -19.534   2.102  1.00  0.00     0.041 A 
HETATM   27  N   UNL     1      42.961 -17.208   2.914  1.00  0.00    -0.221 NA
HETATM   28  C   UNL     1      44.138 -20.737   2.489  1.00  0.00    -0.060 A 
HETATM   29  C   UNL     1      44.151 -21.916   1.560  1.00  0.00     0.048 C 
HETATM   30  C   UNL     1      44.739 -20.847   3.759  1.00  0.00     0.009 A 
ENDBRANCH   1  21
TORSDOF 5
ENDMDL
MODEL 7
REMARK VINA RESULT:      -8.0      6.397     10.640
REMARK  5 active torsions:
REMARK  status: ('A' for Active; 'I' for Inactive)
REMARK    1  A    between atoms: C_7  and  C_8 
REMARK    2  A    between atoms: C_11  and  N_12 
REMARK       I    between atoms: N_12  and  C_13 
REMARK    3  A    between atoms: C_13  and  C_14 
REMARK    4  A    between atoms: C_16  and  O_17 
REMARK    5  A    between atoms: C_20  and  O_21 
ROOT
HETATM    1  C   UNL     1      39.724 -14.470  -0.089  1.00  0.00     0.017 A 
HETATM    2  C   UNL     1      40.935 -15.029  -0.517  1.00  0.00     0.018 A 
HETATM    3  C   UNL     1      41.668 -15.887   0.314  1.00  0.00     0.030 A 
HETATM    4  C   UNL     1      41.201 -16.210   1.588  1.00  0.00     0.035 A 
HETATM    5  C   UNL     1      40.018 -15.617   2.040  1.00  0.00     0.030 A 
HETATM    6  C   UNL     1      39.288 -14.757   1.212  1.00  0.00     0.018 A 
ENDROOT
BRANCH   4   7
HETATM    7  N   UNL     1      41.822 -17.141   2.447  1.00  0.00    -0.323 N 
HETATM    8  C   UNL     1      42.874 -16.904   3.313  1.00  0.00     0.256 C 
HETATM    9  O   UNL     1      43.396 -15.827   3.570  1.00  0.00    -0.267 OA
HETATM   10  H   UNL     1      41.552 -18.105   2.305  1.00  0.00     0.169 HD
BRANCH   8  11
HETATM   11  C   UNL     1      43.448 -18.129   3.930  1.00  0.00     0.037 A 
HETATM   12  C   UNL     1      43.665 -18.126   5.311  1.00  0.00     0.054 A 
HETATM   13  C   UNL     1      44.259 -19.222   5.934  1.00  0.00     0.071 A 
HETATM   14  C   UNL     1      44.611 -20.331   5.164  1.00  0.00     0.073 A 
HETATM   15  C   UNL     1      44.373 -20.354   3.783  1.00  0.00     0.071 A 
HETATM   16  C   UNL     1      43.788 -19.250   3.162  1.00  0.00     0.054 A 
BRANCH  13  17
HETATM   17  O   UNL     1      44.443 -19.083   7.281  1.00  0.00    -0.356 OA
HETATM   18  C   UNL     1      43.752 -18.017   7.919  1.00  0.00     0.210 C 
ENDBRANCH  13  17
BRANCH  15  19
HETATM   19  O   UNL     1      44.765 -21.509   3.162  1.00  0.00    -0.356 OA
HETATM   20  C   UNL     1      44.210 -21.782   1.881  1.00  0.00     0.210 C 
ENDBRANCH  15  19
ENDBRANCH   8  11
ENDBRANCH   4   7
BRANCH   1  21
HETATM   21  C   UNL     1      38.891 -13.651  -0.965  1.00  0.00     0.180 A 
HETATM   22  O   UNL     1      38.499 -14.219  -2.152  1.00  0.00    -0.289 OA
HETATM   23  C   UNL     1      37.666 -13.291  -2.703  1.00  0.00     0.106 A 
HETATM   24  C   UNL     1      37.606 -12.211  -1.841  1.00  0.00     0.094 A 
HETATM   25  C   UNL     1      36.972 -13.389  -3.901  1.00  0.00     0.040 A 
HETATM   26  C   UNL     1      36.791 -11.120  -2.174  1.00  0.00     0.041 A 
HETATM   27  N   UNL     1      38.397 -12.444  -0.745  1.00  0.00    -0.221 NA
HETATM   28  C   UNL     1      36.058 -11.171  -3.376  1.00  0.00    -0.060 A 
HETATM   29  C   UNL     1      35.153 -10.035  -3.760  1.00  0.00     0.048 C 
HETATM   30  C   UNL     1      36.156 -12.295  -4.219  1.00  0.00     0.009 A 
ENDBRANCH   1  21
TORSDOF 5
ENDMDL
MODEL 8
REMARK VINA RESULT:      -8.0      6.584     10.797
REMARK  5 active torsions:
REMARK  status: ('A' for Active; 'I' for Inactive)
REMARK    1  A    between atoms: C_7  and  C_8 
REMARK    2  A    between atoms: C_11  and  N_12 
REMARK       I    between atoms: N_12  and  C_13 
REMARK    3  A    between atoms: C_13  and  C_14 
REMARK    4  A    between atoms: C_16  and  O_17 
REMARK    5  A    between atoms: C_20  and  O_21 
ROOT
HETATM    1  C   UNL     1      41.287 -13.995  -0.843  1.00  0.00     0.017 A 
HETATM    2  C   UNL     1      41.725 -13.609   0.429  1.00  0.00     0.018 A 
HETATM    3  C   UNL     1      42.100 -14.564   1.384  1.00  0.00     0.030 A 
HETATM    4  C   UNL     1      42.051 -15.925   1.083  1.00  0.00     0.035 A 
HETATM    5  C   UNL     1      41.568 -16.319  -0.170  1.00  0.00     0.030 A 
HETATM    6  C   UNL     1      41.190 -15.366  -1.122  1.00  0.00     0.018 A 
ENDROOT
BRANCH   4   7
HETATM    7  N   UNL     1      42.505 -16.944   1.947  1.00  0.00    -0.323 N 
HETATM    8  C   UNL     1      42.027 -17.240   3.210  1.00  0.00     0.256 C 
HETATM    9  O   UNL     1      41.062 -16.741   3.775  1.00  0.00    -0.267 OA
HETATM   10  H   UNL     1      43.355 -17.409   1.656  1.00  0.00     0.169 HD
BRANCH   8  11
HETATM   11  C   UNL     1      42.846 -18.231   3.958  1.00  0.00     0.037 A 
HETATM   12  C   UNL     1      43.620 -19.130   3.219  1.00  0.00     0.054 A 
HETATM   13  C   UNL     1      44.358 -20.121   3.864  1.00  0.00     0.071 A 
HETATM   14  C   UNL     1      44.332 -20.187   5.258  1.00  0.00     0.073 A 
HETATM   15  C   UNL     1      43.579 -19.274   6.008  1.00  0.00     0.071 A 
HETATM   16  C   UNL     1      42.834 -18.289   5.358  1.00  0.00     0.054 A 
BRANCH  13  17
HETATM   17  O   UNL     1      45.048 -20.954   3.029  1.00  0.00    -0.356 OA
HETATM   18  C   UNL     1      44.283 -21.869   2.255  1.00  0.00     0.210 C 
ENDBRANCH  13  17
BRANCH  15  19
HETATM   19  O   UNL     1      43.655 -19.457   7.362  1.00  0.00    -0.356 OA
HETATM   20  C   UNL     1      43.989 -18.327   8.157  1.00  0.00     0.210 C 
ENDBRANCH  15  19
ENDBRANCH   8  11
ENDBRANCH   4   7
BRANCH   1  21
HETATM   21  C   UNL     1      40.981 -13.024  -1.890  1.00  0.00     0.180 A 
HETATM   22  O   UNL     1      42.043 -12.550  -2.622  1.00  0.00    -0.289 OA
HETATM   23  C   UNL     1      41.464 -11.762  -3.572  1.00  0.00     0.106 A 
HETATM   24  C   UNL     1      40.097 -11.783  -3.364  1.00  0.00     0.094 A 
HETATM   25  C   UNL     1      42.100 -11.066  -4.590  1.00  0.00     0.040 A 
HETATM   26  C   UNL     1      39.267 -11.059  -4.230  1.00  0.00     0.041 A 
HETATM   27  N   UNL     1      39.800 -12.578  -2.286  1.00  0.00    -0.221 NA
HETATM   28  C   UNL     1      39.860 -10.339  -5.286  1.00  0.00    -0.060 A 
HETATM   29  C   UNL     1      39.006  -9.571  -6.253  1.00  0.00     0.048 C 
HETATM   30  C   UNL     1      41.259 -10.351  -5.453  1.00  0.00     0.009 A 
ENDBRANCH   1  21
TORSDOF 5
ENDMDL
MODEL 9
REMARK VINA RESULT:      -7.8      6.411     10.569
REMARK  5 active torsions:
REMARK  status: ('A' for Active; 'I' for Inactive)
REMARK    1  A    between atoms: C_7  and  C_8 
REMARK    2  A    between atoms: C_11  and  N_12 
REMARK       I    between atoms: N_12  and  C_13 
REMARK    3  A    between atoms: C_13  and  C_14 
REMARK    4  A    between atoms: C_16  and  O_17 
REMARK    5  A    between atoms: C_20  and  O_21 
ROOT
HETATM    1  C   UNL     1      41.375 -13.607  -0.631  1.00  0.00     0.017 A 
HETATM    2  C   UNL     1      41.805 -13.104   0.603  1.00  0.00     0.018 A 
HETATM    3  C   UNL     1      42.174 -13.965   1.645  1.00  0.00     0.030 A 
HETATM    4  C   UNL     1      42.126 -15.348   1.472  1.00  0.00     0.035 A 
HETATM    5  C   UNL     1      41.651 -15.858   0.260  1.00  0.00     0.030 A 
HETATM    6  C   UNL     1      41.279 -14.998  -0.780  1.00  0.00     0.018 A 
ENDROOT
BRANCH   4   7
HETATM    7  N   UNL     1      42.574 -16.282   2.431  1.00  0.00    -0.323 N 
HETATM    8  C   UNL     1      43.688 -17.097   2.344  1.00  0.00     0.256 C 
HETATM    9  O   UNL     1      44.544 -17.093   1.469  1.00  0.00    -0.267 OA
HETATM   10  H   UNL     1      41.932 -16.460   3.192  1.00  0.00     0.169 HD
BRANCH   8  11
HETATM   11  C   UNL     1      43.781 -18.123   3.416  1.00  0.00     0.037 A 
HETATM   12  C   UNL     1      43.318 -17.781   4.690  1.00  0.00     0.054 A 
HETATM   13  C   UNL     1      43.439 -18.680   5.749  1.00  0.00     0.071 A 
HETATM   14  C   UNL     1      44.004 -19.934   5.513  1.00  0.00     0.073 A 
HETATM   15  C   UNL     1      44.447 -20.295   4.233  1.00  0.00     0.071 A 
HETATM   16  C   UNL     1      44.334 -19.388   3.179  1.00  0.00     0.054 A 
BRANCH  13  17
HETATM   17  O   UNL     1      42.977 -18.215   6.948  1.00  0.00    -0.356 OA
HETATM   18  C   UNL     1      42.937 -16.804   7.120  1.00  0.00     0.210 C 
ENDBRANCH  13  17
BRANCH  15  19
HETATM   19  O   UNL     1      44.972 -21.556   4.153  1.00  0.00    -0.356 OA
HETATM   20  C   UNL     1      44.997 -22.331   5.345  1.00  0.00     0.210 C 
ENDBRANCH  15  19
ENDBRANCH   8  11
ENDBRANCH   4   7
BRANCH   1  21
HETATM   21  C   UNL     1      41.076 -12.738  -1.766  1.00  0.00     0.180 A 
HETATM   22  O   UNL     1      42.145 -12.315  -2.517  1.00  0.00    -0.289 OA
HETATM   23  C   UNL     1      41.574 -11.624  -3.544  1.00  0.00     0.106 A 
HETATM   24  C   UNL     1      40.203 -11.648  -3.360  1.00  0.00     0.094 A 
HETATM   25  C   UNL     1      42.220 -11.012  -4.609  1.00  0.00     0.040 A 
HETATM   26  C   UNL     1      39.380 -11.017  -4.303  1.00  0.00     0.041 A 
HETATM   27  N   UNL     1      39.897 -12.348  -2.221  1.00  0.00    -0.221 NA
HETATM   28  C   UNL     1      39.984 -10.385  -5.408  1.00  0.00    -0.060 A 
HETATM   29  C   UNL     1      39.138  -9.720  -6.456  1.00  0.00     0.048 C 
HETATM   30  C   UNL     1      41.386 -10.390  -5.548  1.00  0.00     0.009 A 
ENDBRANCH   1  21
TORSDOF 5
ENDMDL
MODEL 10
REMARK VINA RESULT:      -7.7      7.367      9.089
REMARK  5 active torsions:
REMARK  status: ('A' for Active; 'I' for Inactive)
REMARK    1  A    between atoms: C_7  and  C_8 
REMARK    2  A    between atoms: C_11  and  N_12 
REMARK       I    between atoms: N_12  and  C_13 
REMARK    3  A    between atoms: C_13  and  C_14 
REMARK    4  A    between atoms: C_16  and  O_17 
REMARK    5  A    between atoms: C_20  and  O_21 
ROOT
HETATM    1  C   UNL     1      42.433 -16.660   1.596  1.00  0.00     0.017 A 
HETATM    2  C   UNL     1      41.768 -16.642   0.365  1.00  0.00     0.018 A 
HETATM    3  C   UNL     1      41.413 -15.431  -0.246  1.00  0.00     0.030 A 
HETATM    4  C   UNL     1      41.722 -14.214   0.361  1.00  0.00     0.035 A 
HETATM    5  C   UNL     1      42.343 -14.226   1.614  1.00  0.00     0.030 A 
HETATM    6  C   UNL     1      42.694 -15.435   2.225  1.00  0.00     0.018 A 
ENDROOT
BRANCH   4   7
HETATM    7  N   UNL     1      41.492 -12.954  -0.231  1.00  0.00    -0.323 N 
HETATM    8  C   UNL     1      42.104 -12.438  -1.358  1.00  0.00     0.256 C 
HETATM    9  O   UNL     1      42.884 -13.012  -2.108  1.00  0.00    -0.267 OA
HETATM   10  H   UNL     1      40.920 -12.321   0.312  1.00  0.00     0.169 HD
BRANCH   8  11
HETATM   11  C   UNL     1      41.808 -11.003  -1.615  1.00  0.00     0.037 A 
HETATM   12  C   UNL     1      40.888 -10.366  -0.776  1.00  0.00     0.054 A 
HETATM   13  C   UNL     1      40.524  -9.041  -1.007  1.00  0.00     0.071 A 
HETATM   14  C   UNL     1      41.108  -8.352  -2.071  1.00  0.00     0.073 A 
HETATM   15  C   UNL     1      42.050  -8.975  -2.901  1.00  0.00     0.071 A 
HETATM   16  C   UNL     1      42.404 -10.305  -2.672  1.00  0.00     0.054 A 
BRANCH  13  17
HETATM   17  O   UNL     1      39.596  -8.544  -0.136  1.00  0.00    -0.356 OA
HETATM   18  C   UNL     1      39.145  -9.416   0.893  1.00  0.00     0.210 C 
ENDBRANCH  13  17
BRANCH  15  19
HETATM   19  O   UNL     1      42.541  -8.176  -3.897  1.00  0.00    -0.356 OA
HETATM   20  C   UNL     1      42.425  -8.650  -5.233  1.00  0.00     0.210 C 
ENDBRANCH  15  19
ENDBRANCH   8  11
ENDBRANCH   4   7
BRANCH   1  21
HETATM   21  C   UNL     1      42.901 -17.900   2.211  1.00  0.00     0.180 A 
HETATM   22  O   UNL     1      42.924 -19.015   1.409  1.00  0.00    -0.289 OA
HETATM   23  C   UNL     1      43.490 -19.975   2.195  1.00  0.00     0.106 A 
HETATM   24  C   UNL     1      43.765 -19.406   3.426  1.00  0.00     0.094 A 
HETATM   25  C   UNL     1      43.771 -21.289   1.848  1.00  0.00     0.040 A 
HETATM   26  C   UNL     1      44.374 -20.191   4.415  1.00  0.00     0.041 A 
HETATM   27  N   UNL     1      43.377 -18.091   3.430  1.00  0.00    -0.221 NA
HETATM   28  C   UNL     1      44.688 -21.530   4.113  1.00  0.00    -0.060 A 
HETATM   29  C   UNL     1      45.365 -22.399   5.135  1.00  0.00     0.048 C 
HETATM   30  C   UNL     1      44.386 -22.060   2.844  1.00  0.00     0.009 A 
ENDBRANCH   1  21
TORSDOF 5
ENDMDL
