MODEL 1
REMARK VINA RESULT:      -7.6      0.000      0.000
REMARK  2 active torsions:
REMARK  status: ('A' for Active; 'I' for Inactive)
REMARK    1  A    between atoms: C_6  and  C_7 
REMARK    2  A    between atoms: C_7  and  N_8 
ROOT
HETATM    1  N   UNL     1      43.302 -17.208   3.038  1.00  0.00    -0.203 NA
HETATM    2  S   UNL     1      41.633 -17.220   3.358  1.00  0.00     0.219 S 
HETATM    3  O   UNL     1      41.395 -17.988   4.553  1.00  0.00    -0.211 OA
HETATM    4  O   UNL     1      40.933 -17.447   2.113  1.00  0.00    -0.211 OA
HETATM    5  C   UNL     1      41.467 -15.473   3.689  1.00  0.00     0.164 C 
HETATM    6  C   UNL     1      42.889 -14.939   3.760  1.00  0.00     0.116 C 
HETATM    7  O   UNL     1      43.197 -14.987   5.172  1.00  0.00    -0.369 OA
HETATM    8  C   UNL     1      42.008 -14.466   5.806  1.00  0.00     0.149 C 
HETATM    9  C   UNL     1      42.041 -12.933   5.625  1.00  0.00     0.264 C 
HETATM   10  N   UNL     1      42.067 -12.584   4.146  1.00  0.00    -0.070 N 
HETATM   11  H   UNL     1      41.112 -12.624   3.763  1.00  0.00     0.277 HD
HETATM   12  H   UNL     1      42.355 -11.599   4.047  1.00  0.00     0.277 HD
HETATM   13  C   UNL     1      43.008 -13.459   3.335  1.00  0.00     0.273 C 
HETATM   14  C   UNL     1      43.817 -15.829   2.924  1.00  0.00     0.148 C 
HETATM   15  C   UNL     1      40.859 -15.127   5.042  1.00  0.00     0.058 C 
ENDROOT
BRANCH   1  16
HETATM   16  C   UNL     1      43.768 -18.105   1.950  1.00  0.00     0.145 C 
BRANCH  16  17
HETATM   17  C   UNL     1      43.941 -19.548   2.346  1.00  0.00    -0.043 A 
HETATM   18  C   UNL     1      44.331 -19.888   3.648  1.00  0.00     0.032 A 
HETATM   19  C   UNL     1      44.538 -21.224   3.992  1.00  0.00     0.034 A 
HETATM   20  C   UNL     1      44.357 -22.234   3.050  1.00  0.00     0.024 A 
HETATM   21 CL   UNL     1      45.036 -21.625   5.590  1.00  0.00    -0.084 Cl
HETATM   22  C   UNL     1      43.958 -21.907   1.755  1.00  0.00     0.002 A 
HETATM   23  C   UNL     1      43.750 -20.572   1.405  1.00  0.00     0.008 A 
ENDBRANCH  16  17
ENDBRANCH   1  16
TORSDOF 2
ENDMDL
MODEL 2
REMARK VINA RESULT:      -7.5      1.484      1.938
REMARK  2 active torsions:
REMARK  status: ('A' for Active; 'I' for Inactive)
REMARK    1  A    between atoms: C_6  and  C_7 
REMARK    2  A    between atoms: C_7  and  N_8 
ROOT
HETATM    1  N   UNL     1      42.832 -16.112   3.428  1.00  0.00    -0.203 NA
HETATM    2  S   UNL     1      41.186 -16.441   3.697  1.00  0.00     0.219 S 
HETATM    3  O   UNL     1      41.050 -17.138   4.950  1.00  0.00    -0.211 OA
HETATM    4  O   UNL     1      40.607 -16.910   2.457  1.00  0.00    -0.211 OA
HETATM    5  C   UNL     1      40.655 -14.744   3.861  1.00  0.00     0.164 C 
HETATM    6  C   UNL     1      41.934 -13.925   3.926  1.00  0.00     0.116 C 
HETATM    7  O   UNL     1      42.176 -13.790   5.345  1.00  0.00    -0.369 OA
HETATM    8  C   UNL     1      40.877 -13.474   5.891  1.00  0.00     0.149 C 
HETATM    9  C   UNL     1      40.608 -11.988   5.572  1.00  0.00     0.264 C 
HETATM   10  N   UNL     1      40.635 -11.765   4.068  1.00  0.00    -0.070 N 
HETATM   11  H   UNL     1      39.727 -12.033   3.662  1.00  0.00     0.277 HD
HETATM   12  H   UNL     1      40.722 -10.754   3.889  1.00  0.00     0.277 HD
HETATM   13  C   UNL     1      41.771 -12.493   3.371  1.00  0.00     0.273 C 
HETATM   14  C   UNL     1      43.062 -14.672   3.204  1.00  0.00     0.148 C 
HETATM   15  C   UNL     1      39.923 -14.419   5.156  1.00  0.00     0.058 C 
ENDROOT
BRANCH   1  16
HETATM   16  C   UNL     1      43.522 -16.982   2.442  1.00  0.00     0.145 C 
BRANCH  16  17
HETATM   17  C   UNL     1      43.936 -18.333   2.965  1.00  0.00    -0.043 A 
HETATM   18  C   UNL     1      43.955 -19.450   2.118  1.00  0.00     0.032 A 
HETATM   19  C   UNL     1      44.290 -20.707   2.623  1.00  0.00     0.034 A 
HETATM   20  C   UNL     1      44.612 -20.867   3.968  1.00  0.00     0.024 A 
HETATM   21 CL   UNL     1      44.290 -22.072   1.575  1.00  0.00    -0.084 Cl
HETATM   22  C   UNL     1      44.607 -19.760   4.816  1.00  0.00     0.002 A 
HETATM   23  C   UNL     1      44.272 -18.500   4.318  1.00  0.00     0.008 A 
ENDBRANCH  16  17
ENDBRANCH   1  16
TORSDOF 2
ENDMDL
MODEL 3
REMARK VINA RESULT:      -7.4      2.146      3.313
REMARK  2 active torsions:
REMARK  status: ('A' for Active; 'I' for Inactive)
REMARK    1  A    between atoms: C_6  and  C_7 
REMARK    2  A    between atoms: C_7  and  N_8 
ROOT
HETATM    1  N   UNL     1      42.703 -15.624   4.627  1.00  0.00    -0.203 NA
HETATM    2  S   UNL     1      43.450 -14.100   4.527  1.00  0.00     0.219 S 
HETATM    3  O   UNL     1      43.915 -13.899   3.179  1.00  0.00    -0.211 OA
HETATM    4  O   UNL     1      44.287 -13.927   5.694  1.00  0.00    -0.211 OA
HETATM    5  C   UNL     1      41.986 -13.126   4.839  1.00  0.00     0.164 C 
HETATM    6  C   UNL     1      40.828 -14.108   4.784  1.00  0.00     0.116 C 
HETATM    7  O   UNL     1      40.371 -14.014   3.416  1.00  0.00    -0.369 OA
HETATM    8  C   UNL     1      40.360 -12.595   3.149  1.00  0.00     0.149 C 
HETATM    9  C   UNL     1      39.104 -12.020   3.839  1.00  0.00     0.264 C 
HETATM   10  N   UNL     1      39.162 -12.293   5.334  1.00  0.00    -0.070 N 
HETATM   11  H   UNL     1      39.756 -11.588   5.793  1.00  0.00     0.277 HD
HETATM   12  H   UNL     1      38.220 -12.150   5.729  1.00  0.00     0.277 HD
HETATM   13  C   UNL     1      39.634 -13.696   5.674  1.00  0.00     0.273 C 
HETATM   14  C   UNL     1      41.325 -15.513   5.145  1.00  0.00     0.148 C 
HETATM   15  C   UNL     1      41.662 -12.088   3.773  1.00  0.00     0.058 C 
ENDROOT
BRANCH   1  16
HETATM   16  C   UNL     1      43.494 -16.701   5.275  1.00  0.00     0.145 C 
BRANCH  16  17
HETATM   17  C   UNL     1      43.791 -17.888   4.397  1.00  0.00    -0.043 A 
HETATM   18  C   UNL     1      44.224 -19.098   4.957  1.00  0.00     0.032 A 
HETATM   19  C   UNL     1      44.547 -20.176   4.132  1.00  0.00     0.034 A 
HETATM   20  C   UNL     1      44.441 -20.066   2.748  1.00  0.00     0.024 A 
HETATM   21 CL   UNL     1      45.094 -21.650   4.834  1.00  0.00    -0.084 Cl
HETATM   22  C   UNL     1      44.001 -18.871   2.182  1.00  0.00     0.002 A 
HETATM   23  C   UNL     1      43.677 -17.788   3.001  1.00  0.00     0.008 A 
ENDBRANCH  16  17
ENDBRANCH   1  16
TORSDOF 2
ENDMDL
MODEL 4
REMARK VINA RESULT:      -7.3      1.898      2.518
REMARK  2 active torsions:
REMARK  status: ('A' for Active; 'I' for Inactive)
REMARK    1  A    between atoms: C_6  and  C_7 
REMARK    2  A    between atoms: C_7  and  N_8 
ROOT
HETATM    1  N   UNL     1      43.689 -17.763   5.125  1.00  0.00    -0.203 NA
HETATM    2  S   UNL     1      42.985 -17.270   3.659  1.00  0.00     0.219 S 
HETATM    3  O   UNL     1      41.867 -18.130   3.369  1.00  0.00    -0.211 OA
HETATM    4  O   UNL     1      44.046 -16.995   2.715  1.00  0.00    -0.211 OA
HETATM    5  C   UNL     1      42.419 -15.672   4.223  1.00  0.00     0.164 C 
HETATM    6  C   UNL     1      42.626 -15.679   5.729  1.00  0.00     0.116 C 
HETATM    7  O   UNL     1      41.344 -16.106   6.243  1.00  0.00    -0.369 OA
HETATM    8  C   UNL     1      40.389 -15.347   5.470  1.00  0.00     0.149 C 
HETATM    9  C   UNL     1      40.389 -13.914   6.043  1.00  0.00     0.264 C 
HETATM   10  N   UNL     1      41.780 -13.310   5.933  1.00  0.00    -0.070 N 
HETATM   11  H   UNL     1      41.927 -12.946   4.981  1.00  0.00     0.277 HD
HETATM   12  H   UNL     1      41.827 -12.483   6.547  1.00  0.00     0.277 HD
HETATM   13  C   UNL     1      42.889 -14.275   6.316  1.00  0.00     0.273 C 
HETATM   14  C   UNL     1      43.758 -16.648   6.090  1.00  0.00     0.148 C 
HETATM   15  C   UNL     1      40.930 -15.413   4.040  1.00  0.00     0.058 C 
ENDROOT
BRANCH   1  16
HETATM   16  C   UNL     1      44.955 -18.533   5.019  1.00  0.00     0.145 C 
BRANCH  16  17
HETATM   17  C   UNL     1      44.792 -19.972   4.607  1.00  0.00    -0.043 A 
HETATM   18  C   UNL     1      44.644 -20.315   3.256  1.00  0.00     0.032 A 
HETATM   19  C   UNL     1      44.442 -21.645   2.888  1.00  0.00     0.034 A 
HETATM   20  C   UNL     1      44.388 -22.647   3.854  1.00  0.00     0.024 A 
HETATM   21 CL   UNL     1      44.243 -22.048   1.226  1.00  0.00    -0.084 Cl
HETATM   22  C   UNL     1      44.546 -22.318   5.199  1.00  0.00     0.002 A 
HETATM   23  C   UNL     1      44.747 -20.989   5.574  1.00  0.00     0.008 A 
ENDBRANCH  16  17
ENDBRANCH   1  16
TORSDOF 2
ENDMDL
MODEL 5
REMARK VINA RESULT:      -7.3      2.006      2.961
REMARK  2 active torsions:
REMARK  status: ('A' for Active; 'I' for Inactive)
REMARK    1  A    between atoms: C_6  and  C_7 
REMARK    2  A    between atoms: C_7  and  N_8 
ROOT
HETATM    1  N   UNL     1      42.349 -17.147   3.180  1.00  0.00    -0.203 NA
HETATM    2  S   UNL     1      42.987 -16.105   1.998  1.00  0.00     0.219 S 
HETATM    3  O   UNL     1      42.905 -16.753   0.715  1.00  0.00    -0.211 OA
HETATM    4  O   UNL     1      44.204 -15.519   2.518  1.00  0.00    -0.211 OA
HETATM    5  C   UNL     1      41.743 -14.833   2.142  1.00  0.00     0.164 C 
HETATM    6  C   UNL     1      40.660 -15.426   3.028  1.00  0.00     0.116 C 
HETATM    7  O   UNL     1      39.717 -15.981   2.083  1.00  0.00    -0.369 OA
HETATM    8  C   UNL     1      39.592 -14.954   1.074  1.00  0.00     0.149 C 
HETATM    9  C   UNL     1      38.686 -13.853   1.667  1.00  0.00     0.264 C 
HETATM   10  N   UNL     1      39.310 -13.295   2.937  1.00  0.00    -0.070 N 
HETATM   11  H   UNL     1      40.026 -12.597   2.693  1.00  0.00     0.277 HD
HETATM   12  H   UNL     1      38.587 -12.771   3.452  1.00  0.00     0.277 HD
HETATM   13  C   UNL     1      39.889 -14.366   3.845  1.00  0.00     0.273 C 
HETATM   14  C   UNL     1      41.270 -16.493   3.946  1.00  0.00     0.148 C 
HETATM   15  C   UNL     1      41.028 -14.480   0.845  1.00  0.00     0.058 C 
ENDROOT
BRANCH   1  16
HETATM   16  C   UNL     1      43.337 -17.853   4.035  1.00  0.00     0.145 C 
BRANCH  16  17
HETATM   17  C   UNL     1      43.668 -19.256   3.600  1.00  0.00    -0.043 A 
HETATM   18  C   UNL     1      44.299 -20.145   4.481  1.00  0.00     0.032 A 
HETATM   19  C   UNL     1      44.648 -21.427   4.052  1.00  0.00     0.034 A 
HETATM   20  C   UNL     1      44.372 -21.838   2.751  1.00  0.00     0.024 A 
HETATM   21 CL   UNL     1      45.440 -22.501   5.139  1.00  0.00    -0.084 Cl
HETATM   22  C   UNL     1      43.735 -20.965   1.871  1.00  0.00     0.002 A 
HETATM   23  C   UNL     1      43.384 -19.682   2.293  1.00  0.00     0.008 A 
ENDBRANCH  16  17
ENDBRANCH   1  16
TORSDOF 2
ENDMDL
MODEL 6
REMARK VINA RESULT:      -7.2      1.695      1.973
REMARK  2 active torsions:
REMARK  status: ('A' for Active; 'I' for Inactive)
REMARK    1  A    between atoms: C_6  and  C_7 
REMARK    2  A    between atoms: C_7  and  N_8 
ROOT
HETATM    1  N   UNL     1      42.594 -16.859   2.495  1.00  0.00    -0.203 NA
HETATM    2  S   UNL     1      41.291 -16.525   1.455  1.00  0.00     0.219 S 
HETATM    3  O   UNL     1      40.122 -17.212   1.940  1.00  0.00    -0.211 OA
HETATM    4  O   UNL     1      41.762 -16.620   0.091  1.00  0.00    -0.211 OA
HETATM    5  C   UNL     1      41.184 -14.777   1.804  1.00  0.00     0.164 C 
HETATM    6  C   UNL     1      42.106 -14.545   2.990  1.00  0.00     0.116 C 
HETATM    7  O   UNL     1      41.221 -14.637   4.129  1.00  0.00    -0.369 OA
HETATM    8  C   UNL     1      40.060 -13.875   3.730  1.00  0.00     0.149 C 
HETATM    9  C   UNL     1      40.436 -12.384   3.864  1.00  0.00     0.264 C 
HETATM   10  N   UNL     1      41.628 -12.067   2.974  1.00  0.00    -0.070 N 
HETATM   11  H   UNL     1      41.309 -11.915   2.007  1.00  0.00     0.277 HD
HETATM   12  H   UNL     1      42.026 -11.163   3.271  1.00  0.00     0.277 HD
HETATM   13  C   UNL     1      42.716 -13.126   3.022  1.00  0.00     0.273 C 
HETATM   14  C   UNL     1      43.203 -15.617   3.008  1.00  0.00     0.148 C 
HETATM   15  C   UNL     1      39.819 -14.296   2.279  1.00  0.00     0.058 C 
ENDROOT
BRANCH   1  16
HETATM   16  C   UNL     1      43.588 -17.847   2.004  1.00  0.00     0.145 C 
BRANCH  16  17
HETATM   17  C   UNL     1      43.933 -18.942   2.980  1.00  0.00    -0.043 A 
HETATM   18  C   UNL     1      43.826 -18.725   4.360  1.00  0.00     0.032 A 
HETATM   19  C   UNL     1      44.195 -19.727   5.258  1.00  0.00     0.034 A 
HETATM   20  C   UNL     1      44.670 -20.952   4.796  1.00  0.00     0.024 A 
HETATM   21 CL   UNL     1      44.076 -19.440   6.951  1.00  0.00    -0.084 Cl
HETATM   22  C   UNL     1      44.770 -21.181   3.424  1.00  0.00     0.002 A 
HETATM   23  C   UNL     1      44.402 -20.183   2.521  1.00  0.00     0.008 A 
ENDBRANCH  16  17
ENDBRANCH   1  16
TORSDOF 2
ENDMDL
MODEL 7
REMARK VINA RESULT:      -7.2      2.665      3.799
REMARK  2 active torsions:
REMARK  status: ('A' for Active; 'I' for Inactive)
REMARK    1  A    between atoms: C_6  and  C_7 
REMARK    2  A    between atoms: C_7  and  N_8 
ROOT
HETATM    1  N   UNL     1      41.826 -16.491   2.829  1.00  0.00    -0.203 NA
HETATM    2  S   UNL     1      42.391 -14.982   3.368  1.00  0.00     0.219 S 
HETATM    3  O   UNL     1      43.758 -14.819   2.944  1.00  0.00    -0.211 OA
HETATM    4  O   UNL     1      41.953 -14.793   4.734  1.00  0.00    -0.211 OA
HETATM    5  C   UNL     1      41.300 -13.978   2.372  1.00  0.00     0.164 C 
HETATM    6  C   UNL     1      40.631 -14.944   1.408  1.00  0.00     0.116 C 
HETATM    7  O   UNL     1      41.465 -14.876   0.229  1.00  0.00    -0.369 OA
HETATM    8  C   UNL     1      41.713 -13.463   0.060  1.00  0.00     0.149 C 
HETATM    9  C   UNL     1      40.429 -12.854  -0.544  1.00  0.00     0.264 C 
HETATM   10  N   UNL     1      39.252 -13.092   0.389  1.00  0.00    -0.070 N 
HETATM   11  H   UNL     1      39.254 -12.385   1.137  1.00  0.00     0.277 HD
HETATM   12  H   UNL     1      38.380 -12.925  -0.136  1.00  0.00     0.277 HD
HETATM   13  C   UNL     1      39.219 -14.494   0.973  1.00  0.00     0.273 C 
HETATM   14  C   UNL     1      40.596 -16.348   2.025  1.00  0.00     0.148 C 
HETATM   15  C   UNL     1      41.996 -12.962   1.477  1.00  0.00     0.058 C 
ENDROOT
BRANCH   1  16
HETATM   16  C   UNL     1      41.742 -17.564   3.852  1.00  0.00     0.145 C 
BRANCH  16  17
HETATM   17  C   UNL     1      42.883 -18.548   3.837  1.00  0.00    -0.043 A 
HETATM   18  C   UNL     1      43.020 -19.463   2.785  1.00  0.00     0.032 A 
HETATM   19  C   UNL     1      44.050 -20.405   2.805  1.00  0.00     0.034 A 
HETATM   20  C   UNL     1      44.953 -20.444   3.864  1.00  0.00     0.024 A 
HETATM   21 CL   UNL     1      44.195 -21.535   1.515  1.00  0.00    -0.084 Cl
HETATM   22  C   UNL     1      44.832 -19.531   4.910  1.00  0.00     0.002 A 
HETATM   23  C   UNL     1      43.803 -18.587   4.896  1.00  0.00     0.008 A 
ENDBRANCH  16  17
ENDBRANCH   1  16
TORSDOF 2
ENDMDL
MODEL 8
REMARK VINA RESULT:      -6.9      2.933      3.540
REMARK  2 active torsions:
REMARK  status: ('A' for Active; 'I' for Inactive)
REMARK    1  A    between atoms: C_6  and  C_7 
REMARK    2  A    between atoms: C_7  and  N_8 
ROOT
HETATM    1  N   UNL     1      41.583 -15.957   1.641  1.00  0.00    -0.203 NA
HETATM    2  S   UNL     1      40.253 -15.222   2.401  1.00  0.00     0.219 S 
HETATM    3  O   UNL     1      40.606 -14.919   3.764  1.00  0.00    -0.211 OA
HETATM    4  O   UNL     1      39.058 -15.950   2.030  1.00  0.00    -0.211 OA
HETATM    5  C   UNL     1      40.236 -13.737   1.411  1.00  0.00     0.164 C 
HETATM    6  C   UNL     1      41.521 -13.777   0.600  1.00  0.00     0.116 C 
HETATM    7  O   UNL     1      42.449 -13.010   1.401  1.00  0.00    -0.369 OA
HETATM    8  C   UNL     1      41.681 -11.857   1.813  1.00  0.00     0.149 C 
HETATM    9  C   UNL     1      41.607 -10.911   0.595  1.00  0.00     0.264 C 
HETATM   10  N   UNL     1      40.939 -11.620  -0.574  1.00  0.00    -0.070 N 
HETATM   11  H   UNL     1      39.916 -11.583  -0.463  1.00  0.00     0.277 HD
HETATM   12  H   UNL     1      41.136 -11.087  -1.434  1.00  0.00     0.277 HD
HETATM   13  C   UNL     1      41.410 -13.052  -0.759  1.00  0.00     0.273 C 
HETATM   14  C   UNL     1      41.968 -15.232   0.414  1.00  0.00     0.148 C 
HETATM   15  C   UNL     1      40.318 -12.435   2.197  1.00  0.00     0.058 C 
ENDROOT
BRANCH   1  16
HETATM   16  C   UNL     1      41.505 -17.429   1.459  1.00  0.00     0.145 C 
BRANCH  16  17
HETATM   17  C   UNL     1      42.524 -18.222   2.233  1.00  0.00    -0.043 A 
HETATM   18  C   UNL     1      42.972 -19.462   1.759  1.00  0.00     0.032 A 
HETATM   19  C   UNL     1      43.878 -20.213   2.509  1.00  0.00     0.034 A 
HETATM   20  C   UNL     1      44.350 -19.741   3.731  1.00  0.00     0.024 A 
HETATM   21 CL   UNL     1      44.405 -21.743   1.923  1.00  0.00    -0.084 Cl
HETATM   22  C   UNL     1      43.919 -18.503   4.205  1.00  0.00     0.002 A 
HETATM   23  C   UNL     1      43.012 -17.747   3.461  1.00  0.00     0.008 A 
ENDBRANCH  16  17
ENDBRANCH   1  16
TORSDOF 2
ENDMDL
MODEL 9
REMARK VINA RESULT:      -6.9      4.316      5.313
REMARK  2 active torsions:
REMARK  status: ('A' for Active; 'I' for Inactive)
REMARK    1  A    between atoms: C_6  and  C_7 
REMARK    2  A    between atoms: C_7  and  N_8 
ROOT
HETATM    1  N   UNL     1      40.893 -15.574   1.140  1.00  0.00    -0.203 NA
HETATM    2  S   UNL     1      39.746 -14.321   1.077  1.00  0.00     0.219 S 
HETATM    3  O   UNL     1      40.280 -13.168   1.755  1.00  0.00    -0.211 OA
HETATM    4  O   UNL     1      38.443 -14.882   1.364  1.00  0.00    -0.211 OA
HETATM    5  C   UNL     1      39.785 -14.085  -0.693  1.00  0.00     0.164 C 
HETATM    6  C   UNL     1      40.960 -14.915  -1.184  1.00  0.00     0.116 C 
HETATM    7  O   UNL     1      42.051 -13.967  -1.221  1.00  0.00    -0.369 OA
HETATM    8  C   UNL     1      41.469 -12.789  -1.821  1.00  0.00     0.149 C 
HETATM    9  C   UNL     1      41.366 -13.064  -3.337  1.00  0.00     0.264 C 
HETATM   10  N   UNL     1      40.497 -14.288  -3.585  1.00  0.00    -0.070 N 
HETATM   11  H   UNL     1      39.503 -14.022  -3.551  1.00  0.00     0.277 HD
HETATM   12  H   UNL     1      40.656 -14.610  -4.552  1.00  0.00     0.277 HD
HETATM   13  C   UNL     1      40.781 -15.433  -2.628  1.00  0.00     0.273 C 
HETATM   14  C   UNL     1      41.218 -16.072  -0.211  1.00  0.00     0.148 C 
HETATM   15  C   UNL     1      40.100 -12.666  -1.148  1.00  0.00     0.058 C 
ENDROOT
BRANCH   1  16
HETATM   16  C   UNL     1      40.630 -16.656   2.122  1.00  0.00     0.145 C 
BRANCH  16  17
HETATM   17  C   UNL     1      41.850 -17.410   2.581  1.00  0.00    -0.043 A 
HETATM   18  C   UNL     1      42.195 -18.634   1.992  1.00  0.00     0.032 A 
HETATM   19  C   UNL     1      43.298 -19.350   2.458  1.00  0.00     0.034 A 
HETATM   20  C   UNL     1      44.070 -18.859   3.507  1.00  0.00     0.024 A 
HETATM   21 CL   UNL     1      43.697 -20.861   1.737  1.00  0.00    -0.084 Cl
HETATM   22  C   UNL     1      43.742 -17.636   4.092  1.00  0.00     0.002 A 
HETATM   23  C   UNL     1      42.639 -16.915   3.631  1.00  0.00     0.008 A 
ENDBRANCH  16  17
ENDBRANCH   1  16
TORSDOF 2
ENDMDL
MODEL 10
REMARK VINA RESULT:      -6.9      2.156      2.890
REMARK  2 active torsions:
REMARK  status: ('A' for Active; 'I' for Inactive)
REMARK    1  A    between atoms: C_6  and  C_7 
REMARK    2  A    between atoms: C_7  and  N_8 
ROOT
HETATM    1  N   UNL     1      43.070 -16.582   3.917  1.00  0.00    -0.203 NA
HETATM    2  S   UNL     1      41.417 -16.603   4.315  1.00  0.00     0.219 S 
HETATM    3  O   UNL     1      41.120 -15.451   5.126  1.00  0.00    -0.211 OA
HETATM    4  O   UNL     1      41.057 -17.954   4.688  1.00  0.00    -0.211 OA
HETATM    5  C   UNL     1      40.796 -16.382   2.656  1.00  0.00     0.164 C 
HETATM    6  C   UNL     1      42.014 -16.048   1.810  1.00  0.00     0.116 C 
HETATM    7  O   UNL     1      42.030 -14.603   1.797  1.00  0.00    -0.369 OA
HETATM    8  C   UNL     1      40.649 -14.242   1.569  1.00  0.00     0.149 C 
HETATM    9  C   UNL     1      40.370 -14.472   0.068  1.00  0.00     0.264 C 
HETATM   10  N   UNL     1      40.618 -15.930  -0.290  1.00  0.00    -0.070 N 
HETATM   11  H   UNL     1      39.796 -16.494  -0.034  1.00  0.00     0.277 HD
HETATM   12  H   UNL     1      40.690 -16.007  -1.316  1.00  0.00     0.277 HD
HETATM   13  C   UNL     1      41.879 -16.499   0.339  1.00  0.00     0.273 C 
HETATM   14  C   UNL     1      43.270 -16.645   2.456  1.00  0.00     0.148 C 
HETATM   15  C   UNL     1      39.861 -15.194   2.470  1.00  0.00     0.058 C 
ENDROOT
BRANCH   1  16
HETATM   16  C   UNL     1      43.940 -17.518   4.675  1.00  0.00     0.145 C 
BRANCH  16  17
HETATM   17  C   UNL     1      44.073 -18.891   4.072  1.00  0.00    -0.043 A 
HETATM   18  C   UNL     1      44.558 -19.961   4.838  1.00  0.00     0.032 A 
HETATM   19  C   UNL     1      44.727 -21.218   4.257  1.00  0.00     0.034 A 
HETATM   20  C   UNL     1      44.413 -21.428   2.917  1.00  0.00     0.024 A 
HETATM   21 CL   UNL     1      45.341 -22.517   5.205  1.00  0.00    -0.084 Cl
HETATM   22  C   UNL     1      43.920 -20.373   2.150  1.00  0.00     0.002 A 
HETATM   23  C   UNL     1      43.750 -19.112   2.724  1.00  0.00     0.008 A 
ENDBRANCH  16  17
ENDBRANCH   1  16
TORSDOF 2
ENDMDL
