MODEL 1
REMARK VINA RESULT:      -9.1      0.000      0.000
REMARK  7 active torsions:
REMARK  status: ('A' for Active; 'I' for Inactive)
REMARK    1  A    between atoms: C_4  and  C_5 
REMARK    2  A    between atoms: C_5  and  N_6 
REMARK    3  A    between atoms: C_14  and  C_15 
REMARK    4  A    between atoms: C_18  and  O_19 
REMARK    5  A    between atoms: O_19  and  C_20 
REMARK    6  A    between atoms: C_20  and  C_21 
REMARK    7  A    between atoms: C_22  and  C_23 
ROOT
HETATM    1  N   UNL     1      43.798 -18.354   5.739  1.00  0.00    -0.063 N 
HETATM    2  H   UNL     1      43.489 -18.382   4.759  1.00  0.00     0.280 HD
HETATM    3  C   UNL     1      42.528 -18.118   6.543  1.00  0.00     0.282 C 
HETATM    4  C   UNL     1      41.957 -16.788   6.185  1.00  0.00     0.018 A 
HETATM    5  C   UNL     1      42.664 -15.758   5.591  1.00  0.00    -0.023 A 
HETATM    6  C   UNL     1      41.826 -14.618   5.371  1.00  0.00     0.073 A 
HETATM    7  C   UNL     1      40.539 -14.841   5.795  1.00  0.00     0.088 A 
HETATM    8  N   UNL     1      39.546 -13.942   5.664  1.00  0.00    -0.358 N 
HETATM    9  C   UNL     1      39.842 -12.571   5.307  1.00  0.00     0.219 C 
HETATM   10  N   UNL     1      41.143 -12.435   4.701  1.00  0.00    -0.332 N 
HETATM   11  C   UNL     1      42.159 -13.343   4.767  1.00  0.00     0.256 C 
HETATM   12  O   UNL     1      43.277 -13.092   4.332  1.00  0.00    -0.267 OA
HETATM   13  S   UNL     1      40.334 -16.381   6.487  1.00  0.00    -0.074 SA
HETATM   14  C   UNL     1      44.110 -15.908   5.213  1.00  0.00     0.068 C 
HETATM   15  C   UNL     1      44.742 -17.161   5.849  1.00  0.00     0.240 C 
HETATM   16  H   UNL     1      38.682 -14.068   6.184  1.00  0.00     0.162 HD
HETATM   17  H   UNL     1      41.396 -11.533   4.326  1.00  0.00     0.165 HD
ENDROOT
BRANCH   9  18
HETATM   18  C   UNL     1      39.650 -11.664   6.508  1.00  0.00    -0.016 A 
HETATM   19  C   UNL     1      39.921 -10.285   6.455  1.00  0.00     0.014 A 
HETATM   20  C   UNL     1      39.777  -9.481   7.592  1.00  0.00     0.038 A 
HETATM   21  C   UNL     1      39.390 -10.059   8.795  1.00  0.00     0.079 A 
HETATM   22  C   UNL     1      39.098 -11.421   8.867  1.00  0.00     0.038 A 
HETATM   23  C   UNL     1      39.236 -12.220   7.732  1.00  0.00     0.014 A 
BRANCH  21  24
HETATM   24  O   UNL     1      39.208  -9.337   9.991  1.00  0.00    -0.276 OA
BRANCH  24  25
HETATM   25  C   UNL     1      39.869  -9.695  11.157  1.00  0.00     0.288 C 
HETATM   26  O   UNL     1      39.386  -9.825  12.272  1.00  0.00    -0.260 OA
BRANCH  25  27
HETATM   27  C   UNL     1      41.310  -9.906  10.898  1.00  0.00     0.085 C 
HETATM   28  C   UNL     1      41.935 -11.085  11.032  1.00  0.00     0.043 C 
BRANCH  28  29
HETATM   29  C   UNL     1      43.315 -11.217  10.718  1.00  0.00     0.075 A 
HETATM   30  O   UNL     1      43.979 -10.429   9.802  1.00  0.00    -0.323 OA
HETATM   31  C   UNL     1      45.273 -10.830   9.749  1.00  0.00     0.142 A 
HETATM   32  C   UNL     1      45.485 -11.874  10.612  1.00  0.00     0.027 A 
HETATM   33  C   UNL     1      44.238 -12.121  11.234  1.00  0.00     0.039 A 
ENDBRANCH  28  29
ENDBRANCH  25  27
ENDBRANCH  24  25
ENDBRANCH  21  24
ENDBRANCH   9  18
BRANCH   1  34
HETATM   34  C   UNL     1      44.440 -19.691   5.996  1.00  0.00     0.273 C 
BRANCH  34  35
HETATM   35  C   UNL     1      44.508 -20.624   4.818  1.00  0.00    -0.033 A 
HETATM   36  C   UNL     1      44.363 -20.134   3.510  1.00  0.00     0.009 A 
HETATM   37  C   UNL     1      44.405 -21.004   2.419  1.00  0.00     0.001 A 
HETATM   38  C   UNL     1      44.598 -22.368   2.621  1.00  0.00     0.000 A 
HETATM   39  C   UNL     1      44.757 -22.866   3.912  1.00  0.00     0.001 A 
HETATM   40  C   UNL     1      44.716 -22.000   5.005  1.00  0.00     0.009 A 
ENDBRANCH  34  35
ENDBRANCH   1  34
TORSDOF 7
ENDMDL
MODEL 2
REMARK VINA RESULT:      -8.9      4.712      9.766
REMARK  7 active torsions:
REMARK  status: ('A' for Active; 'I' for Inactive)
REMARK    1  A    between atoms: C_4  and  C_5 
REMARK    2  A    between atoms: C_5  and  N_6 
REMARK    3  A    between atoms: C_14  and  C_15 
REMARK    4  A    between atoms: C_18  and  O_19 
REMARK    5  A    between atoms: O_19  and  C_20 
REMARK    6  A    between atoms: C_20  and  C_21 
REMARK    7  A    between atoms: C_22  and  C_23 
ROOT
HETATM    1  N   UNL     1      44.570 -12.934   7.992  1.00  0.00    -0.063 N 
HETATM    2  H   UNL     1      44.098 -13.624   8.590  1.00  0.00     0.280 HD
HETATM    3  C   UNL     1      43.449 -12.247   7.228  1.00  0.00     0.282 C 
HETATM    4  C   UNL     1      42.762 -13.242   6.357  1.00  0.00     0.018 A 
HETATM    5  C   UNL     1      43.306 -14.449   5.955  1.00  0.00    -0.023 A 
HETATM    6  C   UNL     1      42.389 -15.179   5.131  1.00  0.00     0.073 A 
HETATM    7  C   UNL     1      41.207 -14.501   4.960  1.00  0.00     0.088 A 
HETATM    8  N   UNL     1      40.165 -14.988   4.261  1.00  0.00    -0.358 N 
HETATM    9  C   UNL     1      40.329 -16.152   3.417  1.00  0.00     0.219 C 
HETATM   10  N   UNL     1      41.498 -16.920   3.770  1.00  0.00    -0.332 N 
HETATM   11  C   UNL     1      42.552 -16.481   4.517  1.00  0.00     0.256 C 
HETATM   12  O   UNL     1      43.565 -17.157   4.661  1.00  0.00    -0.267 OA
HETATM   13  S   UNL     1      41.198 -12.989   5.739  1.00  0.00    -0.074 SA
HETATM   14  C   UNL     1      44.670 -14.889   6.404  1.00  0.00     0.068 C 
HETATM   15  C   UNL     1      45.462 -13.735   7.049  1.00  0.00     0.240 C 
HETATM   16  H   UNL     1      39.410 -14.366   3.985  1.00  0.00     0.162 HD
HETATM   17  H   UNL     1      41.639 -17.803   3.303  1.00  0.00     0.165 HD
ENDROOT
BRANCH   9  18
HETATM   18  C   UNL     1      40.305 -15.747   1.956  1.00  0.00    -0.016 A 
HETATM   19  C   UNL     1      41.173 -16.316   1.007  1.00  0.00     0.014 A 
HETATM   20  C   UNL     1      41.158 -15.890  -0.326  1.00  0.00     0.038 A 
HETATM   21  C   UNL     1      40.295 -14.870  -0.710  1.00  0.00     0.079 A 
HETATM   22  C   UNL     1      39.413 -14.304   0.209  1.00  0.00     0.038 A 
HETATM   23  C   UNL     1      39.424 -14.734   1.536  1.00  0.00     0.014 A 
BRANCH  21  24
HETATM   24  O   UNL     1      40.198 -14.377  -2.026  1.00  0.00    -0.276 OA
BRANCH  24  25
HETATM   25  C   UNL     1      41.325 -14.201  -2.815  1.00  0.00     0.288 C 
HETATM   26  O   UNL     1      41.892 -15.043  -3.496  1.00  0.00    -0.260 OA
BRANCH  25  27
HETATM   27  C   UNL     1      41.808 -12.805  -2.734  1.00  0.00     0.085 C 
HETATM   28  C   UNL     1      42.439 -12.288  -1.669  1.00  0.00     0.043 C 
BRANCH  28  29
HETATM   29  C   UNL     1      42.915 -10.949  -1.686  1.00  0.00     0.075 A 
HETATM   30  O   UNL     1      43.943 -10.483  -0.894  1.00  0.00    -0.323 OA
HETATM   31  C   UNL     1      44.130  -9.168  -1.163  1.00  0.00     0.142 A 
HETATM   32  C   UNL     1      43.243  -8.745  -2.119  1.00  0.00     0.027 A 
HETATM   33  C   UNL     1      42.469  -9.880  -2.456  1.00  0.00     0.039 A 
ENDBRANCH  28  29
ENDBRANCH  25  27
ENDBRANCH  24  25
ENDBRANCH  21  24
ENDBRANCH   9  18
BRANCH   1  34
HETATM   34  C   UNL     1      45.310 -12.023   8.936  1.00  0.00     0.273 C 
BRANCH  34  35
HETATM   35  C   UNL     1      44.555 -11.600  10.167  1.00  0.00    -0.033 A 
HETATM   36  C   UNL     1      44.142 -12.552  11.113  1.00  0.00     0.009 A 
HETATM   37  C   UNL     1      43.423 -12.160  12.243  1.00  0.00     0.001 A 
HETATM   38  C   UNL     1      43.114 -10.818  12.444  1.00  0.00     0.000 A 
HETATM   39  C   UNL     1      43.530  -9.861  11.521  1.00  0.00     0.001 A 
HETATM   40  C   UNL     1      44.249 -10.248  10.390  1.00  0.00     0.009 A 
ENDBRANCH  34  35
ENDBRANCH   1  34
TORSDOF 7
ENDMDL
MODEL 3
REMARK VINA RESULT:      -8.8      1.919      2.644
REMARK  7 active torsions:
REMARK  status: ('A' for Active; 'I' for Inactive)
REMARK    1  A    between atoms: C_4  and  C_5 
REMARK    2  A    between atoms: C_5  and  N_6 
REMARK    3  A    between atoms: C_14  and  C_15 
REMARK    4  A    between atoms: C_18  and  O_19 
REMARK    5  A    between atoms: O_19  and  C_20 
REMARK    6  A    between atoms: C_20  and  C_21 
REMARK    7  A    between atoms: C_22  and  C_23 
ROOT
HETATM    1  N   UNL     1      42.326 -16.768   2.556  1.00  0.00    -0.063 N 
HETATM    2  H   UNL     1      41.451 -16.627   2.037  1.00  0.00     0.280 HD
HETATM    3  C   UNL     1      41.900 -16.921   4.008  1.00  0.00     0.282 C 
HETATM    4  C   UNL     1      41.268 -15.653   4.473  1.00  0.00     0.018 A 
HETATM    5  C   UNL     1      41.441 -14.419   3.874  1.00  0.00    -0.023 A 
HETATM    6  C   UNL     1      40.693 -13.405   4.557  1.00  0.00     0.073 A 
HETATM    7  C   UNL     1      39.993 -13.919   5.621  1.00  0.00     0.088 A 
HETATM    8  N   UNL     1      39.180 -13.183   6.402  1.00  0.00    -0.358 N 
HETATM    9  C   UNL     1      39.205 -11.737   6.328  1.00  0.00     0.219 C 
HETATM   10  N   UNL     1      39.794 -11.266   5.100  1.00  0.00    -0.332 N 
HETATM   11  C   UNL     1      40.582 -11.993   4.255  1.00  0.00     0.256 C 
HETATM   12  O   UNL     1      41.148 -11.476   3.298  1.00  0.00    -0.267 OA
HETATM   13  S   UNL     1      40.251 -15.587   5.834  1.00  0.00    -0.074 SA
HETATM   14  C   UNL     1      42.281 -14.249   2.641  1.00  0.00     0.068 C 
HETATM   15  C   UNL     1      43.143 -15.495   2.359  1.00  0.00     0.240 C 
HETATM   16  H   UNL     1      38.864 -13.557   7.293  1.00  0.00     0.162 HD
HETATM   17  H   UNL     1      39.763 -10.275   4.913  1.00  0.00     0.165 HD
ENDROOT
BRANCH   9  18
HETATM   18  C   UNL     1      39.870 -11.162   7.564  1.00  0.00    -0.016 A 
HETATM   19  C   UNL     1      40.945 -10.259   7.483  1.00  0.00     0.014 A 
HETATM   20  C   UNL     1      41.568  -9.779   8.641  1.00  0.00     0.038 A 
HETATM   21  C   UNL     1      41.136 -10.223   9.886  1.00  0.00     0.079 A 
HETATM   22  C   UNL     1      40.060 -11.104   9.991  1.00  0.00     0.038 A 
HETATM   23  C   UNL     1      39.437 -11.577   8.836  1.00  0.00     0.014 A 
BRANCH  21  24
HETATM   24  O   UNL     1      41.690  -9.795  11.108  1.00  0.00    -0.276 OA
BRANCH  24  25
HETATM   25  C   UNL     1      42.710 -10.504  11.726  1.00  0.00     0.288 C 
HETATM   26  O   UNL     1      42.918 -10.609  12.925  1.00  0.00    -0.260 OA
BRANCH  25  27
HETATM   27  C   UNL     1      43.582 -11.149  10.720  1.00  0.00     0.085 C 
HETATM   28  C   UNL     1      44.671 -10.574  10.188  1.00  0.00     0.043 C 
BRANCH  28  29
HETATM   29  C   UNL     1      45.485 -11.279   9.261  1.00  0.00     0.075 A 
HETATM   30  O   UNL     1      46.697 -10.820   8.790  1.00  0.00    -0.323 OA
HETATM   31  C   UNL     1      47.195 -11.736   7.923  1.00  0.00     0.142 A 
HETATM   32  C   UNL     1      46.336 -12.798   7.804  1.00  0.00     0.027 A 
HETATM   33  C   UNL     1      45.246 -12.510   8.658  1.00  0.00     0.039 A 
ENDBRANCH  28  29
ENDBRANCH  25  27
ENDBRANCH  24  25
ENDBRANCH  21  24
ENDBRANCH   9  18
BRANCH   1  34
HETATM   34  C   UNL     1      42.945 -18.009   1.970  1.00  0.00     0.273 C 
BRANCH  34  35
HETATM   35  C   UNL     1      43.681 -18.895   2.939  1.00  0.00    -0.033 A 
HETATM   36  C   UNL     1      44.008 -20.216   2.593  1.00  0.00     0.009 A 
HETATM   37  C   UNL     1      44.671 -21.043   3.500  1.00  0.00     0.001 A 
HETATM   38  C   UNL     1      45.020 -20.560   4.758  1.00  0.00     0.000 A 
HETATM   39  C   UNL     1      44.715 -19.248   5.111  1.00  0.00     0.001 A 
HETATM   40  C   UNL     1      44.052 -18.418   4.206  1.00  0.00     0.009 A 
ENDBRANCH  34  35
ENDBRANCH   1  34
TORSDOF 7
ENDMDL
MODEL 4
REMARK VINA RESULT:      -8.7      7.664     11.884
REMARK  7 active torsions:
REMARK  status: ('A' for Active; 'I' for Inactive)
REMARK    1  A    between atoms: C_4  and  C_5 
REMARK    2  A    between atoms: C_5  and  N_6 
REMARK    3  A    between atoms: C_14  and  C_15 
REMARK    4  A    between atoms: C_18  and  O_19 
REMARK    5  A    between atoms: O_19  and  C_20 
REMARK    6  A    between atoms: C_20  and  C_21 
REMARK    7  A    between atoms: C_22  and  C_23 
ROOT
HETATM    1  N   UNL     1      36.007 -12.732  -4.684  1.00  0.00    -0.063 N 
HETATM    2  H   UNL     1      36.762 -12.486  -5.336  1.00  0.00     0.280 HD
HETATM    3  C   UNL     1      36.415 -12.108  -3.358  1.00  0.00     0.282 C 
HETATM    4  C   UNL     1      37.679 -12.740  -2.884  1.00  0.00     0.018 A 
HETATM    5  C   UNL     1      38.155 -13.968  -3.307  1.00  0.00    -0.023 A 
HETATM    6  C   UNL     1      39.397 -14.287  -2.668  1.00  0.00     0.073 A 
HETATM    7  C   UNL     1      39.799 -13.293  -1.809  1.00  0.00     0.088 A 
HETATM    8  N   UNL     1      40.952 -13.330  -1.115  1.00  0.00    -0.358 N 
HETATM    9  C   UNL     1      41.715 -14.556  -1.029  1.00  0.00     0.219 C 
HETATM   10  N   UNL     1      41.368 -15.488  -2.073  1.00  0.00    -0.332 N 
HETATM   11  C   UNL     1      40.235 -15.457  -2.833  1.00  0.00     0.256 C 
HETATM   12  O   UNL     1      39.956 -16.363  -3.611  1.00  0.00    -0.267 OA
HETATM   13  S   UNL     1      38.691 -12.005  -1.731  1.00  0.00    -0.074 SA
HETATM   14  C   UNL     1      37.433 -14.782  -4.341  1.00  0.00     0.068 C 
HETATM   15  C   UNL     1      36.007 -14.254  -4.593  1.00  0.00     0.240 C 
HETATM   16  H   UNL     1      41.094 -12.686  -0.342  1.00  0.00     0.162 HD
HETATM   17  H   UNL     1      41.919 -16.329  -2.156  1.00  0.00     0.165 HD
ENDROOT
BRANCH   9  18
HETATM   18  C   UNL     1      41.596 -15.151   0.361  1.00  0.00    -0.016 A 
HETATM   19  C   UNL     1      40.957 -16.382   0.596  1.00  0.00     0.014 A 
HETATM   20  C   UNL     1      40.822 -16.884   1.895  1.00  0.00     0.038 A 
HETATM   21  C   UNL     1      41.301 -16.143   2.969  1.00  0.00     0.079 A 
HETATM   22  C   UNL     1      41.954 -14.930   2.759  1.00  0.00     0.038 A 
HETATM   23  C   UNL     1      42.093 -14.433   1.463  1.00  0.00     0.014 A 
BRANCH  21  24
HETATM   24  O   UNL     1      41.222 -16.564   4.311  1.00  0.00    -0.276 OA
BRANCH  24  25
HETATM   25  C   UNL     1      42.328 -17.079   4.972  1.00  0.00     0.288 C 
HETATM   26  O   UNL     1      42.978 -16.543   5.857  1.00  0.00    -0.260 OA
BRANCH  25  27
HETATM   27  C   UNL     1      42.669 -18.422   4.453  1.00  0.00     0.085 C 
HETATM   28  C   UNL     1      43.606 -18.654   3.523  1.00  0.00     0.043 C 
BRANCH  28  29
HETATM   29  C   UNL     1      43.909 -19.980   3.110  1.00  0.00     0.075 A 
HETATM   30  O   UNL     1      44.479 -20.934   3.926  1.00  0.00    -0.323 OA
HETATM   31  C   UNL     1      44.631 -22.075   3.210  1.00  0.00     0.142 A 
HETATM   32  C   UNL     1      44.175 -21.901   1.929  1.00  0.00     0.027 A 
HETATM   33  C   UNL     1      43.711 -20.565   1.863  1.00  0.00     0.039 A 
ENDBRANCH  28  29
ENDBRANCH  25  27
ENDBRANCH  24  25
ENDBRANCH  21  24
ENDBRANCH   9  18
BRANCH   1  34
HETATM   34  C   UNL     1      34.756 -12.137  -5.276  1.00  0.00     0.273 C 
BRANCH  34  35
HETATM   35  C   UNL     1      33.662 -11.805  -4.299  1.00  0.00    -0.033 A 
HETATM   36  C   UNL     1      32.733 -12.782  -3.906  1.00  0.00     0.009 A 
HETATM   37  C   UNL     1      31.705 -12.467  -3.017  1.00  0.00     0.001 A 
HETATM   38  C   UNL     1      31.596 -11.177  -2.506  1.00  0.00     0.000 A 
HETATM   39  C   UNL     1      32.518 -10.200  -2.875  1.00  0.00     0.001 A 
HETATM   40  C   UNL     1      33.547 -10.512  -3.764  1.00  0.00     0.009 A 
ENDBRANCH  34  35
ENDBRANCH   1  34
TORSDOF 7
ENDMDL
MODEL 5
REMARK VINA RESULT:      -8.7      5.716     10.977
REMARK  7 active torsions:
REMARK  status: ('A' for Active; 'I' for Inactive)
REMARK    1  A    between atoms: C_4  and  C_5 
REMARK    2  A    between atoms: C_5  and  N_6 
REMARK    3  A    between atoms: C_14  and  C_15 
REMARK    4  A    between atoms: C_18  and  O_19 
REMARK    5  A    between atoms: O_19  and  C_20 
REMARK    6  A    between atoms: C_20  and  C_21 
REMARK    7  A    between atoms: C_22  and  C_23 
ROOT
HETATM    1  N   UNL     1      44.528 -12.781   8.259  1.00  0.00    -0.063 N 
HETATM    2  H   UNL     1      44.034 -13.468   8.841  1.00  0.00     0.280 HD
HETATM    3  C   UNL     1      43.436 -12.087   7.459  1.00  0.00     0.282 C 
HETATM    4  C   UNL     1      42.771 -13.080   6.567  1.00  0.00     0.018 A 
HETATM    5  C   UNL     1      43.322 -14.289   6.182  1.00  0.00    -0.023 A 
HETATM    6  C   UNL     1      42.428 -15.014   5.329  1.00  0.00     0.073 A 
HETATM    7  C   UNL     1      41.256 -14.330   5.120  1.00  0.00     0.088 A 
HETATM    8  N   UNL     1      40.234 -14.812   4.388  1.00  0.00    -0.358 N 
HETATM    9  C   UNL     1      40.419 -15.977   3.549  1.00  0.00     0.219 C 
HETATM   10  N   UNL     1      41.571 -16.750   3.939  1.00  0.00    -0.332 N 
HETATM   11  C   UNL     1      42.603 -16.317   4.720  1.00  0.00     0.256 C 
HETATM   12  O   UNL     1      43.608 -16.998   4.896  1.00  0.00    -0.267 OA
HETATM   13  S   UNL     1      41.230 -12.818   5.899  1.00  0.00    -0.074 SA
HETATM   14  C   UNL     1      44.668 -14.736   6.674  1.00  0.00     0.068 C 
HETATM   15  C   UNL     1      45.445 -13.586   7.344  1.00  0.00     0.240 C 
HETATM   16  H   UNL     1      39.492 -14.185   4.088  1.00  0.00     0.162 HD
HETATM   17  H   UNL     1      41.723 -17.635   3.478  1.00  0.00     0.165 HD
ENDROOT
BRANCH   9  18
HETATM   18  C   UNL     1      40.444 -15.571   2.088  1.00  0.00    -0.016 A 
HETATM   19  C   UNL     1      41.177 -16.287   1.125  1.00  0.00     0.014 A 
HETATM   20  C   UNL     1      41.217 -15.863  -0.208  1.00  0.00     0.038 A 
HETATM   21  C   UNL     1      40.547 -14.703  -0.579  1.00  0.00     0.079 A 
HETATM   22  C   UNL     1      39.799 -13.987   0.355  1.00  0.00     0.038 A 
HETATM   23  C   UNL     1      39.755 -14.414   1.682  1.00  0.00     0.014 A 
BRANCH  21  24
HETATM   24  O   UNL     1      40.519 -14.198  -1.893  1.00  0.00    -0.276 OA
BRANCH  24  25
HETATM   25  C   UNL     1      40.274 -15.026  -2.979  1.00  0.00     0.288 C 
HETATM   26  O   UNL     1      41.057 -15.795  -3.515  1.00  0.00    -0.260 OA
BRANCH  25  27
HETATM   27  C   UNL     1      38.884 -14.863  -3.458  1.00  0.00     0.085 C 
HETATM   28  C   UNL     1      38.268 -13.679  -3.590  1.00  0.00     0.043 C 
BRANCH  28  29
HETATM   29  C   UNL     1      36.945 -13.601  -4.103  1.00  0.00     0.075 A 
HETATM   30  O   UNL     1      36.289 -14.647  -4.716  1.00  0.00    -0.323 OA
HETATM   31  C   UNL     1      35.055 -14.224  -5.084  1.00  0.00     0.142 A 
HETATM   32  C   UNL     1      34.874 -12.912  -4.730  1.00  0.00     0.027 A 
HETATM   33  C   UNL     1      36.078 -12.513  -4.102  1.00  0.00     0.039 A 
ENDBRANCH  28  29
ENDBRANCH  25  27
ENDBRANCH  24  25
ENDBRANCH  21  24
ENDBRANCH   9  18
BRANCH   1  34
HETATM   34  C   UNL     1      45.242 -11.874   9.225  1.00  0.00     0.273 C 
BRANCH  34  35
HETATM   35  C   UNL     1      44.473 -11.496  10.462  1.00  0.00    -0.033 A 
HETATM   36  C   UNL     1      43.994 -12.486  11.335  1.00  0.00     0.009 A 
HETATM   37  C   UNL     1      43.261 -12.135  12.470  1.00  0.00     0.001 A 
HETATM   38  C   UNL     1      43.004 -10.795  12.748  1.00  0.00     0.000 A 
HETATM   39  C   UNL     1      43.484  -9.802  11.898  1.00  0.00     0.001 A 
HETATM   40  C   UNL     1      44.217 -10.149  10.763  1.00  0.00     0.009 A 
ENDBRANCH  34  35
ENDBRANCH   1  34
TORSDOF 7
ENDMDL
MODEL 6
REMARK VINA RESULT:      -8.6      5.659      9.963
REMARK  7 active torsions:
REMARK  status: ('A' for Active; 'I' for Inactive)
REMARK    1  A    between atoms: C_4  and  C_5 
REMARK    2  A    between atoms: C_5  and  N_6 
REMARK    3  A    between atoms: C_14  and  C_15 
REMARK    4  A    between atoms: C_18  and  O_19 
REMARK    5  A    between atoms: O_19  and  C_20 
REMARK    6  A    between atoms: C_20  and  C_21 
REMARK    7  A    between atoms: C_22  and  C_23 
ROOT
HETATM    1  N   UNL     1      41.958 -12.190  -2.147  1.00  0.00    -0.063 N 
HETATM    2  H   UNL     1      40.988 -11.864  -2.054  1.00  0.00     0.280 HD
HETATM    3  C   UNL     1      41.909 -13.668  -1.794  1.00  0.00     0.282 C 
HETATM    4  C   UNL     1      41.489 -13.823  -0.372  1.00  0.00     0.018 A 
HETATM    5  C   UNL     1      41.570 -12.830   0.588  1.00  0.00    -0.023 A 
HETATM    6  C   UNL     1      41.079 -13.293   1.852  1.00  0.00     0.073 A 
HETATM    7  C   UNL     1      40.648 -14.595   1.784  1.00  0.00     0.088 A 
HETATM    8  N   UNL     1      40.104 -15.253   2.825  1.00  0.00    -0.358 N 
HETATM    9  C   UNL     1      40.190 -14.707   4.163  1.00  0.00     0.219 C 
HETATM   10  N   UNL     1      40.470 -13.293   4.156  1.00  0.00    -0.332 N 
HETATM   11  C   UNL     1      40.974 -12.579   3.108  1.00  0.00     0.256 C 
HETATM   12  O   UNL     1      41.304 -11.404   3.228  1.00  0.00    -0.267 OA
HETATM   13  S   UNL     1      40.858 -15.278   0.241  1.00  0.00    -0.074 SA
HETATM   14  C   UNL     1      42.076 -11.455   0.261  1.00  0.00     0.068 C 
HETATM   15  C   UNL     1      42.766 -11.409  -1.116  1.00  0.00     0.240 C 
HETATM   16  H   UNL     1      40.005 -16.264   2.785  1.00  0.00     0.162 HD
HETATM   17  H   UNL     1      40.448 -12.804   5.038  1.00  0.00     0.165 HD
ENDROOT
BRANCH   9  18
HETATM   18  C   UNL     1      41.179 -15.504   4.991  1.00  0.00    -0.016 A 
HETATM   19  C   UNL     1      40.776 -16.290   6.085  1.00  0.00     0.014 A 
HETATM   20  C   UNL     1      41.717 -16.979   6.859  1.00  0.00     0.038 A 
HETATM   21  C   UNL     1      43.070 -16.861   6.559  1.00  0.00     0.079 A 
HETATM   22  C   UNL     1      43.491 -16.103   5.468  1.00  0.00     0.038 A 
HETATM   23  C   UNL     1      42.551 -15.421   4.694  1.00  0.00     0.014 A 
BRANCH  21  24
HETATM   24  O   UNL     1      44.092 -17.520   7.270  1.00  0.00    -0.276 OA
BRANCH  24  25
HETATM   25  C   UNL     1      44.029 -18.882   7.527  1.00  0.00     0.288 C 
HETATM   26  O   UNL     1      44.097 -19.434   8.615  1.00  0.00    -0.260 OA
BRANCH  25  27
HETATM   27  C   UNL     1      43.876 -19.645   6.269  1.00  0.00     0.085 C 
HETATM   28  C   UNL     1      44.753 -19.608   5.255  1.00  0.00     0.043 C 
BRANCH  28  29
HETATM   29  C   UNL     1      44.559 -20.408   4.096  1.00  0.00     0.075 A 
HETATM   30  O   UNL     1      44.690 -21.780   4.072  1.00  0.00    -0.323 OA
HETATM   31  C   UNL     1      44.441 -22.213   2.812  1.00  0.00     0.142 A 
HETATM   32  C   UNL     1      44.147 -21.155   1.992  1.00  0.00     0.027 A 
HETATM   33  C   UNL     1      44.219 -20.002   2.810  1.00  0.00     0.039 A 
ENDBRANCH  28  29
ENDBRANCH  25  27
ENDBRANCH  24  25
ENDBRANCH  21  24
ENDBRANCH   9  18
BRANCH   1  34
HETATM   34  C   UNL     1      42.336 -11.920  -3.579  1.00  0.00     0.273 C 
BRANCH  34  35
HETATM   35  C   UNL     1      41.823 -10.631  -4.162  1.00  0.00    -0.033 A 
HETATM   36  C   UNL     1      40.641 -10.048  -3.678  1.00  0.00     0.009 A 
HETATM   37  C   UNL     1      40.155  -8.865  -4.234  1.00  0.00     0.001 A 
HETATM   38  C   UNL     1      40.844  -8.248  -5.275  1.00  0.00     0.000 A 
HETATM   39  C   UNL     1      42.025  -8.807  -5.757  1.00  0.00     0.001 A 
HETATM   40  C   UNL     1      42.515  -9.991  -5.203  1.00  0.00     0.009 A 
ENDBRANCH  34  35
ENDBRANCH   1  34
TORSDOF 7
ENDMDL
MODEL 7
REMARK VINA RESULT:      -8.5      2.316      3.091
REMARK  7 active torsions:
REMARK  status: ('A' for Active; 'I' for Inactive)
REMARK    1  A    between atoms: C_4  and  C_5 
REMARK    2  A    between atoms: C_5  and  N_6 
REMARK    3  A    between atoms: C_14  and  C_15 
REMARK    4  A    between atoms: C_18  and  O_19 
REMARK    5  A    between atoms: O_19  and  C_20 
REMARK    6  A    between atoms: C_20  and  C_21 
REMARK    7  A    between atoms: C_22  and  C_23 
ROOT
HETATM    1  N   UNL     1      43.141 -18.298   2.197  1.00  0.00    -0.063 N 
HETATM    2  H   UNL     1      42.235 -18.373   1.719  1.00  0.00     0.280 HD
HETATM    3  C   UNL     1      42.800 -18.273   3.679  1.00  0.00     0.282 C 
HETATM    4  C   UNL     1      41.998 -17.053   3.982  1.00  0.00     0.018 A 
HETATM    5  C   UNL     1      41.953 -15.921   3.189  1.00  0.00    -0.023 A 
HETATM    6  C   UNL     1      41.084 -14.931   3.752  1.00  0.00     0.073 A 
HETATM    7  C   UNL     1      40.514 -15.362   4.925  1.00  0.00     0.088 A 
HETATM    8  N   UNL     1      39.628 -14.635   5.632  1.00  0.00    -0.358 N 
HETATM    9  C   UNL     1      39.426 -13.234   5.333  1.00  0.00     0.219 C 
HETATM   10  N   UNL     1      39.886 -12.887   4.012  1.00  0.00    -0.332 N 
HETATM   11  C   UNL     1      40.743 -13.618   3.242  1.00  0.00     0.256 C 
HETATM   12  O   UNL     1      41.185 -13.188   2.182  1.00  0.00    -0.267 OA
HETATM   13  S   UNL     1      41.036 -16.916   5.377  1.00  0.00    -0.074 SA
HETATM   14  C   UNL     1      42.708 -15.833   1.894  1.00  0.00     0.068 C 
HETATM   15  C   UNL     1      43.742 -16.968   1.754  1.00  0.00     0.240 C 
HETATM   16  H   UNL     1      39.409 -14.902   6.588  1.00  0.00     0.162 HD
HETATM   17  H   UNL     1      39.695 -11.955   3.676  1.00  0.00     0.165 HD
ENDROOT
BRANCH   9  18
HETATM   18  C   UNL     1      40.040 -12.373   6.420  1.00  0.00    -0.016 A 
HETATM   19  C   UNL     1      39.328 -12.004   7.575  1.00  0.00     0.014 A 
HETATM   20  C   UNL     1      39.905 -11.172   8.540  1.00  0.00     0.038 A 
HETATM   21  C   UNL     1      41.191 -10.680   8.340  1.00  0.00     0.079 A 
HETATM   22  C   UNL     1      41.924 -11.048   7.213  1.00  0.00     0.038 A 
HETATM   23  C   UNL     1      41.348 -11.882   6.254  1.00  0.00     0.014 A 
BRANCH  21  24
HETATM   24  O   UNL     1      41.863  -9.845   9.254  1.00  0.00    -0.276 OA
BRANCH  24  25
HETATM   25  C   UNL     1      41.238  -8.742   9.817  1.00  0.00     0.288 C 
HETATM   26  O   UNL     1      40.777  -7.773   9.233  1.00  0.00    -0.260 OA
BRANCH  25  27
HETATM   27  C   UNL     1      41.197  -8.861  11.291  1.00  0.00     0.085 C 
HETATM   28  C   UNL     1      42.277  -8.796  12.082  1.00  0.00     0.043 C 
BRANCH  28  29
HETATM   29  C   UNL     1      42.149  -8.872  13.496  1.00  0.00     0.075 A 
HETATM   30  O   UNL     1      41.724  -7.830  14.292  1.00  0.00    -0.323 OA
HETATM   31  C   UNL     1      41.726  -8.246  15.582  1.00  0.00     0.142 A 
HETATM   32  C   UNL     1      42.148  -9.548  15.663  1.00  0.00     0.027 A 
HETATM   33  C   UNL     1      42.416  -9.950  14.333  1.00  0.00     0.039 A 
ENDBRANCH  28  29
ENDBRANCH  25  27
ENDBRANCH  24  25
ENDBRANCH  21  24
ENDBRANCH   9  18
BRANCH   1  34
HETATM   34  C   UNL     1      43.922 -19.513   1.774  1.00  0.00     0.273 C 
BRANCH  34  35
HETATM   35  C   UNL     1      44.268 -20.485   2.869  1.00  0.00    -0.033 A 
HETATM   36  C   UNL     1      44.634 -20.024   4.144  1.00  0.00     0.009 A 
HETATM   37  C   UNL     1      44.977 -20.926   5.152  1.00  0.00     0.001 A 
HETATM   38  C   UNL     1      44.953 -22.295   4.901  1.00  0.00     0.000 A 
HETATM   39  C   UNL     1      44.579 -22.767   3.646  1.00  0.00     0.001 A 
HETATM   40  C   UNL     1      44.236 -21.869   2.635  1.00  0.00     0.009 A 
ENDBRANCH  34  35
ENDBRANCH   1  34
TORSDOF 7
ENDMDL
MODEL 8
REMARK VINA RESULT:      -8.5      5.157      9.404
REMARK  7 active torsions:
REMARK  status: ('A' for Active; 'I' for Inactive)
REMARK    1  A    between atoms: C_4  and  C_5 
REMARK    2  A    between atoms: C_5  and  N_6 
REMARK    3  A    between atoms: C_14  and  C_15 
REMARK    4  A    between atoms: C_18  and  O_19 
REMARK    5  A    between atoms: O_19  and  C_20 
REMARK    6  A    between atoms: C_20  and  C_21 
REMARK    7  A    between atoms: C_22  and  C_23 
ROOT
HETATM    1  N   UNL     1      40.120 -12.604  -1.207  1.00  0.00    -0.063 N 
HETATM    2  H   UNL     1      39.335 -12.063  -0.823  1.00  0.00     0.280 HD
HETATM    3  C   UNL     1      39.930 -14.011  -0.661  1.00  0.00     0.282 C 
HETATM    4  C   UNL     1      40.051 -13.984   0.824  1.00  0.00     0.018 A 
HETATM    5  C   UNL     1      40.671 -12.982   1.548  1.00  0.00    -0.023 A 
HETATM    6  C   UNL     1      40.610 -13.249   2.955  1.00  0.00     0.073 A 
HETATM    7  C   UNL     1      39.949 -14.422   3.222  1.00  0.00     0.088 A 
HETATM    8  N   UNL     1      39.720 -14.880   4.468  1.00  0.00    -0.358 N 
HETATM    9  C   UNL     1      40.401 -14.291   5.601  1.00  0.00     0.219 C 
HETATM   10  N   UNL     1      40.919 -12.979   5.302  1.00  0.00    -0.332 N 
HETATM   11  C   UNL     1      41.118 -12.458   4.057  1.00  0.00     0.256 C 
HETATM   12  O   UNL     1      41.684 -11.382   3.891  1.00  0.00    -0.267 OA
HETATM   13  S   UNL     1      39.435 -15.223   1.813  1.00  0.00    -0.074 SA
HETATM   14  C   UNL     1      41.265 -11.776   0.880  1.00  0.00     0.068 C 
HETATM   15  C   UNL     1      41.386 -11.967  -0.645  1.00  0.00     0.240 C 
HETATM   16  H   UNL     1      39.426 -15.844   4.603  1.00  0.00     0.162 HD
HETATM   17  H   UNL     1      41.320 -12.447   6.060  1.00  0.00     0.165 HD
ENDROOT
BRANCH   9  18
HETATM   18  C   UNL     1      41.460 -15.240   6.127  1.00  0.00    -0.016 A 
HETATM   19  C   UNL     1      42.825 -14.901   6.150  1.00  0.00     0.014 A 
HETATM   20  C   UNL     1      43.784 -15.815   6.600  1.00  0.00     0.038 A 
HETATM   21  C   UNL     1      43.386 -17.085   7.001  1.00  0.00     0.079 A 
HETATM   22  C   UNL     1      42.037 -17.437   7.005  1.00  0.00     0.038 A 
HETATM   23  C   UNL     1      41.081 -16.523   6.562  1.00  0.00     0.014 A 
BRANCH  21  24
HETATM   24  O   UNL     1      44.271 -18.072   7.477  1.00  0.00    -0.276 OA
BRANCH  24  25
HETATM   25  C   UNL     1      44.017 -19.422   7.285  1.00  0.00     0.288 C 
HETATM   26  O   UNL     1      43.860 -20.276   8.144  1.00  0.00    -0.260 OA
BRANCH  25  27
HETATM   27  C   UNL     1      43.965 -19.744   5.842  1.00  0.00     0.085 C 
HETATM   28  C   UNL     1      44.527 -20.830   5.292  1.00  0.00     0.043 C 
BRANCH  28  29
HETATM   29  C   UNL     1      44.393 -21.094   3.902  1.00  0.00     0.075 A 
HETATM   30  O   UNL     1      43.946 -20.173   2.979  1.00  0.00    -0.323 OA
HETATM   31  C   UNL     1      43.938 -20.759   1.757  1.00  0.00     0.142 A 
HETATM   32  C   UNL     1      44.368 -22.058   1.847  1.00  0.00     0.027 A 
HETATM   33  C   UNL     1      44.662 -22.273   3.215  1.00  0.00     0.039 A 
ENDBRANCH  28  29
ENDBRANCH  25  27
ENDBRANCH  24  25
ENDBRANCH  21  24
ENDBRANCH   9  18
BRANCH   1  34
HETATM   34  C   UNL     1      39.979 -12.509  -2.704  1.00  0.00     0.273 C 
BRANCH  34  35
HETATM   35  C   UNL     1      38.752 -13.155  -3.290  1.00  0.00    -0.033 A 
HETATM   36  C   UNL     1      38.734 -14.531  -3.569  1.00  0.00     0.009 A 
HETATM   37  C   UNL     1      37.604 -15.124  -4.132  1.00  0.00     0.001 A 
HETATM   38  C   UNL     1      36.480 -14.354  -4.418  1.00  0.00     0.000 A 
HETATM   39  C   UNL     1      36.479 -12.991  -4.134  1.00  0.00     0.001 A 
HETATM   40  C   UNL     1      37.607 -12.393  -3.570  1.00  0.00     0.009 A 
ENDBRANCH  34  35
ENDBRANCH   1  34
TORSDOF 7
ENDMDL
MODEL 9
REMARK VINA RESULT:      -8.3      5.614      8.063
REMARK  7 active torsions:
REMARK  status: ('A' for Active; 'I' for Inactive)
REMARK    1  A    between atoms: C_4  and  C_5 
REMARK    2  A    between atoms: C_5  and  N_6 
REMARK    3  A    between atoms: C_14  and  C_15 
REMARK    4  A    between atoms: C_18  and  O_19 
REMARK    5  A    between atoms: O_19  and  C_20 
REMARK    6  A    between atoms: C_20  and  C_21 
REMARK    7  A    between atoms: C_22  and  C_23 
ROOT
HETATM    1  N   UNL     1      42.896 -16.949   4.782  1.00  0.00    -0.063 N 
HETATM    2  H   UNL     1      43.495 -17.213   3.990  1.00  0.00     0.280 HD
HETATM    3  C   UNL     1      41.475 -17.171   4.286  1.00  0.00     0.282 C 
HETATM    4  C   UNL     1      41.198 -16.247   3.150  1.00  0.00     0.018 A 
HETATM    5  C   UNL     1      41.909 -15.091   2.881  1.00  0.00    -0.023 A 
HETATM    6  C   UNL     1      41.399 -14.432   1.715  1.00  0.00     0.073 A 
HETATM    7  C   UNL     1      40.346 -15.119   1.161  1.00  0.00     0.088 A 
HETATM    8  N   UNL     1      39.716 -14.732   0.036  1.00  0.00    -0.358 N 
HETATM    9  C   UNL     1      39.940 -13.412  -0.512  1.00  0.00     0.219 C 
HETATM   10  N   UNL     1      41.160 -12.820  -0.023  1.00  0.00    -0.332 N 
HETATM   11  C   UNL     1      41.857 -13.212   1.082  1.00  0.00     0.256 C 
HETATM   12  O   UNL     1      42.814 -12.571   1.501  1.00  0.00    -0.267 OA
HETATM   13  S   UNL     1      39.938 -16.517   2.040  1.00  0.00    -0.074 SA
HETATM   14  C   UNL     1      43.081 -14.671   3.720  1.00  0.00     0.068 C 
HETATM   15  C   UNL     1      43.160 -15.469   5.036  1.00  0.00     0.240 C 
HETATM   16  H   UNL     1      38.819 -15.146  -0.205  1.00  0.00     0.162 HD
HETATM   17  H   UNL     1      41.452 -11.942  -0.427  1.00  0.00     0.165 HD
ENDROOT
BRANCH   9  18
HETATM   18  C   UNL     1      38.722 -12.537  -0.283  1.00  0.00    -0.016 A 
HETATM   19  C   UNL     1      37.602 -12.987   0.437  1.00  0.00     0.014 A 
HETATM   20  C   UNL     1      36.474 -12.174   0.594  1.00  0.00     0.038 A 
HETATM   21  C   UNL     1      36.450 -10.915   0.005  1.00  0.00     0.079 A 
HETATM   22  C   UNL     1      37.556 -10.439  -0.698  1.00  0.00     0.038 A 
HETATM   23  C   UNL     1      38.682 -11.250  -0.849  1.00  0.00     0.014 A 
BRANCH  21  24
HETATM   24  O   UNL     1      35.369 -10.018   0.111  1.00  0.00    -0.276 OA
BRANCH  24  25
HETATM   25  C   UNL     1      34.057 -10.452  -0.016  1.00  0.00     0.288 C 
HETATM   26  O   UNL     1      33.536 -10.958  -0.998  1.00  0.00    -0.260 OA
BRANCH  25  27
HETATM   27  C   UNL     1      33.304 -10.211   1.234  1.00  0.00     0.085 C 
HETATM   28  C   UNL     1      33.790  -9.540   2.289  1.00  0.00     0.043 C 
BRANCH  28  29
HETATM   29  C   UNL     1      32.986  -9.309   3.438  1.00  0.00     0.075 A 
HETATM   30  O   UNL     1      31.629  -9.070   3.397  1.00  0.00    -0.323 OA
HETATM   31  C   UNL     1      31.188  -8.889   4.666  1.00  0.00     0.142 A 
HETATM   32  C   UNL     1      32.226  -9.001   5.554  1.00  0.00     0.027 A 
HETATM   33  C   UNL     1      33.374  -9.271   4.773  1.00  0.00     0.039 A 
ENDBRANCH  28  29
ENDBRANCH  25  27
ENDBRANCH  24  25
ENDBRANCH  21  24
ENDBRANCH   9  18
BRANCH   1  34
HETATM   34  C   UNL     1      43.295 -17.863   5.910  1.00  0.00     0.273 C 
BRANCH  34  35
HETATM   35  C   UNL     1      43.854 -19.200   5.506  1.00  0.00    -0.033 A 
HETATM   36  C   UNL     1      44.401 -19.388   4.227  1.00  0.00     0.009 A 
HETATM   37  C   UNL     1      44.899 -20.635   3.846  1.00  0.00     0.001 A 
HETATM   38  C   UNL     1      44.863 -21.703   4.738  1.00  0.00     0.000 A 
HETATM   39  C   UNL     1      44.336 -21.527   6.015  1.00  0.00     0.001 A 
HETATM   40  C   UNL     1      43.837 -20.283   6.400  1.00  0.00     0.009 A 
ENDBRANCH  34  35
ENDBRANCH   1  34
TORSDOF 7
ENDMDL
MODEL 10
REMARK VINA RESULT:      -8.3      5.699      7.820
REMARK  7 active torsions:
REMARK  status: ('A' for Active; 'I' for Inactive)
REMARK    1  A    between atoms: C_4  and  C_5 
REMARK    2  A    between atoms: C_5  and  N_6 
REMARK    3  A    between atoms: C_14  and  C_15 
REMARK    4  A    between atoms: C_18  and  O_19 
REMARK    5  A    between atoms: O_19  and  C_20 
REMARK    6  A    between atoms: C_20  and  C_21 
REMARK    7  A    between atoms: C_22  and  C_23 
ROOT
HETATM    1  N   UNL     1      43.598 -17.653   4.120  1.00  0.00    -0.063 N 
HETATM    2  H   UNL     1      44.280 -17.633   3.351  1.00  0.00     0.280 HD
HETATM    3  C   UNL     1      42.276 -18.016   3.461  1.00  0.00     0.282 C 
HETATM    4  C   UNL     1      41.887 -16.938   2.507  1.00  0.00     0.018 A 
HETATM    5  C   UNL     1      42.373 -15.644   2.537  1.00  0.00    -0.023 A 
HETATM    6  C   UNL     1      41.810 -14.856   1.481  1.00  0.00     0.073 A 
HETATM    7  C   UNL     1      40.941 -15.588   0.708  1.00  0.00     0.088 A 
HETATM    8  N   UNL     1      40.309 -15.093  -0.373  1.00  0.00    -0.358 N 
HETATM    9  C   UNL     1      40.302 -13.668  -0.627  1.00  0.00     0.219 C 
HETATM   10  N   UNL     1      41.356 -12.984   0.079  1.00  0.00    -0.332 N 
HETATM   11  C   UNL     1      42.055 -13.469   1.146  1.00  0.00     0.256 C 
HETATM   12  O   UNL     1      42.846 -12.769   1.770  1.00  0.00    -0.267 OA
HETATM   13  S   UNL     1      40.766 -17.189   1.254  1.00  0.00    -0.074 SA
HETATM   14  C   UNL     1      43.394 -15.207   3.548  1.00  0.00     0.068 C 
HETATM   15  C   UNL     1      43.556 -16.237   4.683  1.00  0.00     0.240 C 
HETATM   16  H   UNL     1      39.524 -15.600  -0.772  1.00  0.00     0.162 HD
HETATM   17  H   UNL     1      41.494 -12.003  -0.116  1.00  0.00     0.165 HD
ENDROOT
BRANCH   9  18
HETATM   18  C   UNL     1      38.928 -13.093  -0.345  1.00  0.00    -0.016 A 
HETATM   19  C   UNL     1      38.065 -12.677  -1.375  1.00  0.00     0.014 A 
HETATM   20  C   UNL     1      36.820 -12.109  -1.083  1.00  0.00     0.038 A 
HETATM   21  C   UNL     1      36.444 -11.926   0.243  1.00  0.00     0.079 A 
HETATM   22  C   UNL     1      37.275 -12.347   1.280  1.00  0.00     0.038 A 
HETATM   23  C   UNL     1      38.513 -12.920   0.987  1.00  0.00     0.014 A 
BRANCH  21  24
HETATM   24  O   UNL     1      35.212 -11.372   0.641  1.00  0.00    -0.276 OA
BRANCH  24  25
HETATM   25  C   UNL     1      35.010 -10.000   0.659  1.00  0.00     0.288 C 
HETATM   26  O   UNL     1      35.222  -9.208  -0.246  1.00  0.00    -0.260 OA
BRANCH  25  27
HETATM   27  C   UNL     1      34.490  -9.565   1.974  1.00  0.00     0.085 C 
HETATM   28  C   UNL     1      33.202  -9.643   2.338  1.00  0.00     0.043 C 
BRANCH  28  29
HETATM   29  C   UNL     1      32.788  -9.248   3.639  1.00  0.00     0.075 A 
HETATM   30  O   UNL     1      32.206  -8.033   3.931  1.00  0.00    -0.323 OA
HETATM   31  C   UNL     1      31.945  -7.991   5.261  1.00  0.00     0.142 A 
HETATM   32  C   UNL     1      32.346  -9.155   5.864  1.00  0.00     0.027 A 
HETATM   33  C   UNL     1      32.882  -9.960   4.831  1.00  0.00     0.039 A 
ENDBRANCH  28  29
ENDBRANCH  25  27
ENDBRANCH  24  25
ENDBRANCH  21  24
ENDBRANCH   9  18
BRANCH   1  34
HETATM   34  C   UNL     1      44.105 -18.697   5.079  1.00  0.00     0.273 C 
BRANCH  34  35
HETATM   35  C   UNL     1      44.333 -20.066   4.499  1.00  0.00    -0.033 A 
HETATM   36  C   UNL     1      44.350 -20.259   3.108  1.00  0.00     0.009 A 
HETATM   37  C   UNL     1      44.540 -21.534   2.572  1.00  0.00     0.001 A 
HETATM   38  C   UNL     1      44.721 -22.626   3.416  1.00  0.00     0.000 A 
HETATM   39  C   UNL     1      44.721 -22.447   4.797  1.00  0.00     0.001 A 
HETATM   40  C   UNL     1      44.531 -21.175   5.337  1.00  0.00     0.009 A 
ENDBRANCH  34  35
ENDBRANCH   1  34
TORSDOF 7
ENDMDL
