MODEL 1
REMARK VINA RESULT:      -9.6      0.000      0.000
REMARK  8 active torsions:
REMARK  status: ('A' for Active; 'I' for Inactive)
REMARK    1  A    between atoms: C_2  and  C_3 
REMARK    2  A    between atoms: C_5  and  C_6 
REMARK       I    between atoms: C_6  and  N_7 
REMARK    3  A    between atoms: N_7  and  C_8 
REMARK    4  A    between atoms: C_8  and  C_9 
REMARK    5  A    between atoms: C_9  and  N_10 
REMARK    6  A    between atoms: C_9  and  C_20 
REMARK       I    between atoms: N_10  and  C_11 
REMARK    7  A    between atoms: C_11  and  C_12 
REMARK    8  A    between atoms: C_14  and  C_15 
ROOT
HETATM    1  C   UNL     1      43.921 -15.285   6.708  1.00  0.00     0.136 C 
ENDROOT
BRANCH   1   2
HETATM    2  C   UNL     1      43.572 -16.657   7.339  1.00  0.00     0.153 C 
BRANCH   2   3
HETATM    3  N   UNL     1      43.878 -17.786   6.480  1.00  0.00    -0.353 N 
HETATM    4  C   UNL     1      44.045 -19.063   6.966  1.00  0.00     0.275 C 
HETATM    5  O   UNL     1      43.995 -19.315   8.168  1.00  0.00    -0.265 OA
HETATM    6  H   UNL     1      43.809 -17.666   5.474  1.00  0.00     0.162 HD
BRANCH   4   7
HETATM    7  C   UNL     1      44.268 -20.065   5.946  1.00  0.00     0.143 A 
HETATM    8  O   UNL     1      44.304 -19.694   4.626  1.00  0.00    -0.310 OA
HETATM    9  C   UNL     1      44.545 -20.818   3.895  1.00  0.00     0.053 A 
HETATM   10  C   UNL     1      44.654 -21.912   4.727  1.00  0.00     0.036 A 
HETATM   11  C   UNL     1      44.475 -21.428   6.044  1.00  0.00     0.045 A 
BRANCH   9  12
HETATM   12  C   UNL     1      44.644 -20.645   2.425  1.00  0.00     0.060 C 
HETATM   13  C   UNL     1      44.156 -21.877   1.683  1.00  0.00     0.012 C 
ENDBRANCH   9  12
ENDBRANCH   4   7
ENDBRANCH   2   3
ENDBRANCH   1   2
BRANCH   1  14
HETATM   14  N   UNL     1      44.110 -14.177   7.640  1.00  0.00    -0.345 N 
HETATM   15  C   UNL     1      45.174 -13.307   7.664  1.00  0.00     0.276 C 
HETATM   16  O   UNL     1      46.036 -13.270   6.792  1.00  0.00    -0.265 OA
HETATM   17  H   UNL     1      43.516 -14.161   8.460  1.00  0.00     0.163 HD
BRANCH  15  18
HETATM   18  C   UNL     1      45.181 -12.434   8.821  1.00  0.00     0.143 A 
HETATM   19  O   UNL     1      44.211 -12.576   9.780  1.00  0.00    -0.310 OA
HETATM   20  C   UNL     1      44.459 -11.649  10.748  1.00  0.00     0.053 A 
HETATM   21  C   UNL     1      45.577 -10.912  10.425  1.00  0.00     0.036 A 
HETATM   22  C   UNL     1      46.041 -11.415   9.186  1.00  0.00     0.045 A 
BRANCH  20  23
HETATM   23  C   UNL     1      43.522 -11.626  11.899  1.00  0.00     0.060 C 
HETATM   24  C   UNL     1      43.486 -10.258  12.560  1.00  0.00     0.012 C 
ENDBRANCH  20  23
ENDBRANCH  15  18
ENDBRANCH   1  14
BRANCH   1  25
HETATM   25  C   UNL     1      42.951 -14.904   5.601  1.00  0.00    -0.031 A 
HETATM   26  C   UNL     1      43.370 -14.184   4.469  1.00  0.00     0.049 A 
HETATM   27  C   UNL     1      42.460 -13.851   3.464  1.00  0.00     0.102 A 
HETATM   28  C   UNL     1      41.114 -14.200   3.592  1.00  0.00     0.102 A 
HETATM   29  O   UNL     1      42.960 -13.172   2.382  1.00  0.00    -0.346 OA
HETATM   30  O   UNL     1      40.160 -13.874   2.662  1.00  0.00    -0.346 OA
HETATM   31  C   UNL     1      40.686 -14.921   4.703  1.00  0.00     0.040 A 
HETATM   32  C   UNL     1      40.633 -12.865   1.763  1.00  0.00     0.202 C 
HETATM   33  C   UNL     1      42.039 -13.189   1.287  1.00  0.00     0.202 C 
HETATM   34  C   UNL     1      41.597 -15.271   5.701  1.00  0.00     0.012 A 
ENDBRANCH   1  25
TORSDOF 8
ENDMDL
MODEL 2
REMARK VINA RESULT:      -9.2      2.291      8.904
REMARK  8 active torsions:
REMARK  status: ('A' for Active; 'I' for Inactive)
REMARK    1  A    between atoms: C_2  and  C_3 
REMARK    2  A    between atoms: C_5  and  C_6 
REMARK       I    between atoms: C_6  and  N_7 
REMARK    3  A    between atoms: N_7  and  C_8 
REMARK    4  A    between atoms: C_8  and  C_9 
REMARK    5  A    between atoms: C_9  and  N_10 
REMARK    6  A    between atoms: C_9  and  C_20 
REMARK       I    between atoms: N_10  and  C_11 
REMARK    7  A    between atoms: C_11  and  C_12 
REMARK    8  A    between atoms: C_14  and  C_15 
ROOT
HETATM    1  C   UNL     1      43.266 -15.931   3.723  1.00  0.00     0.136 C 
ENDROOT
BRANCH   1   2
HETATM    2  C   UNL     1      42.612 -15.468   5.050  1.00  0.00     0.153 C 
BRANCH   2   3
HETATM    3  N   UNL     1      43.424 -14.528   5.801  1.00  0.00    -0.353 N 
HETATM    4  C   UNL     1      44.050 -14.867   6.980  1.00  0.00     0.275 C 
HETATM    5  O   UNL     1      43.915 -15.974   7.494  1.00  0.00    -0.265 OA
HETATM    6  H   UNL     1      43.673 -13.644   5.368  1.00  0.00     0.162 HD
BRANCH   4   7
HETATM    7  C   UNL     1      44.876 -13.818   7.538  1.00  0.00     0.143 A 
HETATM    8  O   UNL     1      44.555 -13.276   8.756  1.00  0.00    -0.310 OA
HETATM    9  C   UNL     1      45.500 -12.337   9.043  1.00  0.00     0.053 A 
HETATM   10  C   UNL     1      46.419 -12.259   8.020  1.00  0.00     0.036 A 
HETATM   11  C   UNL     1      46.018 -13.209   7.052  1.00  0.00     0.045 A 
BRANCH   9  12
HETATM   12  C   UNL     1      45.358 -11.629  10.340  1.00  0.00     0.060 C 
HETATM   13  C   UNL     1      44.278 -12.256  11.203  1.00  0.00     0.012 C 
ENDBRANCH   9  12
ENDBRANCH   4   7
ENDBRANCH   2   3
ENDBRANCH   1   2
BRANCH   1  14
HETATM   14  N   UNL     1      42.550 -15.588   2.497  1.00  0.00    -0.345 N 
HETATM   15  C   UNL     1      42.396 -14.328   1.970  1.00  0.00     0.276 C 
HETATM   16  O   UNL     1      42.981 -13.340   2.401  1.00  0.00    -0.265 OA
HETATM   17  H   UNL     1      41.949 -16.302   2.103  1.00  0.00     0.163 HD
BRANCH  15  18
HETATM   18  C   UNL     1      41.473 -14.278   0.854  1.00  0.00     0.143 A 
HETATM   19  O   UNL     1      41.748 -14.995  -0.283  1.00  0.00    -0.310 OA
HETATM   20  C   UNL     1      40.725 -14.779  -1.156  1.00  0.00     0.053 A 
HETATM   21  C   UNL     1      39.793 -13.931  -0.596  1.00  0.00     0.036 A 
HETATM   22  C   UNL     1      40.275 -13.609   0.695  1.00  0.00     0.045 A 
BRANCH  20  23
HETATM   23  C   UNL     1      40.815 -15.469  -2.467  1.00  0.00     0.060 C 
HETATM   24  C   UNL     1      39.955 -14.785  -3.517  1.00  0.00     0.012 C 
ENDBRANCH  20  23
ENDBRANCH  15  18
ENDBRANCH   1  14
BRANCH   1  25
HETATM   25  C   UNL     1      43.622 -17.409   3.749  1.00  0.00    -0.031 A 
HETATM   26  C   UNL     1      43.780 -18.107   4.959  1.00  0.00     0.049 A 
HETATM   27  C   UNL     1      44.103 -19.465   4.955  1.00  0.00     0.102 A 
HETATM   28  C   UNL     1      44.307 -20.136   3.747  1.00  0.00     0.102 A 
HETATM   29  O   UNL     1      44.211 -20.075   6.179  1.00  0.00    -0.346 OA
HETATM   30  O   UNL     1      44.661 -21.459   3.670  1.00  0.00    -0.346 OA
HETATM   31  C   UNL     1      44.144 -19.460   2.541  1.00  0.00     0.040 A 
HETATM   32  C   UNL     1      45.125 -21.948   4.933  1.00  0.00     0.202 C 
HETATM   33  C   UNL     1      44.199 -21.501   6.053  1.00  0.00     0.202 C 
HETATM   34  C   UNL     1      43.804 -18.106   2.542  1.00  0.00     0.012 A 
ENDBRANCH   1  25
TORSDOF 8
ENDMDL
MODEL 3
REMARK VINA RESULT:      -9.1      1.620      2.239
REMARK  8 active torsions:
REMARK  status: ('A' for Active; 'I' for Inactive)
REMARK    1  A    between atoms: C_2  and  C_3 
REMARK    2  A    between atoms: C_5  and  C_6 
REMARK       I    between atoms: C_6  and  N_7 
REMARK    3  A    between atoms: N_7  and  C_8 
REMARK    4  A    between atoms: C_8  and  C_9 
REMARK    5  A    between atoms: C_9  and  N_10 
REMARK    6  A    between atoms: C_9  and  C_20 
REMARK       I    between atoms: N_10  and  C_11 
REMARK    7  A    between atoms: C_11  and  C_12 
REMARK    8  A    between atoms: C_14  and  C_15 
ROOT
HETATM    1  C   UNL     1      44.066 -14.502   6.360  1.00  0.00     0.136 C 
ENDROOT
BRANCH   1   2
HETATM    2  C   UNL     1      43.744 -15.974   6.725  1.00  0.00     0.153 C 
BRANCH   2   3
HETATM    3  N   UNL     1      43.844 -16.887   5.601  1.00  0.00    -0.353 N 
HETATM    4  C   UNL     1      42.738 -17.430   4.987  1.00  0.00     0.275 C 
HETATM    5  O   UNL     1      41.597 -17.214   5.390  1.00  0.00    -0.265 OA
HETATM    6  H   UNL     1      44.745 -17.004   5.148  1.00  0.00     0.162 HD
BRANCH   4   7
HETATM    7  C   UNL     1      43.040 -18.254   3.836  1.00  0.00     0.143 A 
HETATM    8  O   UNL     1      43.708 -19.440   4.006  1.00  0.00    -0.310 OA
HETATM    9  C   UNL     1      43.839 -20.010   2.776  1.00  0.00     0.053 A 
HETATM   10  C   UNL     1      43.275 -19.202   1.814  1.00  0.00     0.036 A 
HETATM   11  C   UNL     1      42.762 -18.073   2.495  1.00  0.00     0.045 A 
BRANCH   9  12
HETATM   12  C   UNL     1      44.524 -21.326   2.726  1.00  0.00     0.060 C 
HETATM   13  C   UNL     1      44.206 -22.072   1.442  1.00  0.00     0.012 C 
ENDBRANCH   9  12
ENDBRANCH   4   7
ENDBRANCH   2   3
ENDBRANCH   1   2
BRANCH   1  14
HETATM   14  N   UNL     1      44.174 -13.570   7.478  1.00  0.00    -0.345 N 
HETATM   15  C   UNL     1      45.317 -12.930   7.896  1.00  0.00     0.276 C 
HETATM   16  O   UNL     1      46.373 -12.957   7.273  1.00  0.00    -0.265 OA
HETATM   17  H   UNL     1      43.395 -13.537   8.125  1.00  0.00     0.163 HD
BRANCH  15  18
HETATM   18  C   UNL     1      45.156 -12.219   9.149  1.00  0.00     0.143 A 
HETATM   19  O   UNL     1      44.273 -12.692  10.086  1.00  0.00    -0.310 OA
HETATM   20  C   UNL     1      44.328 -11.851  11.156  1.00  0.00     0.053 A 
HETATM   21  C   UNL     1      45.235 -10.841  10.921  1.00  0.00     0.036 A 
HETATM   22  C   UNL     1      45.766 -11.077   9.631  1.00  0.00     0.045 A 
BRANCH  20  23
HETATM   23  C   UNL     1      43.445 -12.179  12.304  1.00  0.00     0.060 C 
HETATM   24  C   UNL     1      42.859 -10.926  12.932  1.00  0.00     0.012 C 
ENDBRANCH  20  23
ENDBRANCH  15  18
ENDBRANCH   1  14
BRANCH   1  25
HETATM   25  C   UNL     1      43.127 -13.963   5.292  1.00  0.00    -0.031 A 
HETATM   26  C   UNL     1      41.798 -13.616   5.587  1.00  0.00     0.049 A 
HETATM   27  C   UNL     1      40.958 -13.118   4.588  1.00  0.00     0.102 A 
HETATM   28  C   UNL     1      41.422 -12.995   3.277  1.00  0.00     0.102 A 
HETATM   29  O   UNL     1      39.684 -12.779   4.969  1.00  0.00    -0.346 OA
HETATM   30  O   UNL     1      40.642 -12.549   2.241  1.00  0.00    -0.346 OA
HETATM   31  C   UNL     1      42.739 -13.326   2.972  1.00  0.00     0.040 A 
HETATM   32  C   UNL     1      39.254 -12.568   2.589  1.00  0.00     0.202 C 
HETATM   33  C   UNL     1      39.041 -11.976   3.973  1.00  0.00     0.202 C 
HETATM   34  C   UNL     1      43.587 -13.807   3.972  1.00  0.00     0.012 A 
ENDBRANCH   1  25
TORSDOF 8
ENDMDL
MODEL 4
REMARK VINA RESULT:      -9.0      1.568      8.166
REMARK  8 active torsions:
REMARK  status: ('A' for Active; 'I' for Inactive)
REMARK    1  A    between atoms: C_2  and  C_3 
REMARK    2  A    between atoms: C_5  and  C_6 
REMARK       I    between atoms: C_6  and  N_7 
REMARK    3  A    between atoms: N_7  and  C_8 
REMARK    4  A    between atoms: C_8  and  C_9 
REMARK    5  A    between atoms: C_9  and  N_10 
REMARK    6  A    between atoms: C_9  and  C_20 
REMARK       I    between atoms: N_10  and  C_11 
REMARK    7  A    between atoms: C_11  and  C_12 
REMARK    8  A    between atoms: C_14  and  C_15 
ROOT
HETATM    1  C   UNL     1      43.363 -14.944   6.046  1.00  0.00     0.136 C 
ENDROOT
BRANCH   1   2
HETATM    2  C   UNL     1      44.596 -14.246   6.674  1.00  0.00     0.153 C 
BRANCH   2   3
HETATM    3  N   UNL     1      44.271 -13.405   7.811  1.00  0.00    -0.353 N 
HETATM    4  C   UNL     1      45.202 -12.600   8.428  1.00  0.00     0.275 C 
HETATM    5  O   UNL     1      46.381 -12.585   8.082  1.00  0.00    -0.265 OA
HETATM    6  H   UNL     1      43.295 -13.281   8.062  1.00  0.00     0.162 HD
BRANCH   4   7
HETATM    7  C   UNL     1      44.667 -11.779   9.493  1.00  0.00     0.143 A 
HETATM    8  O   UNL     1      43.376 -11.325   9.418  1.00  0.00    -0.310 OA
HETATM    9  C   UNL     1      43.134 -10.603  10.548  1.00  0.00     0.053 A 
HETATM   10  C   UNL     1      44.258 -10.576  11.345  1.00  0.00     0.036 A 
HETATM   11  C   UNL     1      45.243 -11.331  10.667  1.00  0.00     0.045 A 
BRANCH   9  12
HETATM   12  C   UNL     1      41.774 -10.026  10.687  1.00  0.00     0.060 C 
HETATM   13  C   UNL     1      40.779 -11.056  11.192  1.00  0.00     0.012 C 
ENDBRANCH   9  12
ENDBRANCH   4   7
ENDBRANCH   2   3
ENDBRANCH   1   2
BRANCH   1  14
HETATM   14  N   UNL     1      43.612 -16.223   5.387  1.00  0.00    -0.345 N 
HETATM   15  C   UNL     1      43.244 -17.463   5.851  1.00  0.00     0.276 C 
HETATM   16  O   UNL     1      42.516 -17.631   6.824  1.00  0.00    -0.265 OA
HETATM   17  H   UNL     1      44.281 -16.224   4.626  1.00  0.00     0.163 HD
BRANCH  15  18
HETATM   18  C   UNL     1      43.798 -18.558   5.079  1.00  0.00     0.143 A 
HETATM   19  O   UNL     1      43.310 -18.814   3.823  1.00  0.00    -0.310 OA
HETATM   20  C   UNL     1      44.007 -19.874   3.326  1.00  0.00     0.053 A 
HETATM   21  C   UNL     1      44.939 -20.304   4.246  1.00  0.00     0.036 A 
HETATM   22  C   UNL     1      44.804 -19.459   5.373  1.00  0.00     0.045 A 
BRANCH  20  23
HETATM   23  C   UNL     1      43.641 -20.326   1.960  1.00  0.00     0.060 C 
HETATM   24  C   UNL     1      43.993 -21.788   1.745  1.00  0.00     0.012 C 
ENDBRANCH  20  23
ENDBRANCH  15  18
ENDBRANCH   1  14
BRANCH   1  25
HETATM   25  C   UNL     1      42.581 -14.009   5.137  1.00  0.00    -0.031 A 
HETATM   26  C   UNL     1      42.984 -13.758   3.814  1.00  0.00     0.049 A 
HETATM   27  C   UNL     1      42.246 -12.898   3.000  1.00  0.00     0.102 A 
HETATM   28  C   UNL     1      41.117 -12.249   3.504  1.00  0.00     0.102 A 
HETATM   29  O   UNL     1      42.695 -12.732   1.714  1.00  0.00    -0.346 OA
HETATM   30  O   UNL     1      40.366 -11.365   2.773  1.00  0.00    -0.346 OA
HETATM   31  C   UNL     1      40.700 -12.494   4.809  1.00  0.00     0.040 A 
HETATM   32  C   UNL     1      41.064 -10.937   1.598  1.00  0.00     0.202 C 
HETATM   33  C   UNL     1      41.696 -12.124   0.889  1.00  0.00     0.202 C 
HETATM   34  C   UNL     1      41.426 -13.368   5.621  1.00  0.00     0.012 A 
ENDBRANCH   1  25
TORSDOF 8
ENDMDL
MODEL 5
REMARK VINA RESULT:      -8.6      1.875      8.251
REMARK  8 active torsions:
REMARK  status: ('A' for Active; 'I' for Inactive)
REMARK    1  A    between atoms: C_2  and  C_3 
REMARK    2  A    between atoms: C_5  and  C_6 
REMARK       I    between atoms: C_6  and  N_7 
REMARK    3  A    between atoms: N_7  and  C_8 
REMARK    4  A    between atoms: C_8  and  C_9 
REMARK    5  A    between atoms: C_9  and  N_10 
REMARK    6  A    between atoms: C_9  and  C_20 
REMARK       I    between atoms: N_10  and  C_11 
REMARK    7  A    between atoms: C_11  and  C_12 
REMARK    8  A    between atoms: C_14  and  C_15 
ROOT
HETATM    1  C   UNL     1      43.606 -16.329   4.319  1.00  0.00     0.136 C 
ENDROOT
BRANCH   1   2
HETATM    2  C   UNL     1      43.408 -16.328   5.856  1.00  0.00     0.153 C 
BRANCH   2   3
HETATM    3  N   UNL     1      44.255 -15.376   6.550  1.00  0.00    -0.353 N 
HETATM    4  C   UNL     1      43.886 -14.066   6.754  1.00  0.00     0.275 C 
HETATM    5  O   UNL     1      42.834 -13.609   6.313  1.00  0.00    -0.265 OA
HETATM    6  H   UNL     1      45.074 -15.721   7.043  1.00  0.00     0.162 HD
BRANCH   4   7
HETATM    7  C   UNL     1      44.830 -13.294   7.534  1.00  0.00     0.143 A 
HETATM    8  O   UNL     1      44.466 -12.820   8.768  1.00  0.00    -0.310 OA
HETATM    9  C   UNL     1      45.539 -12.155   9.279  1.00  0.00     0.053 A 
HETATM   10  C   UNL     1      46.587 -12.184   8.385  1.00  0.00     0.036 A 
HETATM   11  C   UNL     1      46.132 -12.915   7.263  1.00  0.00     0.045 A 
BRANCH   9  12
HETATM   12  C   UNL     1      45.372 -11.568  10.632  1.00  0.00     0.060 C 
HETATM   13  C   UNL     1      43.947 -11.720  11.135  1.00  0.00     0.012 C 
ENDBRANCH   9  12
ENDBRANCH   4   7
ENDBRANCH   2   3
ENDBRANCH   1   2
BRANCH   1  14
HETATM   14  N   UNL     1      42.687 -15.494   3.550  1.00  0.00    -0.345 N 
HETATM   15  C   UNL     1      42.913 -14.203   3.136  1.00  0.00     0.276 C 
HETATM   16  O   UNL     1      43.998 -13.640   3.242  1.00  0.00    -0.265 OA
HETATM   17  H   UNL     1      41.728 -15.812   3.481  1.00  0.00     0.163 HD
BRANCH  15  18
HETATM   18  C   UNL     1      41.745 -13.567   2.562  1.00  0.00     0.143 A 
HETATM   19  O   UNL     1      40.991 -14.246   1.638  1.00  0.00    -0.310 OA
HETATM   20  C   UNL     1      39.961 -13.431   1.277  1.00  0.00     0.053 A 
HETATM   21  C   UNL     1      40.041 -12.234   1.956  1.00  0.00     0.036 A 
HETATM   22  C   UNL     1      41.188 -12.321   2.781  1.00  0.00     0.045 A 
BRANCH  20  23
HETATM   23  C   UNL     1      39.007 -13.972   0.277  1.00  0.00     0.060 C 
HETATM   24  C   UNL     1      37.609 -14.107   0.857  1.00  0.00     0.012 C 
ENDBRANCH  20  23
ENDBRANCH  15  18
ENDBRANCH   1  14
BRANCH   1  25
HETATM   25  C   UNL     1      43.661 -17.739   3.753  1.00  0.00    -0.031 A 
HETATM   26  C   UNL     1      44.294 -18.786   4.445  1.00  0.00     0.049 A 
HETATM   27  C   UNL     1      44.327 -20.073   3.906  1.00  0.00     0.102 A 
HETATM   28  C   UNL     1      43.761 -20.325   2.654  1.00  0.00     0.102 A 
HETATM   29  O   UNL     1      44.941 -21.041   4.660  1.00  0.00    -0.346 OA
HETATM   30  O   UNL     1      43.789 -21.555   2.048  1.00  0.00    -0.346 OA
HETATM   31  C   UNL     1      43.123 -19.301   1.961  1.00  0.00     0.040 A 
HETATM   32  C   UNL     1      44.743 -22.421   2.673  1.00  0.00     0.202 C 
HETATM   33  C   UNL     1      44.618 -22.352   4.186  1.00  0.00     0.202 C 
HETATM   34  C   UNL     1      43.073 -18.016   2.507  1.00  0.00     0.012 A 
ENDBRANCH   1  25
TORSDOF 8
ENDMDL
MODEL 6
REMARK VINA RESULT:      -8.6      2.532      6.748
REMARK  8 active torsions:
REMARK  status: ('A' for Active; 'I' for Inactive)
REMARK    1  A    between atoms: C_2  and  C_3 
REMARK    2  A    between atoms: C_5  and  C_6 
REMARK       I    between atoms: C_6  and  N_7 
REMARK    3  A    between atoms: N_7  and  C_8 
REMARK    4  A    between atoms: C_8  and  C_9 
REMARK    5  A    between atoms: C_9  and  N_10 
REMARK    6  A    between atoms: C_9  and  C_20 
REMARK       I    between atoms: N_10  and  C_11 
REMARK    7  A    between atoms: C_11  and  C_12 
REMARK    8  A    between atoms: C_14  and  C_15 
ROOT
HETATM    1  C   UNL     1      43.118 -16.184   4.189  1.00  0.00     0.136 C 
ENDROOT
BRANCH   1   2
HETATM    2  C   UNL     1      43.193 -15.539   2.782  1.00  0.00     0.153 C 
BRANCH   2   3
HETATM    3  N   UNL     1      41.920 -15.026   2.310  1.00  0.00    -0.353 N 
HETATM    4  C   UNL     1      41.287 -15.527   1.194  1.00  0.00     0.275 C 
HETATM    5  O   UNL     1      41.790 -16.407   0.500  1.00  0.00    -0.265 OA
HETATM    6  H   UNL     1      41.399 -14.391   2.906  1.00  0.00     0.162 HD
BRANCH   4   7
HETATM    7  C   UNL     1      39.992 -14.938   0.930  1.00  0.00     0.143 A 
HETATM    8  O   UNL     1      39.768 -14.295  -0.260  1.00  0.00    -0.310 OA
HETATM    9  C   UNL     1      38.477 -13.860  -0.250  1.00  0.00     0.053 A 
HETATM   10  C   UNL     1      37.869 -14.206   0.937  1.00  0.00     0.036 A 
HETATM   11  C   UNL     1      38.842 -14.898   1.696  1.00  0.00     0.045 A 
BRANCH   9  12
HETATM   12  C   UNL     1      38.008 -13.145  -1.462  1.00  0.00     0.060 C 
HETATM   13  C   UNL     1      38.957 -13.345  -2.631  1.00  0.00     0.012 C 
ENDBRANCH   9  12
ENDBRANCH   4   7
ENDBRANCH   2   3
ENDBRANCH   1   2
BRANCH   1  14
HETATM   14  N   UNL     1      43.722 -15.424   5.280  1.00  0.00    -0.345 N 
HETATM   15  C   UNL     1      43.184 -14.321   5.899  1.00  0.00     0.276 C 
HETATM   16  O   UNL     1      42.039 -13.927   5.701  1.00  0.00    -0.265 OA
HETATM   17  H   UNL     1      44.703 -15.593   5.469  1.00  0.00     0.163 HD
BRANCH  15  18
HETATM   18  C   UNL     1      44.100 -13.666   6.811  1.00  0.00     0.143 A 
HETATM   19  O   UNL     1      43.605 -12.827   7.778  1.00  0.00    -0.310 OA
HETATM   20  C   UNL     1      44.668 -12.362   8.493  1.00  0.00     0.053 A 
HETATM   21  C   UNL     1      45.841 -12.890   7.999  1.00  0.00     0.036 A 
HETATM   22  C   UNL     1      45.476 -13.727   6.918  1.00  0.00     0.045 A 
BRANCH  20  23
HETATM   23  C   UNL     1      44.360 -11.429   9.606  1.00  0.00     0.060 C 
HETATM   24  C   UNL     1      44.184 -12.170  10.921  1.00  0.00     0.012 C 
ENDBRANCH  20  23
ENDBRANCH  15  18
ENDBRANCH   1  14
BRANCH   1  25
HETATM   25  C   UNL     1      43.620 -17.619   4.185  1.00  0.00    -0.031 A 
HETATM   26  C   UNL     1      43.407 -18.471   3.087  1.00  0.00     0.049 A 
HETATM   27  C   UNL     1      43.882 -19.783   3.106  1.00  0.00     0.102 A 
HETATM   28  C   UNL     1      44.544 -20.275   4.234  1.00  0.00     0.102 A 
HETATM   29  O   UNL     1      43.654 -20.537   1.982  1.00  0.00    -0.346 OA
HETATM   30  O   UNL     1      45.005 -21.562   4.335  1.00  0.00    -0.346 OA
HETATM   31  C   UNL     1      44.771 -19.440   5.324  1.00  0.00     0.040 A 
HETATM   32  C   UNL     1      44.428 -22.402   3.329  1.00  0.00     0.202 C 
HETATM   33  C   UNL     1      44.465 -21.716   1.973  1.00  0.00     0.202 C 
HETATM   34  C   UNL     1      44.312 -18.122   5.301  1.00  0.00     0.012 A 
ENDBRANCH   1  25
TORSDOF 8
ENDMDL
MODEL 7
REMARK VINA RESULT:      -8.6      3.189      7.786
REMARK  8 active torsions:
REMARK  status: ('A' for Active; 'I' for Inactive)
REMARK    1  A    between atoms: C_2  and  C_3 
REMARK    2  A    between atoms: C_5  and  C_6 
REMARK       I    between atoms: C_6  and  N_7 
REMARK    3  A    between atoms: N_7  and  C_8 
REMARK    4  A    between atoms: C_8  and  C_9 
REMARK    5  A    between atoms: C_9  and  N_10 
REMARK    6  A    between atoms: C_9  and  C_20 
REMARK       I    between atoms: N_10  and  C_11 
REMARK    7  A    between atoms: C_11  and  C_12 
REMARK    8  A    between atoms: C_14  and  C_15 
ROOT
HETATM    1  C   UNL     1      41.083 -14.631   1.549  1.00  0.00     0.136 C 
ENDROOT
BRANCH   1   2
HETATM    2  C   UNL     1      40.850 -13.771   2.817  1.00  0.00     0.153 C 
BRANCH   2   3
HETATM    3  N   UNL     1      41.567 -14.250   3.984  1.00  0.00    -0.353 N 
HETATM    4  C   UNL     1      42.919 -14.056   4.155  1.00  0.00     0.275 C 
HETATM    5  O   UNL     1      43.611 -13.507   3.301  1.00  0.00    -0.265 OA
HETATM    6  H   UNL     1      41.033 -14.598   4.775  1.00  0.00     0.162 HD
BRANCH   4   7
HETATM    7  C   UNL     1      43.436 -14.538   5.418  1.00  0.00     0.143 A 
HETATM    8  O   UNL     1      43.169 -15.823   5.815  1.00  0.00    -0.310 OA
HETATM    9  C   UNL     1      43.785 -16.013   7.015  1.00  0.00     0.053 A 
HETATM   10  C   UNL     1      44.437 -14.862   7.402  1.00  0.00     0.036 A 
HETATM   11  C   UNL     1      44.212 -13.914   6.376  1.00  0.00     0.045 A 
BRANCH   9  12
HETATM   12  C   UNL     1      43.642 -17.356   7.628  1.00  0.00     0.060 C 
HETATM   13  C   UNL     1      44.303 -18.430   6.782  1.00  0.00     0.012 C 
ENDBRANCH   9  12
ENDBRANCH   4   7
ENDBRANCH   2   3
ENDBRANCH   1   2
BRANCH   1  14
HETATM   14  N   UNL     1      41.931 -15.808   1.715  1.00  0.00    -0.345 N 
HETATM   15  C   UNL     1      41.506 -17.112   1.798  1.00  0.00     0.276 C 
HETATM   16  O   UNL     1      40.348 -17.460   1.590  1.00  0.00    -0.265 OA
HETATM   17  H   UNL     1      42.892 -15.646   1.991  1.00  0.00     0.163 HD
BRANCH  15  18
HETATM   18  C   UNL     1      42.558 -18.042   2.157  1.00  0.00     0.143 A 
HETATM   19  O   UNL     1      42.512 -19.330   1.684  1.00  0.00    -0.310 OA
HETATM   20  C   UNL     1      43.614 -19.975   2.159  1.00  0.00     0.053 A 
HETATM   21  C   UNL     1      44.370 -19.120   2.931  1.00  0.00     0.036 A 
HETATM   22  C   UNL     1      43.691 -17.878   2.930  1.00  0.00     0.045 A 
BRANCH  20  23
HETATM   23  C   UNL     1      43.771 -21.397   1.764  1.00  0.00     0.060 C 
HETATM   24  C   UNL     1      44.436 -22.210   2.862  1.00  0.00     0.012 C 
ENDBRANCH  20  23
ENDBRANCH  15  18
ENDBRANCH   1  14
BRANCH   1  25
HETATM   25  C   UNL     1      41.545 -13.791   0.369  1.00  0.00    -0.031 A 
HETATM   26  C   UNL     1      42.068 -12.498   0.545  1.00  0.00     0.049 A 
HETATM   27  C   UNL     1      42.489 -11.750  -0.555  1.00  0.00     0.102 A 
HETATM   28  C   UNL     1      42.362 -12.265  -1.847  1.00  0.00     0.102 A 
HETATM   29  O   UNL     1      43.012 -10.508  -0.291  1.00  0.00    -0.346 OA
HETATM   30  O   UNL     1      42.722 -11.572  -2.974  1.00  0.00    -0.346 OA
HETATM   31  C   UNL     1      41.855 -13.548  -2.036  1.00  0.00     0.040 A 
HETATM   32  C   UNL     1      42.899 -10.179  -2.694  1.00  0.00     0.202 C 
HETATM   33  C   UNL     1      43.713  -9.988  -1.425  1.00  0.00     0.202 C 
HETATM   34  C   UNL     1      41.450 -14.306  -0.936  1.00  0.00     0.012 A 
ENDBRANCH   1  25
TORSDOF 8
ENDMDL
MODEL 8
REMARK VINA RESULT:      -8.2      3.416      9.396
REMARK  8 active torsions:
REMARK  status: ('A' for Active; 'I' for Inactive)
REMARK    1  A    between atoms: C_2  and  C_3 
REMARK    2  A    between atoms: C_5  and  C_6 
REMARK       I    between atoms: C_6  and  N_7 
REMARK    3  A    between atoms: N_7  and  C_8 
REMARK    4  A    between atoms: C_8  and  C_9 
REMARK    5  A    between atoms: C_9  and  N_10 
REMARK    6  A    between atoms: C_9  and  C_20 
REMARK       I    between atoms: N_10  and  C_11 
REMARK    7  A    between atoms: C_11  and  C_12 
REMARK    8  A    between atoms: C_14  and  C_15 
ROOT
HETATM    1  C   UNL     1      42.431 -16.228   4.062  1.00  0.00     0.136 C 
ENDROOT
BRANCH   1   2
HETATM    2  C   UNL     1      41.416 -16.128   5.229  1.00  0.00     0.153 C 
BRANCH   2   3
HETATM    3  N   UNL     1      41.330 -14.801   5.811  1.00  0.00    -0.353 N 
HETATM    4  C   UNL     1      40.469 -13.838   5.336  1.00  0.00     0.275 C 
HETATM    5  O   UNL     1      39.757 -14.028   4.352  1.00  0.00    -0.265 OA
HETATM    6  H   UNL     1      41.798 -14.626   6.695  1.00  0.00     0.162 HD
BRANCH   4   7
HETATM    7  C   UNL     1      40.473 -12.607   6.097  1.00  0.00     0.143 A 
HETATM    8  O   UNL     1      39.621 -12.463   7.161  1.00  0.00    -0.310 OA
HETATM    9  C   UNL     1      39.848 -11.232   7.699  1.00  0.00     0.053 A 
HETATM   10  C   UNL     1      40.829 -10.576   6.987  1.00  0.00     0.036 A 
HETATM   11  C   UNL     1      41.230 -11.459   5.957  1.00  0.00     0.045 A 
BRANCH   9  12
HETATM   12  C   UNL     1      39.038 -10.869   8.888  1.00  0.00     0.060 C 
HETATM   13  C   UNL     1      38.752  -9.378   8.935  1.00  0.00     0.012 C 
ENDBRANCH   9  12
ENDBRANCH   4   7
ENDBRANCH   2   3
ENDBRANCH   1   2
BRANCH   1  14
HETATM   14  N   UNL     1      41.934 -15.853   2.741  1.00  0.00    -0.345 N 
HETATM   15  C   UNL     1      42.213 -14.688   2.067  1.00  0.00     0.276 C 
HETATM   16  O   UNL     1      43.049 -13.874   2.444  1.00  0.00    -0.265 OA
HETATM   17  H   UNL     1      41.166 -16.398   2.369  1.00  0.00     0.163 HD
BRANCH  15  18
HETATM   18  C   UNL     1      41.422 -14.512   0.865  1.00  0.00     0.143 A 
HETATM   19  O   UNL     1      41.724 -15.244  -0.256  1.00  0.00    -0.310 OA
HETATM   20  C   UNL     1      40.829 -14.895  -1.221  1.00  0.00     0.053 A 
HETATM   21  C   UNL     1      39.954 -13.947  -0.738  1.00  0.00     0.036 A 
HETATM   22  C   UNL     1      40.336 -13.700   0.603  1.00  0.00     0.045 A 
BRANCH  20  23
HETATM   23  C   UNL     1      40.969 -15.576  -2.533  1.00  0.00     0.060 C 
HETATM   24  C   UNL     1      39.762 -15.326  -3.422  1.00  0.00     0.012 C 
ENDBRANCH  20  23
ENDBRANCH  15  18
ENDBRANCH   1  14
BRANCH   1  25
HETATM   25  C   UNL     1      43.118 -17.584   4.019  1.00  0.00    -0.031 A 
HETATM   26  C   UNL     1      42.883 -18.496   2.976  1.00  0.00     0.049 A 
HETATM   27  C   UNL     1      43.530 -19.733   2.958  1.00  0.00     0.102 A 
HETATM   28  C   UNL     1      44.390 -20.092   3.999  1.00  0.00     0.102 A 
HETATM   29  O   UNL     1      43.264 -20.551   1.889  1.00  0.00    -0.346 OA
HETATM   30  O   UNL     1      45.029 -21.303   4.064  1.00  0.00    -0.346 OA
HETATM   31  C   UNL     1      44.639 -19.195   5.034  1.00  0.00     0.040 A 
HETATM   32  C   UNL     1      44.448 -22.248   3.159  1.00  0.00     0.202 C 
HETATM   33  C   UNL     1      44.219 -21.613   1.797  1.00  0.00     0.202 C 
HETATM   34  C   UNL     1      44.008 -17.950   5.044  1.00  0.00     0.012 A 
ENDBRANCH   1  25
TORSDOF 8
ENDMDL
MODEL 9
REMARK VINA RESULT:      -8.2      3.131      7.099
REMARK  8 active torsions:
REMARK  status: ('A' for Active; 'I' for Inactive)
REMARK    1  A    between atoms: C_2  and  C_3 
REMARK    2  A    between atoms: C_5  and  C_6 
REMARK       I    between atoms: C_6  and  N_7 
REMARK    3  A    between atoms: N_7  and  C_8 
REMARK    4  A    between atoms: C_8  and  C_9 
REMARK    5  A    between atoms: C_9  and  N_10 
REMARK    6  A    between atoms: C_9  and  C_20 
REMARK       I    between atoms: N_10  and  C_11 
REMARK    7  A    between atoms: C_11  and  C_12 
REMARK    8  A    between atoms: C_14  and  C_15 
ROOT
HETATM    1  C   UNL     1      41.575 -14.989   4.344  1.00  0.00     0.136 C 
ENDROOT
BRANCH   1   2
HETATM    2  C   UNL     1      43.058 -15.246   4.714  1.00  0.00     0.153 C 
BRANCH   2   3
HETATM    3  N   UNL     1      43.392 -16.653   4.831  1.00  0.00    -0.353 N 
HETATM    4  C   UNL     1      43.796 -17.411   3.755  1.00  0.00     0.275 C 
HETATM    5  O   UNL     1      43.849 -16.951   2.617  1.00  0.00    -0.265 OA
HETATM    6  H   UNL     1      43.487 -17.056   5.758  1.00  0.00     0.162 HD
BRANCH   4   7
HETATM    7  C   UNL     1      44.158 -18.772   4.088  1.00  0.00     0.143 A 
HETATM    8  O   UNL     1      44.096 -19.746   3.125  1.00  0.00    -0.310 OA
HETATM    9  C   UNL     1      44.504 -20.912   3.700  1.00  0.00     0.053 A 
HETATM   10  C   UNL     1      44.818 -20.703   5.026  1.00  0.00     0.036 A 
HETATM   11  C   UNL     1      44.595 -19.329   5.275  1.00  0.00     0.045 A 
BRANCH   9  12
HETATM   12  C   UNL     1      44.533 -22.109   2.824  1.00  0.00     0.060 C 
HETATM   13  C   UNL     1      43.866 -21.839   1.487  1.00  0.00     0.012 C 
ENDBRANCH   9  12
ENDBRANCH   4   7
ENDBRANCH   2   3
ENDBRANCH   1   2
BRANCH   1  14
HETATM   14  N   UNL     1      41.275 -14.877   2.919  1.00  0.00    -0.345 N 
HETATM   15  C   UNL     1      40.751 -15.864   2.119  1.00  0.00     0.276 C 
HETATM   16  O   UNL     1      40.327 -16.931   2.551  1.00  0.00    -0.265 OA
HETATM   17  H   UNL     1      41.665 -14.081   2.430  1.00  0.00     0.163 HD
BRANCH  15  18
HETATM   18  C   UNL     1      40.746 -15.524   0.710  1.00  0.00     0.143 A 
HETATM   19  O   UNL     1      39.983 -14.472   0.271  1.00  0.00    -0.310 OA
HETATM   20  C   UNL     1      40.172 -14.368  -1.074  1.00  0.00     0.053 A 
HETATM   21  C   UNL     1      41.047 -15.339  -1.509  1.00  0.00     0.036 A 
HETATM   22  C   UNL     1      41.416 -16.083  -0.362  1.00  0.00     0.045 A 
BRANCH  20  23
HETATM   23  C   UNL     1      39.434 -13.280  -1.765  1.00  0.00     0.060 C 
HETATM   24  C   UNL     1      37.978 -13.651  -1.991  1.00  0.00     0.012 C 
ENDBRANCH  20  23
ENDBRANCH  15  18
ENDBRANCH   1  14
BRANCH   1  25
HETATM   25  C   UNL     1      40.991 -13.814   5.115  1.00  0.00    -0.031 A 
HETATM   26  C   UNL     1      41.807 -12.939   5.852  1.00  0.00     0.049 A 
HETATM   27  C   UNL     1      41.247 -11.866   6.548  1.00  0.00     0.102 A 
HETATM   28  C   UNL     1      39.864 -11.673   6.546  1.00  0.00     0.102 A 
HETATM   29  O   UNL     1      42.119 -11.046   7.219  1.00  0.00    -0.346 OA
HETATM   30  O   UNL     1      39.244 -10.663   7.235  1.00  0.00    -0.346 OA
HETATM   31  C   UNL     1      39.044 -12.526   5.812  1.00  0.00     0.040 A 
HETATM   32  C   UNL     1      40.122 -10.077   8.203  1.00  0.00     0.202 C 
HETATM   33  C   UNL     1      41.490  -9.816   7.595  1.00  0.00     0.202 C 
HETATM   34  C   UNL     1      39.604 -13.589   5.101  1.00  0.00     0.012 A 
ENDBRANCH   1  25
TORSDOF 8
ENDMDL
MODEL 10
REMARK VINA RESULT:      -8.0      2.705      7.000
REMARK  8 active torsions:
REMARK  status: ('A' for Active; 'I' for Inactive)
REMARK    1  A    between atoms: C_2  and  C_3 
REMARK    2  A    between atoms: C_5  and  C_6 
REMARK       I    between atoms: C_6  and  N_7 
REMARK    3  A    between atoms: N_7  and  C_8 
REMARK    4  A    between atoms: C_8  and  C_9 
REMARK    5  A    between atoms: C_9  and  N_10 
REMARK    6  A    between atoms: C_9  and  C_20 
REMARK       I    between atoms: N_10  and  C_11 
REMARK    7  A    between atoms: C_11  and  C_12 
REMARK    8  A    between atoms: C_14  and  C_15 
ROOT
HETATM    1  C   UNL     1      42.691 -16.305   5.050  1.00  0.00     0.136 C 
ENDROOT
BRANCH   1   2
HETATM    2  C   UNL     1      41.862 -15.704   3.886  1.00  0.00     0.153 C 
BRANCH   2   3
HETATM    3  N   UNL     1      41.292 -14.405   4.189  1.00  0.00    -0.353 N 
HETATM    4  C   UNL     1      40.560 -14.165   5.329  1.00  0.00     0.275 C 
HETATM    5  O   UNL     1      40.300 -15.054   6.136  1.00  0.00    -0.265 OA
HETATM    6  H   UNL     1      41.575 -13.606   3.629  1.00  0.00     0.162 HD
BRANCH   4   7
HETATM    7  C   UNL     1      40.143 -12.788   5.491  1.00  0.00     0.143 A 
HETATM    8  O   UNL     1      40.012 -12.261   6.750  1.00  0.00    -0.310 OA
HETATM    9  C   UNL     1      39.631 -10.961   6.607  1.00  0.00     0.053 A 
HETATM   10  C   UNL     1      39.503 -10.646   5.272  1.00  0.00     0.036 A 
HETATM   11  C   UNL     1      39.830 -11.821   4.554  1.00  0.00     0.045 A 
BRANCH   9  12
HETATM   12  C   UNL     1      39.448 -10.183   7.858  1.00  0.00     0.060 C 
HETATM   13  C   UNL     1      39.455 -11.082   9.081  1.00  0.00     0.012 C 
ENDBRANCH   9  12
ENDBRANCH   4   7
ENDBRANCH   2   3
ENDBRANCH   1   2
BRANCH   1  14
HETATM   14  N   UNL     1      43.668 -15.415   5.672  1.00  0.00    -0.345 N 
HETATM   15  C   UNL     1      43.914 -15.293   7.019  1.00  0.00     0.276 C 
HETATM   16  O   UNL     1      43.433 -16.040   7.864  1.00  0.00    -0.265 OA
HETATM   17  H   UNL     1      44.059 -14.685   5.090  1.00  0.00     0.163 HD
BRANCH  15  18
HETATM   18  C   UNL     1      44.798 -14.192   7.347  1.00  0.00     0.143 A 
HETATM   19  O   UNL     1      44.613 -13.502   8.518  1.00  0.00    -0.310 OA
HETATM   20  C   UNL     1      45.576 -12.541   8.579  1.00  0.00     0.053 A 
HETATM   21  C   UNL     1      46.380 -12.602   7.462  1.00  0.00     0.036 A 
HETATM   22  C   UNL     1      45.880 -13.662   6.670  1.00  0.00     0.045 A 
BRANCH  20  23
HETATM   23  C   UNL     1      45.566 -11.668   9.780  1.00  0.00     0.060 C 
HETATM   24  C   UNL     1      44.694 -12.247  10.882  1.00  0.00     0.012 C 
ENDBRANCH  20  23
ENDBRANCH  15  18
ENDBRANCH   1  14
BRANCH   1  25
HETATM   25  C   UNL     1      43.331 -17.631   4.668  1.00  0.00    -0.031 A 
HETATM   26  C   UNL     1      42.920 -18.346   3.530  1.00  0.00     0.049 A 
HETATM   27  C   UNL     1      43.527 -19.559   3.199  1.00  0.00     0.102 A 
HETATM   28  C   UNL     1      44.525 -20.092   4.018  1.00  0.00     0.102 A 
HETATM   29  O   UNL     1      43.084 -20.177   2.057  1.00  0.00    -0.346 OA
HETATM   30  O   UNL     1      45.138 -21.294   3.774  1.00  0.00    -0.346 OA
HETATM   31  C   UNL     1      44.948 -19.390   5.143  1.00  0.00     0.040 A 
HETATM   32  C   UNL     1      44.405 -22.067   2.817  1.00  0.00     0.202 C 
HETATM   33  C   UNL     1      43.989 -21.203   1.637  1.00  0.00     0.202 C 
HETATM   34  C   UNL     1      44.356 -18.168   5.466  1.00  0.00     0.012 A 
ENDBRANCH   1  25
TORSDOF 8
ENDMDL
