MODEL 1
REMARK VINA RESULT:      -8.5      0.000      0.000
REMARK  8 active torsions:
REMARK  status: ('A' for Active; 'I' for Inactive)
REMARK    1  A    between atoms: C_4  and  C_5 
REMARK    2  A    between atoms: C_5  and  N_6 
REMARK    3  A    between atoms: C_8  and  N_9 
REMARK       I    between atoms: N_9  and  C_10 
REMARK       I    between atoms: C_10  and  N_11 
REMARK    4  A    between atoms: N_11  and  C_12 
REMARK    5  A    between atoms: C_12  and  C_13 
REMARK    6  A    between atoms: C_13  and  N_14 
REMARK       I    between atoms: N_14  and  C_15 
REMARK    7  A    between atoms: C_15  and  C_16 
REMARK    8  A    between atoms: C_17  and  O_18 
ROOT
HETATM    1  N   UNL     1      39.845 -16.189   1.331  1.00  0.00    -0.292 N 
HETATM    2  C   UNL     1      39.243 -15.054   1.782  1.00  0.00     0.321 C 
HETATM    3  N   UNL     1      39.946 -14.278   2.649  1.00  0.00    -0.341 N 
HETATM    4  O   UNL     1      38.098 -14.787   1.422  1.00  0.00    -0.247 OA
HETATM    5  H   UNL     1      39.257 -16.756   0.739  1.00  0.00     0.172 HD
HETATM    6  H   UNL     1      40.928 -14.530   2.760  1.00  0.00     0.164 HD
ENDROOT
BRANCH   1   7
HETATM    7  C   UNL     1      41.132 -16.625   1.546  1.00  0.00     0.153 A 
HETATM    8  N   UNL     1      41.573 -17.171   2.686  1.00  0.00    -0.154 NA
HETATM    9  N   UNL     1      42.877 -17.430   2.450  1.00  0.00    -0.275 N 
HETATM   10  C   UNL     1      43.282 -17.052   1.202  1.00  0.00     0.116 A 
HETATM   11  C   UNL     1      42.170 -16.527   0.590  1.00  0.00     0.071 A 
BRANCH   9  12
HETATM   12  C   UNL     1      43.717 -17.978   3.508  1.00  0.00     0.189 C 
BRANCH  12  13
HETATM   13  C   UNL     1      43.990 -19.448   3.311  1.00  0.00    -0.038 A 
HETATM   14  C   UNL     1      44.579 -20.209   4.333  1.00  0.00     0.009 A 
HETATM   15  C   UNL     1      44.807 -21.574   4.158  1.00  0.00     0.001 A 
HETATM   16  C   UNL     1      44.448 -22.196   2.964  1.00  0.00     0.000 A 
HETATM   17  C   UNL     1      43.862 -21.454   1.941  1.00  0.00     0.001 A 
HETATM   18  C   UNL     1      43.631 -20.087   2.113  1.00  0.00     0.009 A 
ENDBRANCH  12  13
ENDBRANCH   9  12
ENDBRANCH   1   7
BRANCH   3  19
HETATM   19  C   UNL     1      39.467 -12.998   3.120  1.00  0.00     0.144 C 
BRANCH  19  20
HETATM   20  C   UNL     1      40.241 -12.473   4.336  1.00  0.00     0.142 C 
BRANCH  20  21
HETATM   21  N   UNL     1      40.759 -13.549   5.165  1.00  0.00    -0.355 N 
HETATM   22  C   UNL     1      41.952 -14.174   4.879  1.00  0.00     0.254 C 
HETATM   23  O   UNL     1      42.638 -13.893   3.898  1.00  0.00    -0.268 OA
HETATM   24  H   UNL     1      40.341 -13.649   6.079  1.00  0.00     0.162 HD
BRANCH  22  25
HETATM   25  C   UNL     1      42.447 -15.197   5.845  1.00  0.00     0.065 A 
HETATM   26  C   UNL     1      41.653 -16.320   6.129  1.00  0.00     0.081 A 
HETATM   27  C   UNL     1      42.100 -17.307   7.006  1.00  0.00     0.037 A 
HETATM   28  C   UNL     1      43.341 -17.178   7.626  1.00  0.00     0.003 A 
HETATM   29  C   UNL     1      44.130 -16.056   7.377  1.00  0.00     0.001 A 
HETATM   30  C   UNL     1      43.685 -15.066   6.494  1.00  0.00     0.020 A 
BRANCH  26  31
HETATM   31  O   UNL     1      40.413 -16.521   5.580  1.00  0.00    -0.360 OA
HETATM   32  H   UNL     1      39.768 -16.594   6.319  1.00  0.00     0.217 HD
ENDBRANCH  26  31
ENDBRANCH  22  25
ENDBRANCH  20  21
ENDBRANCH  19  20
ENDBRANCH   3  19
TORSDOF 8
ENDMDL
MODEL 2
REMARK VINA RESULT:      -8.4      1.046      1.773
REMARK  8 active torsions:
REMARK  status: ('A' for Active; 'I' for Inactive)
REMARK    1  A    between atoms: C_4  and  C_5 
REMARK    2  A    between atoms: C_5  and  N_6 
REMARK    3  A    between atoms: C_8  and  N_9 
REMARK       I    between atoms: N_9  and  C_10 
REMARK       I    between atoms: C_10  and  N_11 
REMARK    4  A    between atoms: N_11  and  C_12 
REMARK    5  A    between atoms: C_12  and  C_13 
REMARK    6  A    between atoms: C_13  and  N_14 
REMARK       I    between atoms: N_14  and  C_15 
REMARK    7  A    between atoms: C_15  and  C_16 
REMARK    8  A    between atoms: C_17  and  O_18 
ROOT
HETATM    1  N   UNL     1      40.351 -16.541   1.543  1.00  0.00    -0.292 N 
HETATM    2  C   UNL     1      39.711 -15.542   2.211  1.00  0.00     0.321 C 
HETATM    3  N   UNL     1      40.345 -15.006   3.288  1.00  0.00    -0.341 N 
HETATM    4  O   UNL     1      38.593 -15.183   1.846  1.00  0.00    -0.247 OA
HETATM    5  H   UNL     1      39.810 -16.942   0.792  1.00  0.00     0.172 HD
HETATM    6  H   UNL     1      41.318 -15.288   3.404  1.00  0.00     0.164 HD
ENDROOT
BRANCH   1   7
HETATM    7  C   UNL     1      41.622 -17.031   1.738  1.00  0.00     0.153 A 
HETATM    8  N   UNL     1      42.083 -17.518   2.897  1.00  0.00    -0.154 NA
HETATM    9  N   UNL     1      43.361 -17.864   2.628  1.00  0.00    -0.275 N 
HETATM   10  C   UNL     1      43.729 -17.600   1.340  1.00  0.00     0.116 A 
HETATM   11  C   UNL     1      42.620 -17.059   0.737  1.00  0.00     0.071 A 
BRANCH   9  12
HETATM   12  C   UNL     1      44.217 -18.381   3.689  1.00  0.00     0.189 C 
BRANCH  12  13
HETATM   13  C   UNL     1      44.363 -19.881   3.620  1.00  0.00    -0.038 A 
HETATM   14  C   UNL     1      44.744 -20.614   4.754  1.00  0.00     0.009 A 
HETATM   15  C   UNL     1      44.852 -22.005   4.695  1.00  0.00     0.001 A 
HETATM   16  C   UNL     1      44.581 -22.677   3.505  1.00  0.00     0.000 A 
HETATM   17  C   UNL     1      44.201 -21.962   2.372  1.00  0.00     0.001 A 
HETATM   18  C   UNL     1      44.089 -20.571   2.428  1.00  0.00     0.009 A 
ENDBRANCH  12  13
ENDBRANCH   9  12
ENDBRANCH   1   7
BRANCH   3  19
HETATM   19  C   UNL     1      39.825 -13.872   4.018  1.00  0.00     0.144 C 
BRANCH  19  20
HETATM   20  C   UNL     1      39.831 -14.079   5.538  1.00  0.00     0.142 C 
BRANCH  20  21
HETATM   21  N   UNL     1      41.049 -14.721   6.003  1.00  0.00    -0.355 N 
HETATM   22  C   UNL     1      41.128 -16.084   6.179  1.00  0.00     0.254 C 
HETATM   23  O   UNL     1      40.178 -16.841   5.989  1.00  0.00    -0.268 OA
HETATM   24  H   UNL     1      41.891 -14.166   5.957  1.00  0.00     0.162 HD
BRANCH  22  25
HETATM   25  C   UNL     1      42.451 -16.657   6.564  1.00  0.00     0.065 A 
HETATM   26  C   UNL     1      43.628 -16.005   6.162  1.00  0.00     0.081 A 
HETATM   27  C   UNL     1      44.879 -16.500   6.530  1.00  0.00     0.037 A 
HETATM   28  C   UNL     1      44.971 -17.664   7.291  1.00  0.00     0.003 A 
HETATM   29  C   UNL     1      43.813 -18.338   7.675  1.00  0.00     0.001 A 
HETATM   30  C   UNL     1      42.557 -17.841   7.310  1.00  0.00     0.020 A 
BRANCH  26  31
HETATM   31  O   UNL     1      43.634 -14.867   5.399  1.00  0.00    -0.360 OA
HETATM   32  H   UNL     1      42.720 -14.728   5.064  1.00  0.00     0.217 HD
ENDBRANCH  26  31
ENDBRANCH  22  25
ENDBRANCH  20  21
ENDBRANCH  19  20
ENDBRANCH   3  19
TORSDOF 8
ENDMDL
MODEL 3
REMARK VINA RESULT:      -8.4      4.397      5.951
REMARK  8 active torsions:
REMARK  status: ('A' for Active; 'I' for Inactive)
REMARK    1  A    between atoms: C_4  and  C_5 
REMARK    2  A    between atoms: C_5  and  N_6 
REMARK    3  A    between atoms: C_8  and  N_9 
REMARK       I    between atoms: N_9  and  C_10 
REMARK       I    between atoms: C_10  and  N_11 
REMARK    4  A    between atoms: N_11  and  C_12 
REMARK    5  A    between atoms: C_12  and  C_13 
REMARK    6  A    between atoms: C_13  and  N_14 
REMARK       I    between atoms: N_14  and  C_15 
REMARK    7  A    between atoms: C_15  and  C_16 
REMARK    8  A    between atoms: C_17  and  O_18 
ROOT
HETATM    1  N   UNL     1      42.760 -15.078   6.408  1.00  0.00    -0.292 N 
HETATM    2  C   UNL     1      43.553 -13.983   6.574  1.00  0.00     0.321 C 
HETATM    3  N   UNL     1      44.854 -14.199   6.904  1.00  0.00    -0.341 N 
HETATM    4  O   UNL     1      43.072 -12.857   6.452  1.00  0.00    -0.247 OA
HETATM    5  H   UNL     1      41.793 -14.858   6.224  1.00  0.00     0.172 HD
HETATM    6  H   UNL     1      45.164 -15.168   6.839  1.00  0.00     0.164 HD
ENDROOT
BRANCH   1   7
HETATM    7  C   UNL     1      43.115 -16.407   6.423  1.00  0.00     0.153 A 
HETATM    8  N   UNL     1      44.149 -16.929   5.752  1.00  0.00    -0.154 NA
HETATM    9  N   UNL     1      44.108 -18.246   6.049  1.00  0.00    -0.275 N 
HETATM   10  C   UNL     1      43.073 -18.579   6.874  1.00  0.00     0.116 A 
HETATM   11  C   UNL     1      42.411 -17.404   7.137  1.00  0.00     0.071 A 
BRANCH   9  12
HETATM   12  C   UNL     1      45.060 -19.164   5.434  1.00  0.00     0.189 C 
BRANCH  12  13
HETATM   13  C   UNL     1      44.518 -19.780   4.169  1.00  0.00    -0.038 A 
HETATM   14  C   UNL     1      43.750 -19.018   3.275  1.00  0.00     0.009 A 
HETATM   15  C   UNL     1      43.271 -19.583   2.092  1.00  0.00     0.001 A 
HETATM   16  C   UNL     1      43.554 -20.913   1.788  1.00  0.00     0.000 A 
HETATM   17  C   UNL     1      44.316 -21.681   2.665  1.00  0.00     0.001 A 
HETATM   18  C   UNL     1      44.798 -21.118   3.849  1.00  0.00     0.009 A 
ENDBRANCH  12  13
ENDBRANCH   9  12
ENDBRANCH   1   7
BRANCH   3  19
HETATM   19  C   UNL     1      45.823 -13.131   7.005  1.00  0.00     0.144 C 
BRANCH  19  20
HETATM   20  C   UNL     1      46.097 -12.699   8.452  1.00  0.00     0.142 C 
BRANCH  20  21
HETATM   21  N   UNL     1      45.104 -11.759   8.944  1.00  0.00    -0.355 N 
HETATM   22  C   UNL     1      44.468 -11.942  10.152  1.00  0.00     0.254 C 
HETATM   23  O   UNL     1      44.669 -12.916  10.874  1.00  0.00    -0.268 OA
HETATM   24  H   UNL     1      45.079 -10.858   8.490  1.00  0.00     0.162 HD
BRANCH  22  25
HETATM   25  C   UNL     1      43.539 -10.870  10.614  1.00  0.00     0.065 A 
HETATM   26  C   UNL     1      42.396 -10.572   9.854  1.00  0.00     0.081 A 
HETATM   27  C   UNL     1      41.494  -9.595  10.275  1.00  0.00     0.037 A 
HETATM   28  C   UNL     1      41.730  -8.891  11.453  1.00  0.00     0.003 A 
HETATM   29  C   UNL     1      42.873  -9.155  12.205  1.00  0.00     0.001 A 
HETATM   30  C   UNL     1      43.778 -10.137  11.787  1.00  0.00     0.020 A 
BRANCH  26  31
HETATM   31  O   UNL     1      42.093 -11.201   8.675  1.00  0.00    -0.360 OA
HETATM   32  H   UNL     1      42.940 -11.486   8.263  1.00  0.00     0.217 HD
ENDBRANCH  26  31
ENDBRANCH  22  25
ENDBRANCH  20  21
ENDBRANCH  19  20
ENDBRANCH   3  19
TORSDOF 8
ENDMDL
MODEL 4
REMARK VINA RESULT:      -8.3      4.762      5.620
REMARK  8 active torsions:
REMARK  status: ('A' for Active; 'I' for Inactive)
REMARK    1  A    between atoms: C_4  and  C_5 
REMARK    2  A    between atoms: C_5  and  N_6 
REMARK    3  A    between atoms: C_8  and  N_9 
REMARK       I    between atoms: N_9  and  C_10 
REMARK       I    between atoms: C_10  and  N_11 
REMARK    4  A    between atoms: N_11  and  C_12 
REMARK    5  A    between atoms: C_12  and  C_13 
REMARK    6  A    between atoms: C_13  and  N_14 
REMARK       I    between atoms: N_14  and  C_15 
REMARK    7  A    between atoms: C_15  and  C_16 
REMARK    8  A    between atoms: C_17  and  O_18 
ROOT
HETATM    1  N   UNL     1      39.590 -14.480   5.774  1.00  0.00    -0.292 N 
HETATM    2  C   UNL     1      39.622 -13.163   6.119  1.00  0.00     0.321 C 
HETATM    3  N   UNL     1      40.755 -12.699   6.709  1.00  0.00    -0.341 N 
HETATM    4  O   UNL     1      38.636 -12.456   5.917  1.00  0.00    -0.247 OA
HETATM    5  H   UNL     1      38.705 -14.782   5.396  1.00  0.00     0.172 HD
HETATM    6  H   UNL     1      41.546 -13.342   6.695  1.00  0.00     0.164 HD
ENDROOT
BRANCH   1   7
HETATM    7  C   UNL     1      40.600 -15.411   5.842  1.00  0.00     0.153 A 
HETATM    8  N   UNL     1      41.801 -15.279   5.265  1.00  0.00    -0.154 NA
HETATM    9  N   UNL     1      42.450 -16.420   5.581  1.00  0.00    -0.275 N 
HETATM   10  C   UNL     1      41.696 -17.278   6.328  1.00  0.00     0.116 A 
HETATM   11  C   UNL     1      40.488 -16.650   6.515  1.00  0.00     0.071 A 
BRANCH   9  12
HETATM   12  C   UNL     1      43.790 -16.667   5.062  1.00  0.00     0.189 C 
BRANCH  12  13
HETATM   13  C   UNL     1      43.777 -17.605   3.880  1.00  0.00    -0.038 A 
HETATM   14  C   UNL     1      44.008 -18.978   4.056  1.00  0.00     0.009 A 
HETATM   15  C   UNL     1      43.968 -19.848   2.966  1.00  0.00     0.001 A 
HETATM   16  C   UNL     1      43.696 -19.358   1.690  1.00  0.00     0.000 A 
HETATM   17  C   UNL     1      43.463 -17.998   1.501  1.00  0.00     0.001 A 
HETATM   18  C   UNL     1      43.500 -17.125   2.590  1.00  0.00     0.009 A 
ENDBRANCH  12  13
ENDBRANCH   9  12
ENDBRANCH   1   7
BRANCH   3  19
HETATM   19  C   UNL     1      40.958 -11.304   7.026  1.00  0.00     0.144 C 
BRANCH  19  20
HETATM   20  C   UNL     1      42.274 -11.039   7.770  1.00  0.00     0.142 C 
BRANCH  20  21
HETATM   21  N   UNL     1      42.065 -10.779   9.185  1.00  0.00    -0.355 N 
HETATM   22  C   UNL     1      43.004 -11.123  10.132  1.00  0.00     0.254 C 
HETATM   23  O   UNL     1      44.056 -11.695   9.855  1.00  0.00    -0.268 OA
HETATM   24  H   UNL     1      41.329 -10.127   9.415  1.00  0.00     0.162 HD
BRANCH  22  25
HETATM   25  C   UNL     1      42.740 -10.724  11.545  1.00  0.00     0.065 A 
HETATM   26  C   UNL     1      41.554 -11.141  12.170  1.00  0.00     0.081 A 
HETATM   27  C   UNL     1      41.292 -10.807  13.498  1.00  0.00     0.037 A 
HETATM   28  C   UNL     1      42.205 -10.039  14.216  1.00  0.00     0.003 A 
HETATM   29  C   UNL     1      43.375  -9.594  13.603  1.00  0.00     0.001 A 
HETATM   30  C   UNL     1      43.642  -9.930  12.271  1.00  0.00     0.020 A 
BRANCH  26  31
HETATM   31  O   UNL     1      40.592 -11.883  11.536  1.00  0.00    -0.360 OA
HETATM   32  H   UNL     1      40.826 -12.832  11.648  1.00  0.00     0.217 HD
ENDBRANCH  26  31
ENDBRANCH  22  25
ENDBRANCH  20  21
ENDBRANCH  19  20
ENDBRANCH   3  19
TORSDOF 8
ENDMDL
MODEL 5
REMARK VINA RESULT:      -8.3      3.547      7.668
REMARK  8 active torsions:
REMARK  status: ('A' for Active; 'I' for Inactive)
REMARK    1  A    between atoms: C_4  and  C_5 
REMARK    2  A    between atoms: C_5  and  N_6 
REMARK    3  A    between atoms: C_8  and  N_9 
REMARK       I    between atoms: N_9  and  C_10 
REMARK       I    between atoms: C_10  and  N_11 
REMARK    4  A    between atoms: N_11  and  C_12 
REMARK    5  A    between atoms: C_12  and  C_13 
REMARK    6  A    between atoms: C_13  and  N_14 
REMARK       I    between atoms: N_14  and  C_15 
REMARK    7  A    between atoms: C_15  and  C_16 
REMARK    8  A    between atoms: C_17  and  O_18 
ROOT
HETATM    1  N   UNL     1      43.527 -16.035   7.439  1.00  0.00    -0.292 N 
HETATM    2  C   UNL     1      42.327 -16.230   6.826  1.00  0.00     0.321 C 
HETATM    3  N   UNL     1      41.747 -15.153   6.234  1.00  0.00    -0.341 N 
HETATM    4  O   UNL     1      41.803 -17.343   6.850  1.00  0.00    -0.247 OA
HETATM    5  H   UNL     1      43.882 -16.853   7.911  1.00  0.00     0.172 HD
HETATM    6  H   UNL     1      42.338 -14.326   6.161  1.00  0.00     0.164 HD
ENDROOT
BRANCH   1   7
HETATM    7  C   UNL     1      44.309 -14.904   7.460  1.00  0.00     0.153 A 
HETATM    8  N   UNL     1      44.407 -14.063   8.496  1.00  0.00    -0.154 NA
HETATM    9  N   UNL     1      45.261 -13.107   8.071  1.00  0.00    -0.275 N 
HETATM   10  C   UNL     1      45.697 -13.307   6.793  1.00  0.00     0.116 A 
HETATM   11  C   UNL     1      45.096 -14.468   6.369  1.00  0.00     0.071 A 
BRANCH   9  12
HETATM   12  C   UNL     1      45.565 -11.964   8.925  1.00  0.00     0.189 C 
BRANCH  12  13
HETATM   13  C   UNL     1      44.401 -11.593   9.809  1.00  0.00    -0.038 A 
HETATM   14  C   UNL     1      43.275 -10.948   9.274  1.00  0.00     0.009 A 
HETATM   15  C   UNL     1      42.188 -10.629  10.089  1.00  0.00     0.001 A 
HETATM   16  C   UNL     1      42.212 -10.951  11.444  1.00  0.00     0.000 A 
HETATM   17  C   UNL     1      43.322 -11.591  11.988  1.00  0.00     0.001 A 
HETATM   18  C   UNL     1      44.411 -11.914  11.176  1.00  0.00     0.009 A 
ENDBRANCH  12  13
ENDBRANCH   9  12
ENDBRANCH   1   7
BRANCH   3  19
HETATM   19  C   UNL     1      40.529 -15.245   5.461  1.00  0.00     0.144 C 
BRANCH  19  20
HETATM   20  C   UNL     1      40.780 -15.418   3.957  1.00  0.00     0.142 C 
BRANCH  20  21
HETATM   21  N   UNL     1      41.392 -16.699   3.644  1.00  0.00    -0.355 N 
HETATM   22  C   UNL     1      42.748 -16.824   3.443  1.00  0.00     0.254 C 
HETATM   23  O   UNL     1      43.523 -15.871   3.481  1.00  0.00    -0.268 OA
HETATM   24  H   UNL     1      40.827 -17.517   3.819  1.00  0.00     0.162 HD
BRANCH  22  25
HETATM   25  C   UNL     1      43.291 -18.197   3.225  1.00  0.00     0.065 A 
HETATM   26  C   UNL     1      44.128 -18.771   4.196  1.00  0.00     0.081 A 
HETATM   27  C   UNL     1      44.628 -20.062   4.035  1.00  0.00     0.037 A 
HETATM   28  C   UNL     1      44.313 -20.793   2.891  1.00  0.00     0.003 A 
HETATM   29  C   UNL     1      43.506 -20.228   1.905  1.00  0.00     0.001 A 
HETATM   30  C   UNL     1      43.000 -18.934   2.066  1.00  0.00     0.020 A 
BRANCH  26  31
HETATM   31  O   UNL     1      44.504 -18.120   5.342  1.00  0.00    -0.360 OA
HETATM   32  H   UNL     1      43.758 -18.184   5.980  1.00  0.00     0.217 HD
ENDBRANCH  26  31
ENDBRANCH  22  25
ENDBRANCH  20  21
ENDBRANCH  19  20
ENDBRANCH   3  19
TORSDOF 8
ENDMDL
MODEL 6
REMARK VINA RESULT:      -8.2      2.805      6.536
REMARK  8 active torsions:
REMARK  status: ('A' for Active; 'I' for Inactive)
REMARK    1  A    between atoms: C_4  and  C_5 
REMARK    2  A    between atoms: C_5  and  N_6 
REMARK    3  A    between atoms: C_8  and  N_9 
REMARK       I    between atoms: N_9  and  C_10 
REMARK       I    between atoms: C_10  and  N_11 
REMARK    4  A    between atoms: N_11  and  C_12 
REMARK    5  A    between atoms: C_12  and  C_13 
REMARK    6  A    between atoms: C_13  and  N_14 
REMARK       I    between atoms: N_14  and  C_15 
REMARK    7  A    between atoms: C_15  and  C_16 
REMARK    8  A    between atoms: C_17  and  O_18 
ROOT
HETATM    1  N   UNL     1      40.580 -16.617   4.074  1.00  0.00    -0.292 N 
HETATM    2  C   UNL     1      41.346 -16.501   5.194  1.00  0.00     0.321 C 
HETATM    3  N   UNL     1      42.679 -16.298   5.020  1.00  0.00    -0.341 N 
HETATM    4  O   UNL     1      40.825 -16.610   6.303  1.00  0.00    -0.247 OA
HETATM    5  H   UNL     1      39.611 -16.826   4.261  1.00  0.00     0.172 HD
HETATM    6  H   UNL     1      42.965 -16.088   4.065  1.00  0.00     0.164 HD
ENDROOT
BRANCH   1   7
HETATM    7  C   UNL     1      40.949 -16.452   2.759  1.00  0.00     0.153 A 
HETATM    8  N   UNL     1      41.114 -15.269   2.155  1.00  0.00    -0.154 NA
HETATM    9  N   UNL     1      41.458 -15.585   0.888  1.00  0.00    -0.275 N 
HETATM   10  C   UNL     1      41.503 -16.931   0.665  1.00  0.00     0.116 A 
HETATM   11  C   UNL     1      41.178 -17.521   1.862  1.00  0.00     0.071 A 
BRANCH   9  12
HETATM   12  C   UNL     1      41.659 -14.532  -0.100  1.00  0.00     0.189 C 
BRANCH  12  13
HETATM   13  C   UNL     1      40.616 -14.571  -1.189  1.00  0.00    -0.038 A 
HETATM   14  C   UNL     1      39.349 -14.001  -0.985  1.00  0.00     0.009 A 
HETATM   15  C   UNL     1      38.395 -14.014  -2.003  1.00  0.00     0.001 A 
HETATM   16  C   UNL     1      38.694 -14.594  -3.235  1.00  0.00     0.000 A 
HETATM   17  C   UNL     1      39.947 -15.161  -3.451  1.00  0.00     0.001 A 
HETATM   18  C   UNL     1      40.905 -15.148  -2.436  1.00  0.00     0.009 A 
ENDBRANCH  12  13
ENDBRANCH   9  12
ENDBRANCH   1   7
BRANCH   3  19
HETATM   19  C   UNL     1      43.583 -16.053   6.121  1.00  0.00     0.144 C 
BRANCH  19  20
HETATM   20  C   UNL     1      44.559 -17.212   6.370  1.00  0.00     0.142 C 
BRANCH  20  21
HETATM   21  N   UNL     1      44.609 -18.140   5.252  1.00  0.00    -0.355 N 
HETATM   22  C   UNL     1      44.284 -19.470   5.400  1.00  0.00     0.254 C 
HETATM   23  O   UNL     1      43.964 -19.966   6.478  1.00  0.00    -0.268 OA
HETATM   24  H   UNL     1      44.652 -17.728   4.332  1.00  0.00     0.162 HD
BRANCH  22  25
HETATM   25  C   UNL     1      44.270 -20.320   4.174  1.00  0.00     0.065 A 
HETATM   26  C   UNL     1      44.695 -21.656   4.255  1.00  0.00     0.081 A 
HETATM   27  C   UNL     1      44.667 -22.482   3.132  1.00  0.00     0.037 A 
HETATM   28  C   UNL     1      44.230 -21.981   1.908  1.00  0.00     0.003 A 
HETATM   29  C   UNL     1      43.830 -20.649   1.805  1.00  0.00     0.001 A 
HETATM   30  C   UNL     1      43.854 -19.819   2.930  1.00  0.00     0.020 A 
BRANCH  26  31
HETATM   31  O   UNL     1      45.156 -22.228   5.411  1.00  0.00    -0.360 OA
HETATM   32  H   UNL     1      45.449 -21.503   6.007  1.00  0.00     0.217 HD
ENDBRANCH  26  31
ENDBRANCH  22  25
ENDBRANCH  20  21
ENDBRANCH  19  20
ENDBRANCH   3  19
TORSDOF 8
ENDMDL
MODEL 7
REMARK VINA RESULT:      -8.2      5.518     10.000
REMARK  8 active torsions:
REMARK  status: ('A' for Active; 'I' for Inactive)
REMARK    1  A    between atoms: C_4  and  C_5 
REMARK    2  A    between atoms: C_5  and  N_6 
REMARK    3  A    between atoms: C_8  and  N_9 
REMARK       I    between atoms: N_9  and  C_10 
REMARK       I    between atoms: C_10  and  N_11 
REMARK    4  A    between atoms: N_11  and  C_12 
REMARK    5  A    between atoms: C_12  and  C_13 
REMARK    6  A    between atoms: C_13  and  N_14 
REMARK       I    between atoms: N_14  and  C_15 
REMARK    7  A    between atoms: C_15  and  C_16 
REMARK    8  A    between atoms: C_17  and  O_18 
ROOT
HETATM    1  N   UNL     1      45.633 -12.478   8.474  1.00  0.00    -0.292 N 
HETATM    2  C   UNL     1      45.382 -13.277   7.401  1.00  0.00     0.321 C 
HETATM    3  N   UNL     1      44.240 -14.014   7.426  1.00  0.00    -0.341 N 
HETATM    4  O   UNL     1      46.191 -13.329   6.476  1.00  0.00    -0.247 OA
HETATM    5  H   UNL     1      46.521 -12.001   8.429  1.00  0.00     0.172 HD
HETATM    6  H   UNL     1      43.589 -13.781   8.175  1.00  0.00     0.164 HD
ENDROOT
BRANCH   1   7
HETATM    7  C   UNL     1      44.831 -12.220   9.562  1.00  0.00     0.153 A 
HETATM    8  N   UNL     1      43.671 -11.554   9.514  1.00  0.00    -0.154 NA
HETATM    9  N   UNL     1      43.246 -11.531  10.796  1.00  0.00    -0.275 N 
HETATM   10  C   UNL     1      44.107 -12.148  11.657  1.00  0.00     0.116 A 
HETATM   11  C   UNL     1      45.145 -12.607  10.885  1.00  0.00     0.071 A 
BRANCH   9  12
HETATM   12  C   UNL     1      42.023 -10.819  11.148  1.00  0.00     0.189 C 
BRANCH  12  13
HETATM   13  C   UNL     1      42.130 -10.139  12.490  1.00  0.00    -0.038 A 
HETATM   14  C   UNL     1      42.823  -8.925  12.622  1.00  0.00     0.009 A 
HETATM   15  C   UNL     1      42.898  -8.283  13.859  1.00  0.00     0.001 A 
HETATM   16  C   UNL     1      42.281  -8.843  14.976  1.00  0.00     0.000 A 
HETATM   17  C   UNL     1      41.590 -10.046  14.859  1.00  0.00     0.001 A 
HETATM   18  C   UNL     1      41.511 -10.690  13.623  1.00  0.00     0.009 A 
ENDBRANCH  12  13
ENDBRANCH   9  12
ENDBRANCH   1   7
BRANCH   3  19
HETATM   19  C   UNL     1      43.803 -14.819   6.308  1.00  0.00     0.144 C 
BRANCH  19  20
HETATM   20  C   UNL     1      43.223 -16.176   6.731  1.00  0.00     0.142 C 
BRANCH  20  21
HETATM   21  N   UNL     1      43.658 -17.257   5.863  1.00  0.00    -0.355 N 
HETATM   22  C   UNL     1      42.791 -17.884   4.996  1.00  0.00     0.254 C 
HETATM   23  O   UNL     1      41.597 -17.600   4.920  1.00  0.00    -0.268 OA
HETATM   24  H   UNL     1      44.656 -17.361   5.745  1.00  0.00     0.162 HD
BRANCH  22  25
HETATM   25  C   UNL     1      43.356 -18.914   4.076  1.00  0.00     0.065 A 
HETATM   26  C   UNL     1      44.255 -19.869   4.578  1.00  0.00     0.081 A 
HETATM   27  C   UNL     1      44.778 -20.861   3.749  1.00  0.00     0.037 A 
HETATM   28  C   UNL     1      44.423 -20.902   2.403  1.00  0.00     0.003 A 
HETATM   29  C   UNL     1      43.553 -19.946   1.883  1.00  0.00     0.001 A 
HETATM   30  C   UNL     1      43.024 -18.952   2.713  1.00  0.00     0.020 A 
BRANCH  26  31
HETATM   31  O   UNL     1      44.673 -19.895   5.883  1.00  0.00    -0.360 OA
HETATM   32  H   UNL     1      45.653 -19.983   5.880  1.00  0.00     0.217 HD
ENDBRANCH  26  31
ENDBRANCH  22  25
ENDBRANCH  20  21
ENDBRANCH  19  20
ENDBRANCH   3  19
TORSDOF 8
ENDMDL
MODEL 8
REMARK VINA RESULT:      -8.1      3.757      4.414
REMARK  8 active torsions:
REMARK  status: ('A' for Active; 'I' for Inactive)
REMARK    1  A    between atoms: C_4  and  C_5 
REMARK    2  A    between atoms: C_5  and  N_6 
REMARK    3  A    between atoms: C_8  and  N_9 
REMARK       I    between atoms: N_9  and  C_10 
REMARK       I    between atoms: C_10  and  N_11 
REMARK    4  A    between atoms: N_11  and  C_12 
REMARK    5  A    between atoms: C_12  and  C_13 
REMARK    6  A    between atoms: C_13  and  N_14 
REMARK       I    between atoms: N_14  and  C_15 
REMARK    7  A    between atoms: C_15  and  C_16 
REMARK    8  A    between atoms: C_17  and  O_18 
ROOT
HETATM    1  N   UNL     1      40.385 -15.453   4.047  1.00  0.00    -0.292 N 
HETATM    2  C   UNL     1      40.448 -14.110   4.265  1.00  0.00     0.321 C 
HETATM    3  N   UNL     1      41.425 -13.660   5.096  1.00  0.00    -0.341 N 
HETATM    4  O   UNL     1      39.621 -13.367   3.739  1.00  0.00    -0.247 OA
HETATM    5  H   UNL     1      39.606 -15.737   3.471  1.00  0.00     0.172 HD
HETATM    6  H   UNL     1      42.127 -14.351   5.357  1.00  0.00     0.164 HD
ENDROOT
BRANCH   1   7
HETATM    7  C   UNL     1      41.249 -16.436   4.471  1.00  0.00     0.153 A 
HETATM    8  N   UNL     1      42.500 -16.597   4.024  1.00  0.00    -0.154 NA
HETATM    9  N   UNL     1      42.959 -17.673   4.699  1.00  0.00    -0.275 N 
HETATM   10  C   UNL     1      42.034 -18.209   5.548  1.00  0.00     0.116 A 
HETATM   11  C   UNL     1      40.913 -17.426   5.423  1.00  0.00     0.071 A 
BRANCH   9  12
HETATM   12  C   UNL     1      44.292 -18.197   4.421  1.00  0.00     0.189 C 
BRANCH  12  13
HETATM   13  C   UNL     1      44.242 -19.510   3.680  1.00  0.00    -0.038 A 
HETATM   14  C   UNL     1      44.761 -20.677   4.260  1.00  0.00     0.009 A 
HETATM   15  C   UNL     1      44.690 -21.896   3.584  1.00  0.00     0.001 A 
HETATM   16  C   UNL     1      44.099 -21.963   2.324  1.00  0.00     0.000 A 
HETATM   17  C   UNL     1      43.579 -20.812   1.736  1.00  0.00     0.001 A 
HETATM   18  C   UNL     1      43.646 -19.592   2.411  1.00  0.00     0.009 A 
ENDBRANCH  12  13
ENDBRANCH   9  12
ENDBRANCH   1   7
BRANCH   3  19
HETATM   19  C   UNL     1      41.668 -12.253   5.329  1.00  0.00     0.144 C 
BRANCH  19  20
HETATM   20  C   UNL     1      40.794 -11.667   6.446  1.00  0.00     0.142 C 
BRANCH  20  21
HETATM   21  N   UNL     1      41.502 -11.581   7.712  1.00  0.00    -0.355 N 
HETATM   22  C   UNL     1      42.051 -10.399   8.157  1.00  0.00     0.254 C 
HETATM   23  O   UNL     1      42.010  -9.355   7.509  1.00  0.00    -0.268 OA
HETATM   24  H   UNL     1      41.364 -12.349   8.354  1.00  0.00     0.162 HD
BRANCH  22  25
HETATM   25  C   UNL     1      42.671 -10.391   9.514  1.00  0.00     0.065 A 
HETATM   26  C   UNL     1      43.643 -11.353   9.835  1.00  0.00     0.081 A 
HETATM   27  C   UNL     1      44.260 -11.354  11.086  1.00  0.00     0.037 A 
HETATM   28  C   UNL     1      43.902 -10.404  12.040  1.00  0.00     0.003 A 
HETATM   29  C   UNL     1      42.920  -9.459  11.747  1.00  0.00     0.001 A 
HETATM   30  C   UNL     1      42.302  -9.453  10.492  1.00  0.00     0.020 A 
BRANCH  26  31
HETATM   31  O   UNL     1      44.044 -12.334   8.967  1.00  0.00    -0.360 OA
HETATM   32  H   UNL     1      43.797 -13.201   9.363  1.00  0.00     0.217 HD
ENDBRANCH  26  31
ENDBRANCH  22  25
ENDBRANCH  20  21
ENDBRANCH  19  20
ENDBRANCH   3  19
TORSDOF 8
ENDMDL
MODEL 9
REMARK VINA RESULT:      -8.0      2.248      4.473
REMARK  8 active torsions:
REMARK  status: ('A' for Active; 'I' for Inactive)
REMARK    1  A    between atoms: C_4  and  C_5 
REMARK    2  A    between atoms: C_5  and  N_6 
REMARK    3  A    between atoms: C_8  and  N_9 
REMARK       I    between atoms: N_9  and  C_10 
REMARK       I    between atoms: C_10  and  N_11 
REMARK    4  A    between atoms: N_11  and  C_12 
REMARK    5  A    between atoms: C_12  and  C_13 
REMARK    6  A    between atoms: C_13  and  N_14 
REMARK       I    between atoms: N_14  and  C_15 
REMARK    7  A    between atoms: C_15  and  C_16 
REMARK    8  A    between atoms: C_17  and  O_18 
ROOT
HETATM    1  N   UNL     1      39.913 -14.327   6.566  1.00  0.00    -0.292 N 
HETATM    2  C   UNL     1      39.912 -13.031   6.149  1.00  0.00     0.321 C 
HETATM    3  N   UNL     1      40.935 -12.634   5.346  1.00  0.00    -0.341 N 
HETATM    4  O   UNL     1      39.023 -12.269   6.525  1.00  0.00    -0.247 OA
HETATM    5  H   UNL     1      39.165 -14.551   7.206  1.00  0.00     0.172 HD
HETATM    6  H   UNL     1      41.528 -13.384   4.994  1.00  0.00     0.164 HD
ENDROOT
BRANCH   1   7
HETATM    7  C   UNL     1      40.761 -15.348   6.203  1.00  0.00     0.153 A 
HETATM    8  N   UNL     1      42.068 -15.203   5.955  1.00  0.00    -0.154 NA
HETATM    9  N   UNL     1      42.485 -16.445   5.629  1.00  0.00    -0.275 N 
HETATM   10  C   UNL     1      41.482 -17.371   5.648  1.00  0.00     0.116 A 
HETATM   11  C   UNL     1      40.349 -16.689   6.019  1.00  0.00     0.071 A 
BRANCH   9  12
HETATM   12  C   UNL     1      43.869 -16.670   5.225  1.00  0.00     0.189 C 
BRANCH  12  13
HETATM   13  C   UNL     1      44.004 -17.851   4.297  1.00  0.00    -0.038 A 
HETATM   14  C   UNL     1      43.797 -17.702   2.917  1.00  0.00     0.009 A 
HETATM   15  C   UNL     1      43.949 -18.791   2.057  1.00  0.00     0.001 A 
HETATM   16  C   UNL     1      44.310 -20.038   2.564  1.00  0.00     0.000 A 
HETATM   17  C   UNL     1      44.519 -20.199   3.931  1.00  0.00     0.001 A 
HETATM   18  C   UNL     1      44.370 -19.112   4.794  1.00  0.00     0.009 A 
ENDBRANCH  12  13
ENDBRANCH   9  12
ENDBRANCH   1   7
BRANCH   3  19
HETATM   19  C   UNL     1      40.997 -11.318   4.750  1.00  0.00     0.144 C 
BRANCH  19  20
HETATM   20  C   UNL     1      40.800 -11.336   3.228  1.00  0.00     0.142 C 
BRANCH  20  21
HETATM   21  N   UNL     1      40.587 -12.679   2.715  1.00  0.00    -0.355 N 
HETATM   22  C   UNL     1      41.554 -13.339   1.989  1.00  0.00     0.254 C 
HETATM   23  O   UNL     1      42.636 -12.834   1.700  1.00  0.00    -0.268 OA
HETATM   24  H   UNL     1      39.814 -13.192   3.114  1.00  0.00     0.162 HD
BRANCH  22  25
HETATM   25  C   UNL     1      41.278 -14.751   1.592  1.00  0.00     0.065 A 
HETATM   26  C   UNL     1      41.635 -15.189   0.307  1.00  0.00     0.081 A 
HETATM   27  C   UNL     1      41.416 -16.510  -0.083  1.00  0.00     0.037 A 
HETATM   28  C   UNL     1      40.821 -17.407   0.800  1.00  0.00     0.003 A 
HETATM   29  C   UNL     1      40.436 -16.982   2.070  1.00  0.00     0.001 A 
HETATM   30  C   UNL     1      40.658 -15.658   2.466  1.00  0.00     0.020 A 
BRANCH  26  31
HETATM   31  O   UNL     1      42.208 -14.372  -0.633  1.00  0.00    -0.360 OA
HETATM   32  H   UNL     1      43.084 -14.755  -0.866  1.00  0.00     0.217 HD
ENDBRANCH  26  31
ENDBRANCH  22  25
ENDBRANCH  20  21
ENDBRANCH  19  20
ENDBRANCH   3  19
TORSDOF 8
ENDMDL
MODEL 10
REMARK VINA RESULT:      -8.0      2.310      6.876
REMARK  8 active torsions:
REMARK  status: ('A' for Active; 'I' for Inactive)
REMARK    1  A    between atoms: C_4  and  C_5 
REMARK    2  A    between atoms: C_5  and  N_6 
REMARK    3  A    between atoms: C_8  and  N_9 
REMARK       I    between atoms: N_9  and  C_10 
REMARK       I    between atoms: C_10  and  N_11 
REMARK    4  A    between atoms: N_11  and  C_12 
REMARK    5  A    between atoms: C_12  and  C_13 
REMARK    6  A    between atoms: C_13  and  N_14 
REMARK       I    between atoms: N_14  and  C_15 
REMARK    7  A    between atoms: C_15  and  C_16 
REMARK    8  A    between atoms: C_17  and  O_18 
ROOT
HETATM    1  N   UNL     1      43.816 -14.051   5.782  1.00  0.00    -0.292 N 
HETATM    2  C   UNL     1      43.961 -14.806   6.906  1.00  0.00     0.321 C 
HETATM    3  N   UNL     1      43.216 -15.939   6.997  1.00  0.00    -0.341 N 
HETATM    4  O   UNL     1      44.724 -14.433   7.796  1.00  0.00    -0.247 OA
HETATM    5  H   UNL     1      44.346 -13.193   5.794  1.00  0.00     0.172 HD
HETATM    6  H   UNL     1      42.732 -16.211   6.143  1.00  0.00     0.164 HD
ENDROOT
BRANCH   1   7
HETATM    7  C   UNL     1      43.085 -14.327   4.649  1.00  0.00     0.153 A 
HETATM    8  N   UNL     1      41.817 -14.757   4.644  1.00  0.00    -0.154 NA
HETATM    9  N   UNL     1      41.519 -14.902   3.335  1.00  0.00    -0.275 N 
HETATM   10  C   UNL     1      42.562 -14.593   2.510  1.00  0.00     0.116 A 
HETATM   11  C   UNL     1      43.593 -14.214   3.334  1.00  0.00     0.071 A 
BRANCH   9  12
HETATM   12  C   UNL     1      40.219 -15.427   2.935  1.00  0.00     0.189 C 
BRANCH  12  13
HETATM   13  C   UNL     1      39.342 -14.364   2.322  1.00  0.00    -0.038 A 
HETATM   14  C   UNL     1      38.388 -14.699   1.350  1.00  0.00     0.009 A 
HETATM   15  C   UNL     1      37.559 -13.718   0.803  1.00  0.00     0.001 A 
HETATM   16  C   UNL     1      37.673 -12.394   1.222  1.00  0.00     0.000 A 
HETATM   17  C   UNL     1      38.615 -12.047   2.187  1.00  0.00     0.001 A 
HETATM   18  C   UNL     1      39.444 -13.027   2.738  1.00  0.00     0.009 A 
ENDBRANCH  12  13
ENDBRANCH   9  12
ENDBRANCH   1   7
BRANCH   3  19
HETATM   19  C   UNL     1      43.354 -16.881   8.086  1.00  0.00     0.144 C 
BRANCH  19  20
HETATM   20  C   UNL     1      44.337 -18.018   7.780  1.00  0.00     0.142 C 
BRANCH  20  21
HETATM   21  N   UNL     1      44.359 -18.364   6.368  1.00  0.00    -0.355 N 
HETATM   22  C   UNL     1      44.065 -19.635   5.929  1.00  0.00     0.254 C 
HETATM   23  O   UNL     1      43.799 -20.563   6.690  1.00  0.00    -0.268 OA
HETATM   24  H   UNL     1      44.357 -17.590   5.719  1.00  0.00     0.162 HD
BRANCH  22  25
HETATM   25  C   UNL     1      44.017 -19.865   4.455  1.00  0.00     0.065 A 
HETATM   26  C   UNL     1      43.365 -18.932   3.632  1.00  0.00     0.081 A 
HETATM   27  C   UNL     1      43.328 -19.104   2.249  1.00  0.00     0.037 A 
HETATM   28  C   UNL     1      43.927 -20.220   1.670  1.00  0.00     0.003 A 
HETATM   29  C   UNL     1      44.555 -21.170   2.475  1.00  0.00     0.001 A 
HETATM   30  C   UNL     1      44.597 -20.997   3.862  1.00  0.00     0.020 A 
BRANCH  26  31
HETATM   31  O   UNL     1      42.734 -17.815   4.116  1.00  0.00    -0.360 OA
HETATM   32  H   UNL     1      42.540 -17.228   3.351  1.00  0.00     0.217 HD
ENDBRANCH  26  31
ENDBRANCH  22  25
ENDBRANCH  20  21
ENDBRANCH  19  20
ENDBRANCH   3  19
TORSDOF 8
ENDMDL
