MODEL 1
REMARK VINA RESULT:      -8.7      0.000      0.000
REMARK  7 active torsions:
REMARK  status: ('A' for Active; 'I' for Inactive)
REMARK    1  A    between atoms: C_2  and  C_3 
REMARK    2  A    between atoms: C_3  and  N_4 
REMARK    3  A    between atoms: C_7  and  C_8 
REMARK    4  A    between atoms: C_8  and  N_9 
REMARK       I    between atoms: N_9  and  C_10 
REMARK       I    between atoms: C_10  and  N_11 
REMARK    5  A    between atoms: N_11  and  C_12 
REMARK    6  A    between atoms: C_16  and  N_17 
REMARK       I    between atoms: N_17  and  C_18 
REMARK    7  A    between atoms: C_18  and  C_19 
ROOT
HETATM    1  C   UNL     1      42.290 -15.864   4.108  1.00  0.00     0.036 A 
HETATM    2  C   UNL     1      42.537 -16.518   5.317  1.00  0.00     0.038 A 
HETATM    3  C   UNL     1      43.097 -15.832   6.415  1.00  0.00    -0.033 A 
HETATM    4  C   UNL     1      43.345 -16.598   7.688  1.00  0.00     0.050 C 
HETATM    5  C   UNL     1      43.386 -14.456   6.301  1.00  0.00     0.041 A 
HETATM    6  C   UNL     1      43.202 -13.834   5.062  1.00  0.00     0.032 A 
HETATM    7  C   UNL     1      42.681 -14.534   3.971  1.00  0.00     0.032 A 
ENDROOT
BRANCH   1   8
HETATM    8  N   UNL     1      41.693 -16.478   2.993  1.00  0.00    -0.309 N 
HETATM    9  C   UNL     1      42.020 -17.600   2.296  1.00  0.00     0.320 C 
HETATM   10  N   UNL     1      42.950 -18.432   2.853  1.00  0.00    -0.342 N 
HETATM   11  O   UNL     1      41.453 -17.854   1.236  1.00  0.00    -0.247 OA
HETATM   12  H   UNL     1      43.028 -18.280   3.852  1.00  0.00     0.164 HD
HETATM   13  H   UNL     1      40.811 -16.085   2.681  1.00  0.00     0.170 HD
BRANCH  10  14
HETATM   14  C   UNL     1      43.156 -19.816   2.462  1.00  0.00     0.130 C 
BRANCH  14  15
HETATM   15  C   UNL     1      44.595 -20.355   2.410  1.00  0.00     0.031 C 
HETATM   16  C   UNL     1      45.318 -20.337   3.749  1.00  0.00     0.241 C 
HETATM   17  N   UNL     1      45.064 -21.708   4.371  1.00  0.00    -0.071 N 
HETATM   18  H   UNL     1      45.993 -22.112   4.554  1.00  0.00     0.279 HD
HETATM   19  C   UNL     1      44.390 -22.564   3.321  1.00  0.00     0.235 C 
HETATM   20  C   UNL     1      44.642 -21.829   2.020  1.00  0.00     0.035 C 
BRANCH  17  21
HETATM   21  C   UNL     1      44.343 -21.628   5.691  1.00  0.00     0.234 C 
BRANCH  21  22
HETATM   22  C   UNL     1      44.124 -20.174   6.090  1.00  0.00     0.023 C 
HETATM   23  C   UNL     1      43.664 -20.073   7.536  1.00  0.00     0.007 C 
ENDBRANCH  21  22
ENDBRANCH  17  21
ENDBRANCH  14  15
ENDBRANCH  10  14
ENDBRANCH   1   8
BRANCH   5  24
HETATM   24  N   UNL     1      43.840 -13.754   7.437  1.00  0.00    -0.321 N 
HETATM   25  C   UNL     1      45.108 -13.250   7.684  1.00  0.00     0.279 C 
HETATM   26  O   UNL     1      46.080 -13.377   6.947  1.00  0.00    -0.265 OA
HETATM   27  H   UNL     1      43.157 -13.486   8.136  1.00  0.00     0.169 HD
BRANCH  25  28
HETATM   28  C   UNL     1      45.175 -12.492   8.921  1.00  0.00     0.142 A 
HETATM   29  O   UNL     1      44.514 -12.954  10.033  1.00  0.00    -0.317 OA
HETATM   30  C   UNL     1      44.740 -12.059  11.031  1.00  0.00     0.143 A 
HETATM   31  C   UNL     1      45.522 -11.021  10.582  1.00  0.00     0.027 A 
HETATM   32  C   UNL     1      45.806 -11.301   9.223  1.00  0.00     0.045 A 
ENDBRANCH  25  28
ENDBRANCH   5  24
TORSDOF 7
ENDMDL
MODEL 2
REMARK VINA RESULT:      -8.0      2.975      5.817
REMARK  7 active torsions:
REMARK  status: ('A' for Active; 'I' for Inactive)
REMARK    1  A    between atoms: C_2  and  C_3 
REMARK    2  A    between atoms: C_3  and  N_4 
REMARK    3  A    between atoms: C_7  and  C_8 
REMARK    4  A    between atoms: C_8  and  N_9 
REMARK       I    between atoms: N_9  and  C_10 
REMARK       I    between atoms: C_10  and  N_11 
REMARK    5  A    between atoms: N_11  and  C_12 
REMARK    6  A    between atoms: C_16  and  N_17 
REMARK       I    between atoms: N_17  and  C_18 
REMARK    7  A    between atoms: C_18  and  C_19 
ROOT
HETATM    1  C   UNL     1      42.759 -16.082   4.029  1.00  0.00     0.036 A 
HETATM    2  C   UNL     1      42.849 -16.703   5.276  1.00  0.00     0.038 A 
HETATM    3  C   UNL     1      43.302 -15.997   6.411  1.00  0.00    -0.033 A 
HETATM    4  C   UNL     1      43.383 -16.729   7.725  1.00  0.00     0.050 C 
HETATM    5  C   UNL     1      43.641 -14.634   6.291  1.00  0.00     0.041 A 
HETATM    6  C   UNL     1      43.615 -14.047   5.022  1.00  0.00     0.032 A 
HETATM    7  C   UNL     1      43.200 -14.768   3.899  1.00  0.00     0.032 A 
ENDROOT
BRANCH   1   8
HETATM    8  N   UNL     1      42.274 -16.716   2.872  1.00  0.00    -0.309 N 
HETATM    9  C   UNL     1      41.047 -16.708   2.282  1.00  0.00     0.320 C 
HETATM   10  N   UNL     1      40.150 -15.775   2.722  1.00  0.00    -0.342 N 
HETATM   11  O   UNL     1      40.800 -17.485   1.364  1.00  0.00    -0.247 OA
HETATM   12  H   UNL     1      40.618 -15.006   3.188  1.00  0.00     0.164 HD
HETATM   13  H   UNL     1      42.959 -17.208   2.307  1.00  0.00     0.170 HD
BRANCH  10  14
HETATM   14  C   UNL     1      38.959 -15.371   1.994  1.00  0.00     0.130 C 
BRANCH  14  15
HETATM   15  C   UNL     1      38.787 -13.884   1.642  1.00  0.00     0.031 C 
HETATM   16  C   UNL     1      40.037 -13.226   1.078  1.00  0.00     0.241 C 
HETATM   17  N   UNL     1      39.928 -13.368  -0.438  1.00  0.00    -0.071 N 
HETATM   18  H   UNL     1      39.982 -12.413  -0.817  1.00  0.00     0.279 HD
HETATM   19  C   UNL     1      38.548 -13.907  -0.744  1.00  0.00     0.235 C 
HETATM   20  C   UNL     1      37.764 -13.673   0.531  1.00  0.00     0.035 C 
BRANCH  17  21
HETATM   21  C   UNL     1      41.068 -14.151  -1.036  1.00  0.00     0.234 C 
BRANCH  21  22
HETATM   22  C   UNL     1      40.892 -14.281  -2.543  1.00  0.00     0.023 C 
HETATM   23  C   UNL     1      40.854 -15.743  -2.961  1.00  0.00     0.007 C 
ENDBRANCH  21  22
ENDBRANCH  17  21
ENDBRANCH  14  15
ENDBRANCH  10  14
ENDBRANCH   1   8
BRANCH   5  24
HETATM   24  N   UNL     1      43.984 -13.908   7.450  1.00  0.00    -0.321 N 
HETATM   25  C   UNL     1      45.175 -13.257   7.734  1.00  0.00     0.279 C 
HETATM   26  O   UNL     1      46.169 -13.246   7.015  1.00  0.00    -0.265 OA
HETATM   27  H   UNL     1      43.260 -13.743   8.140  1.00  0.00     0.169 HD
BRANCH  25  28
HETATM   28  C   UNL     1      45.126 -12.526   8.988  1.00  0.00     0.142 A 
HETATM   29  O   UNL     1      44.429 -13.050  10.049  1.00  0.00    -0.317 OA
HETATM   30  C   UNL     1      44.544 -12.167  11.076  1.00  0.00     0.143 A 
HETATM   31  C   UNL     1      45.290 -11.077  10.695  1.00  0.00     0.027 A 
HETATM   32  C   UNL     1      45.668 -11.308   9.351  1.00  0.00     0.045 A 
ENDBRANCH  25  28
ENDBRANCH   5  24
TORSDOF 7
ENDMDL
MODEL 3
REMARK VINA RESULT:      -8.0      4.658      8.562
REMARK  7 active torsions:
REMARK  status: ('A' for Active; 'I' for Inactive)
REMARK    1  A    between atoms: C_2  and  C_3 
REMARK    2  A    between atoms: C_3  and  N_4 
REMARK    3  A    between atoms: C_7  and  C_8 
REMARK    4  A    between atoms: C_8  and  N_9 
REMARK       I    between atoms: N_9  and  C_10 
REMARK       I    between atoms: C_10  and  N_11 
REMARK    5  A    between atoms: N_11  and  C_12 
REMARK    6  A    between atoms: C_16  and  N_17 
REMARK       I    between atoms: N_17  and  C_18 
REMARK    7  A    between atoms: C_18  and  C_19 
ROOT
HETATM    1  C   UNL     1      40.625 -15.645   0.939  1.00  0.00     0.036 A 
HETATM    2  C   UNL     1      41.833 -16.216   0.534  1.00  0.00     0.038 A 
HETATM    3  C   UNL     1      42.534 -17.110   1.370  1.00  0.00    -0.033 A 
HETATM    4  C   UNL     1      43.835 -17.685   0.875  1.00  0.00     0.050 C 
HETATM    5  C   UNL     1      41.992 -17.456   2.626  1.00  0.00     0.041 A 
HETATM    6  C   UNL     1      40.820 -16.820   3.047  1.00  0.00     0.032 A 
HETATM    7  C   UNL     1      40.155 -15.908   2.223  1.00  0.00     0.032 A 
ENDROOT
BRANCH   1   8
HETATM    8  N   UNL     1      39.858 -14.784   0.136  1.00  0.00    -0.309 N 
HETATM    9  C   UNL     1      40.013 -13.471  -0.190  1.00  0.00     0.320 C 
HETATM   10  N   UNL     1      41.215 -12.893   0.110  1.00  0.00    -0.342 N 
HETATM   11  O   UNL     1      39.114 -12.870  -0.771  1.00  0.00    -0.247 OA
HETATM   12  H   UNL     1      41.940 -13.592   0.229  1.00  0.00     0.164 HD
HETATM   13  H   UNL     1      39.089 -15.209  -0.374  1.00  0.00     0.170 HD
BRANCH  10  14
HETATM   14  C   UNL     1      41.698 -11.652  -0.470  1.00  0.00     0.130 C 
BRANCH  14  15
HETATM   15  C   UNL     1      42.849 -11.720  -1.488  1.00  0.00     0.031 C 
HETATM   16  C   UNL     1      42.904 -13.016  -2.283  1.00  0.00     0.241 C 
HETATM   17  N   UNL     1      42.094 -12.754  -3.551  1.00  0.00    -0.071 N 
HETATM   18  H   UNL     1      42.730 -12.946  -4.337  1.00  0.00     0.279 HD
HETATM   19  C   UNL     1      41.761 -11.279  -3.579  1.00  0.00     0.235 C 
HETATM   20  C   UNL     1      42.714 -10.660  -2.577  1.00  0.00     0.035 C 
BRANCH  17  21
HETATM   21  C   UNL     1      40.915 -13.680  -3.693  1.00  0.00     0.234 C 
BRANCH  21  22
HETATM   22  C   UNL     1      41.285 -15.088  -3.243  1.00  0.00     0.023 C 
HETATM   23  C   UNL     1      40.073 -16.006  -3.283  1.00  0.00     0.007 C 
ENDBRANCH  21  22
ENDBRANCH  17  21
ENDBRANCH  14  15
ENDBRANCH  10  14
ENDBRANCH   1   8
BRANCH   5  24
HETATM   24  N   UNL     1      42.640 -18.435   3.406  1.00  0.00    -0.321 N 
HETATM   25  C   UNL     1      43.449 -18.249   4.517  1.00  0.00     0.279 C 
HETATM   26  O   UNL     1      43.774 -17.164   4.987  1.00  0.00    -0.265 OA
HETATM   27  H   UNL     1      42.435 -19.410   3.216  1.00  0.00     0.169 HD
BRANCH  25  28
HETATM   28  C   UNL     1      43.858 -19.504   5.125  1.00  0.00     0.142 A 
HETATM   29  O   UNL     1      44.503 -20.446   4.361  1.00  0.00    -0.317 OA
HETATM   30  C   UNL     1      44.761 -21.506   5.171  1.00  0.00     0.143 A 
HETATM   31  C   UNL     1      44.283 -21.274   6.439  1.00  0.00     0.027 A 
HETATM   32  C   UNL     1      43.704 -19.983   6.411  1.00  0.00     0.045 A 
ENDBRANCH  25  28
ENDBRANCH   5  24
TORSDOF 7
ENDMDL
MODEL 4
REMARK VINA RESULT:      -7.9      3.789      8.362
REMARK  7 active torsions:
REMARK  status: ('A' for Active; 'I' for Inactive)
REMARK    1  A    between atoms: C_2  and  C_3 
REMARK    2  A    between atoms: C_3  and  N_4 
REMARK    3  A    between atoms: C_7  and  C_8 
REMARK    4  A    between atoms: C_8  and  N_9 
REMARK       I    between atoms: N_9  and  C_10 
REMARK       I    between atoms: C_10  and  N_11 
REMARK    5  A    between atoms: N_11  and  C_12 
REMARK    6  A    between atoms: C_16  and  N_17 
REMARK       I    between atoms: N_17  and  C_18 
REMARK    7  A    between atoms: C_18  and  C_19 
ROOT
HETATM    1  C   UNL     1      42.941 -14.103   2.749  1.00  0.00     0.036 A 
HETATM    2  C   UNL     1      42.775 -15.380   2.210  1.00  0.00     0.038 A 
HETATM    3  C   UNL     1      41.891 -15.608   1.133  1.00  0.00    -0.033 A 
HETATM    4  C   UNL     1      41.754 -17.012   0.603  1.00  0.00     0.050 C 
HETATM    5  C   UNL     1      41.185 -14.524   0.574  1.00  0.00     0.041 A 
HETATM    6  C   UNL     1      41.306 -13.266   1.172  1.00  0.00     0.032 A 
HETATM    7  C   UNL     1      42.157 -13.061   2.261  1.00  0.00     0.032 A 
ENDROOT
BRANCH   1   8
HETATM    8  N   UNL     1      43.838 -13.803   3.789  1.00  0.00    -0.309 N 
HETATM    9  C   UNL     1      43.861 -14.172   5.099  1.00  0.00     0.320 C 
HETATM   10  N   UNL     1      43.015 -15.177   5.478  1.00  0.00    -0.342 N 
HETATM   11  O   UNL     1      44.651 -13.642   5.874  1.00  0.00    -0.247 OA
HETATM   12  H   UNL     1      42.727 -15.735   4.682  1.00  0.00     0.164 HD
HETATM   13  H   UNL     1      44.674 -13.289   3.529  1.00  0.00     0.170 HD
BRANCH  10  14
HETATM   14  C   UNL     1      43.147 -15.944   6.705  1.00  0.00     0.130 C 
BRANCH  14  15
HETATM   15  C   UNL     1      42.453 -17.314   6.788  1.00  0.00     0.031 C 
HETATM   16  C   UNL     1      42.134 -17.937   5.437  1.00  0.00     0.241 C 
HETATM   17  N   UNL     1      43.335 -18.816   5.097  1.00  0.00    -0.071 N 
HETATM   18  H   UNL     1      42.960 -19.762   4.949  1.00  0.00     0.279 HD
HETATM   19  C   UNL     1      44.225 -18.859   6.319  1.00  0.00     0.235 C 
HETATM   20  C   UNL     1      43.340 -18.367   7.445  1.00  0.00     0.035 C 
BRANCH  17  21
HETATM   21  C   UNL     1      44.020 -18.401   3.821  1.00  0.00     0.234 C 
BRANCH  21  22
HETATM   22  C   UNL     1      43.746 -19.413   2.716  1.00  0.00     0.023 C 
HETATM   23  C   UNL     1      44.542 -20.690   2.940  1.00  0.00     0.007 C 
ENDBRANCH  21  22
ENDBRANCH  17  21
ENDBRANCH  14  15
ENDBRANCH  10  14
ENDBRANCH   1   8
BRANCH   5  24
HETATM   24  N   UNL     1      40.391 -14.740  -0.571  1.00  0.00    -0.321 N 
HETATM   25  C   UNL     1      40.702 -14.471  -1.895  1.00  0.00     0.279 C 
HETATM   26  O   UNL     1      41.737 -13.943  -2.289  1.00  0.00    -0.265 OA
HETATM   27  H   UNL     1      39.516 -15.240  -0.457  1.00  0.00     0.169 HD
BRANCH  25  28
HETATM   28  C   UNL     1      39.673 -14.925  -2.814  1.00  0.00     0.142 A 
HETATM   29  O   UNL     1      39.966 -15.914  -3.721  1.00  0.00    -0.317 OA
HETATM   30  C   UNL     1      38.838 -16.135  -4.447  1.00  0.00     0.143 A 
HETATM   31  C   UNL     1      37.827 -15.299  -4.037  1.00  0.00     0.027 A 
HETATM   32  C   UNL     1      38.363 -14.521  -2.982  1.00  0.00     0.045 A 
ENDBRANCH  25  28
ENDBRANCH   5  24
TORSDOF 7
ENDMDL
MODEL 5
REMARK VINA RESULT:      -7.8      3.834      8.508
REMARK  7 active torsions:
REMARK  status: ('A' for Active; 'I' for Inactive)
REMARK    1  A    between atoms: C_2  and  C_3 
REMARK    2  A    between atoms: C_3  and  N_4 
REMARK    3  A    between atoms: C_7  and  C_8 
REMARK    4  A    between atoms: C_8  and  N_9 
REMARK       I    between atoms: N_9  and  C_10 
REMARK       I    between atoms: C_10  and  N_11 
REMARK    5  A    between atoms: N_11  and  C_12 
REMARK    6  A    between atoms: C_16  and  N_17 
REMARK       I    between atoms: N_17  and  C_18 
REMARK    7  A    between atoms: C_18  and  C_19 
ROOT
HETATM    1  C   UNL     1      40.856 -15.027   5.857  1.00  0.00     0.036 A 
HETATM    2  C   UNL     1      41.816 -14.845   4.860  1.00  0.00     0.038 A 
HETATM    3  C   UNL     1      42.428 -15.949   4.227  1.00  0.00    -0.033 A 
HETATM    4  C   UNL     1      43.461 -15.682   3.164  1.00  0.00     0.050 C 
HETATM    5  C   UNL     1      42.044 -17.257   4.587  1.00  0.00     0.041 A 
HETATM    6  C   UNL     1      41.136 -17.422   5.638  1.00  0.00     0.032 A 
HETATM    7  C   UNL     1      40.565 -16.321   6.281  1.00  0.00     0.032 A 
ENDROOT
BRANCH   1   8
HETATM    8  N   UNL     1      40.178 -13.973   6.493  1.00  0.00    -0.309 N 
HETATM    9  C   UNL     1      39.635 -12.823   6.007  1.00  0.00     0.320 C 
HETATM   10  N   UNL     1      39.506 -12.719   4.651  1.00  0.00    -0.342 N 
HETATM   11  O   UNL     1      39.242 -11.953   6.780  1.00  0.00    -0.247 OA
HETATM   12  H   UNL     1      39.522 -13.631   4.209  1.00  0.00     0.164 HD
HETATM   13  H   UNL     1      39.966 -14.102   7.477  1.00  0.00     0.170 HD
BRANCH  10  14
HETATM   14  C   UNL     1      38.642 -11.765   3.977  1.00  0.00     0.130 C 
BRANCH  14  15
HETATM   15  C   UNL     1      39.180 -11.044   2.730  1.00  0.00     0.031 C 
HETATM   16  C   UNL     1      40.486 -11.612   2.194  1.00  0.00     0.241 C 
HETATM   17  N   UNL     1      40.083 -12.648   1.147  1.00  0.00    -0.071 N 
HETATM   18  H   UNL     1      40.546 -12.362   0.273  1.00  0.00     0.279 HD
HETATM   19  C   UNL     1      38.590 -12.525   0.938  1.00  0.00     0.235 C 
HETATM   20  C   UNL     1      38.238 -11.179   1.538  1.00  0.00     0.035 C 
BRANCH  17  21
HETATM   21  C   UNL     1      40.571 -14.034   1.477  1.00  0.00     0.234 C 
BRANCH  21  22
HETATM   22  C   UNL     1      39.409 -14.920   1.910  1.00  0.00     0.023 C 
HETATM   23  C   UNL     1      39.805 -16.387   1.880  1.00  0.00     0.007 C 
ENDBRANCH  21  22
ENDBRANCH  17  21
ENDBRANCH  14  15
ENDBRANCH  10  14
ENDBRANCH   1   8
BRANCH   5  24
HETATM   24  N   UNL     1      42.577 -18.349   3.873  1.00  0.00    -0.321 N 
HETATM   25  C   UNL     1      43.768 -19.022   4.098  1.00  0.00     0.279 C 
HETATM   26  O   UNL     1      44.596 -18.736   4.956  1.00  0.00    -0.265 OA
HETATM   27  H   UNL     1      41.999 -18.780   3.160  1.00  0.00     0.169 HD
BRANCH  25  28
HETATM   28  C   UNL     1      43.937 -20.167   3.220  1.00  0.00     0.142 A 
HETATM   29  O   UNL     1      44.629 -21.266   3.668  1.00  0.00    -0.317 OA
HETATM   30  C   UNL     1      44.637 -22.171   2.653  1.00  0.00     0.143 A 
HETATM   31  C   UNL     1      43.977 -21.673   1.555  1.00  0.00     0.027 A 
HETATM   32  C   UNL     1      43.522 -20.383   1.920  1.00  0.00     0.045 A 
ENDBRANCH  25  28
ENDBRANCH   5  24
TORSDOF 7
ENDMDL
MODEL 6
REMARK VINA RESULT:      -7.6      3.423      9.514
REMARK  7 active torsions:
REMARK  status: ('A' for Active; 'I' for Inactive)
REMARK    1  A    between atoms: C_2  and  C_3 
REMARK    2  A    between atoms: C_3  and  N_4 
REMARK    3  A    between atoms: C_7  and  C_8 
REMARK    4  A    between atoms: C_8  and  N_9 
REMARK       I    between atoms: N_9  and  C_10 
REMARK       I    between atoms: C_10  and  N_11 
REMARK    5  A    between atoms: N_11  and  C_12 
REMARK    6  A    between atoms: C_16  and  N_17 
REMARK       I    between atoms: N_17  and  C_18 
REMARK    7  A    between atoms: C_18  and  C_19 
ROOT
HETATM    1  C   UNL     1      40.604 -13.164   5.412  1.00  0.00     0.036 A 
HETATM    2  C   UNL     1      41.750 -13.089   4.619  1.00  0.00     0.038 A 
HETATM    3  C   UNL     1      42.422 -14.256   4.197  1.00  0.00    -0.033 A 
HETATM    4  C   UNL     1      43.658 -14.105   3.348  1.00  0.00     0.050 C 
HETATM    5  C   UNL     1      41.912 -15.520   4.558  1.00  0.00     0.041 A 
HETATM    6  C   UNL     1      40.808 -15.577   5.413  1.00  0.00     0.032 A 
HETATM    7  C   UNL     1      40.173 -14.412   5.854  1.00  0.00     0.032 A 
ENDROOT
BRANCH   1   8
HETATM    8  N   UNL     1      39.865 -12.043   5.827  1.00  0.00    -0.309 N 
HETATM    9  C   UNL     1      39.910 -11.299   6.967  1.00  0.00     0.320 C 
HETATM   10  N   UNL     1      40.979 -11.495   7.796  1.00  0.00    -0.342 N 
HETATM   11  O   UNL     1      39.040 -10.463   7.191  1.00  0.00    -0.247 OA
HETATM   12  H   UNL     1      41.756 -11.917   7.301  1.00  0.00     0.164 HD
HETATM   13  H   UNL     1      39.234 -11.640   5.141  1.00  0.00     0.170 HD
BRANCH  10  14
HETATM   14  C   UNL     1      41.391 -10.570   8.838  1.00  0.00     0.130 C 
BRANCH  14  15
HETATM   15  C   UNL     1      40.647 -10.605  10.183  1.00  0.00     0.031 C 
HETATM   16  C   UNL     1      41.491 -11.088  11.353  1.00  0.00     0.241 C 
HETATM   17  N   UNL     1      42.093  -9.828  11.972  1.00  0.00    -0.071 N 
HETATM   18  H   UNL     1      41.801  -9.831  12.959  1.00  0.00     0.279 HD
HETATM   19  C   UNL     1      41.440  -8.639  11.303  1.00  0.00     0.235 C 
HETATM   20  C   UNL     1      40.210  -9.214  10.632  1.00  0.00     0.035 C 
BRANCH  17  21
HETATM   21  C   UNL     1      43.599  -9.828  11.951  1.00  0.00     0.234 C 
BRANCH  21  22
HETATM   22  C   UNL     1      44.123 -11.103  11.302  1.00  0.00     0.023 C 
HETATM   23  C   UNL     1      45.102 -10.778  10.184  1.00  0.00     0.007 C 
ENDBRANCH  21  22
ENDBRANCH  17  21
ENDBRANCH  14  15
ENDBRANCH  10  14
ENDBRANCH   1   8
BRANCH   5  24
HETATM   24  N   UNL     1      42.524 -16.680   4.040  1.00  0.00    -0.321 N 
HETATM   25  C   UNL     1      43.453 -17.507   4.653  1.00  0.00     0.279 C 
HETATM   26  O   UNL     1      43.939 -17.330   5.765  1.00  0.00    -0.265 OA
HETATM   27  H   UNL     1      42.196 -17.034   3.148  1.00  0.00     0.169 HD
BRANCH  25  28
HETATM   28  C   UNL     1      43.781 -18.671   3.848  1.00  0.00     0.142 A 
HETATM   29  O   UNL     1      44.599 -19.644   4.369  1.00  0.00    -0.317 OA
HETATM   30  C   UNL     1      44.741 -20.598   3.411  1.00  0.00     0.143 A 
HETATM   31  C   UNL     1      44.043 -20.254   2.278  1.00  0.00     0.027 A 
HETATM   32  C   UNL     1      43.422 -19.014   2.559  1.00  0.00     0.045 A 
ENDBRANCH  25  28
ENDBRANCH   5  24
TORSDOF 7
ENDMDL
MODEL 7
REMARK VINA RESULT:      -7.6      3.244      9.563
REMARK  7 active torsions:
REMARK  status: ('A' for Active; 'I' for Inactive)
REMARK    1  A    between atoms: C_2  and  C_3 
REMARK    2  A    between atoms: C_3  and  N_4 
REMARK    3  A    between atoms: C_7  and  C_8 
REMARK    4  A    between atoms: C_8  and  N_9 
REMARK       I    between atoms: N_9  and  C_10 
REMARK       I    between atoms: C_10  and  N_11 
REMARK    5  A    between atoms: N_11  and  C_12 
REMARK    6  A    between atoms: C_16  and  N_17 
REMARK       I    between atoms: N_17  and  C_18 
REMARK    7  A    between atoms: C_18  and  C_19 
ROOT
HETATM    1  C   UNL     1      40.543 -12.897   5.853  1.00  0.00     0.036 A 
HETATM    2  C   UNL     1      41.754 -12.885   5.157  1.00  0.00     0.038 A 
HETATM    3  C   UNL     1      42.366 -14.085   4.739  1.00  0.00    -0.033 A 
HETATM    4  C   UNL     1      43.676 -14.002   4.000  1.00  0.00     0.050 C 
HETATM    5  C   UNL     1      41.732 -15.317   5.002  1.00  0.00     0.041 A 
HETATM    6  C   UNL     1      40.558 -15.316   5.762  1.00  0.00     0.032 A 
HETATM    7  C   UNL     1      39.981 -14.122   6.202  1.00  0.00     0.032 A 
ENDROOT
BRANCH   1   8
HETATM    8  N   UNL     1      39.860 -11.736   6.256  1.00  0.00    -0.309 N 
HETATM    9  C   UNL     1      39.820 -11.078   7.447  1.00  0.00     0.320 C 
HETATM   10  N   UNL     1      40.745 -11.434   8.387  1.00  0.00    -0.342 N 
HETATM   11  O   UNL     1      39.008 -10.174   7.623  1.00  0.00    -0.247 OA
HETATM   12  H   UNL     1      41.540 -11.900   7.964  1.00  0.00     0.164 HD
HETATM   13  H   UNL     1      39.367 -11.228   5.529  1.00  0.00     0.170 HD
BRANCH  10  14
HETATM   14  C   UNL     1      41.097 -10.626   9.543  1.00  0.00     0.130 C 
BRANCH  14  15
HETATM   15  C   UNL     1      42.525 -10.065   9.635  1.00  0.00     0.031 C 
HETATM   16  C   UNL     1      42.868  -9.446  10.982  1.00  0.00     0.241 C 
HETATM   17  N   UNL     1      43.496 -10.571  11.802  1.00  0.00    -0.071 N 
HETATM   18  H   UNL     1      44.425 -10.231  12.084  1.00  0.00     0.279 HD
HETATM   19  C   UNL     1      43.700 -11.748  10.874  1.00  0.00     0.235 C 
HETATM   20  C   UNL     1      43.580 -11.156   9.485  1.00  0.00     0.035 C 
BRANCH  17  21
HETATM   21  C   UNL     1      42.730 -10.875  13.062  1.00  0.00     0.234 C 
BRANCH  21  22
HETATM   22  C   UNL     1      42.865  -9.729  14.058  1.00  0.00     0.023 C 
HETATM   23  C   UNL     1      41.853  -9.868  15.184  1.00  0.00     0.007 C 
ENDBRANCH  21  22
ENDBRANCH  17  21
ENDBRANCH  14  15
ENDBRANCH  10  14
ENDBRANCH   1   8
BRANCH   5  24
HETATM   24  N   UNL     1      42.293 -16.502   4.483  1.00  0.00    -0.321 N 
HETATM   25  C   UNL     1      41.865 -17.251   3.399  1.00  0.00     0.279 C 
HETATM   26  O   UNL     1      40.869 -17.018   2.721  1.00  0.00    -0.265 OA
HETATM   27  H   UNL     1      43.175 -16.820   4.871  1.00  0.00     0.169 HD
BRANCH  25  28
HETATM   28  C   UNL     1      42.757 -18.357   3.097  1.00  0.00     0.142 A 
HETATM   29  O   UNL     1      43.563 -18.864   4.088  1.00  0.00    -0.317 OA
HETATM   30  C   UNL     1      44.287 -19.872   3.534  1.00  0.00     0.143 A 
HETATM   31  C   UNL     1      43.976 -20.017   2.203  1.00  0.00     0.027 A 
HETATM   32  C   UNL     1      42.988 -19.043   1.921  1.00  0.00     0.045 A 
ENDBRANCH  25  28
ENDBRANCH   5  24
TORSDOF 7
ENDMDL
MODEL 8
REMARK VINA RESULT:      -7.4      4.692      9.068
REMARK  7 active torsions:
REMARK  status: ('A' for Active; 'I' for Inactive)
REMARK    1  A    between atoms: C_2  and  C_3 
REMARK    2  A    between atoms: C_3  and  N_4 
REMARK    3  A    between atoms: C_7  and  C_8 
REMARK    4  A    between atoms: C_8  and  N_9 
REMARK       I    between atoms: N_9  and  C_10 
REMARK       I    between atoms: C_10  and  N_11 
REMARK    5  A    between atoms: N_11  and  C_12 
REMARK    6  A    between atoms: C_16  and  N_17 
REMARK       I    between atoms: N_17  and  C_18 
REMARK    7  A    between atoms: C_18  and  C_19 
ROOT
HETATM    1  C   UNL     1      40.380 -14.281   2.332  1.00  0.00     0.036 A 
HETATM    2  C   UNL     1      41.450 -14.477   3.207  1.00  0.00     0.038 A 
HETATM    3  C   UNL     1      42.037 -15.750   3.367  1.00  0.00    -0.033 A 
HETATM    4  C   UNL     1      43.185 -15.894   4.333  1.00  0.00     0.050 C 
HETATM    5  C   UNL     1      41.554 -16.838   2.611  1.00  0.00     0.041 A 
HETATM    6  C   UNL     1      40.435 -16.641   1.795  1.00  0.00     0.032 A 
HETATM    7  C   UNL     1      39.840 -15.383   1.673  1.00  0.00     0.032 A 
ENDROOT
BRANCH   1   8
HETATM    8  N   UNL     1      39.782 -13.031   2.094  1.00  0.00    -0.309 N 
HETATM    9  C   UNL     1      40.124 -12.008   1.264  1.00  0.00     0.320 C 
HETATM   10  N   UNL     1      41.078 -12.264   0.319  1.00  0.00    -0.342 N 
HETATM   11  O   UNL     1      39.549 -10.927   1.350  1.00  0.00    -0.247 OA
HETATM   12  H   UNL     1      41.165 -13.259   0.145  1.00  0.00     0.164 HD
HETATM   13  H   UNL     1      38.888 -12.866   2.545  1.00  0.00     0.170 HD
BRANCH  10  14
HETATM   14  C   UNL     1      41.308 -11.448  -0.860  1.00  0.00     0.130 C 
BRANCH  14  15
HETATM   15  C   UNL     1      42.519 -11.774  -1.750  1.00  0.00     0.031 C 
HETATM   16  C   UNL     1      42.597 -13.228  -2.191  1.00  0.00     0.241 C 
HETATM   17  N   UNL     1      41.875 -13.289  -3.535  1.00  0.00    -0.071 N 
HETATM   18  H   UNL     1      42.554 -13.675  -4.204  1.00  0.00     0.279 HD
HETATM   19  C   UNL     1      41.575 -11.867  -3.953  1.00  0.00     0.235 C 
HETATM   20  C   UNL     1      42.475 -11.021  -3.076  1.00  0.00     0.035 C 
BRANCH  17  21
HETATM   21  C   UNL     1      40.687 -14.216  -3.519  1.00  0.00     0.234 C 
BRANCH  21  22
HETATM   22  C   UNL     1      39.399 -13.428  -3.317  1.00  0.00     0.023 C 
HETATM   23  C   UNL     1      38.702 -13.849  -2.033  1.00  0.00     0.007 C 
ENDBRANCH  21  22
ENDBRANCH  17  21
ENDBRANCH  14  15
ENDBRANCH  10  14
ENDBRANCH   1   8
BRANCH   5  24
HETATM   24  N   UNL     1      42.217 -18.079   2.694  1.00  0.00    -0.321 N 
HETATM   25  C   UNL     1      43.221 -18.572   1.874  1.00  0.00     0.279 C 
HETATM   26  O   UNL     1      43.677 -18.004   0.887  1.00  0.00    -0.265 OA
HETATM   27  H   UNL     1      42.026 -18.669   3.496  1.00  0.00     0.169 HD
BRANCH  25  28
HETATM   28  C   UNL     1      43.736 -19.852   2.330  1.00  0.00     0.142 A 
HETATM   29  O   UNL     1      44.412 -19.921   3.524  1.00  0.00    -0.317 OA
HETATM   30  C   UNL     1      44.780 -21.218   3.697  1.00  0.00     0.143 A 
HETATM   31  C   UNL     1      44.367 -21.985   2.634  1.00  0.00     0.027 A 
HETATM   32  C   UNL     1      43.691 -21.106   1.754  1.00  0.00     0.045 A 
ENDBRANCH  25  28
ENDBRANCH   5  24
TORSDOF 7
ENDMDL
MODEL 9
REMARK VINA RESULT:      -7.4      3.859      8.408
REMARK  7 active torsions:
REMARK  status: ('A' for Active; 'I' for Inactive)
REMARK    1  A    between atoms: C_2  and  C_3 
REMARK    2  A    between atoms: C_3  and  N_4 
REMARK    3  A    between atoms: C_7  and  C_8 
REMARK    4  A    between atoms: C_8  and  N_9 
REMARK       I    between atoms: N_9  and  C_10 
REMARK       I    between atoms: C_10  and  N_11 
REMARK    5  A    between atoms: N_11  and  C_12 
REMARK    6  A    between atoms: C_16  and  N_17 
REMARK       I    between atoms: N_17  and  C_18 
REMARK    7  A    between atoms: C_18  and  C_19 
ROOT
HETATM    1  C   UNL     1      42.271 -14.122   4.259  1.00  0.00     0.036 A 
HETATM    2  C   UNL     1      41.584 -15.220   4.780  1.00  0.00     0.038 A 
HETATM    3  C   UNL     1      41.901 -16.536   4.380  1.00  0.00    -0.033 A 
HETATM    4  C   UNL     1      41.115 -17.675   4.975  1.00  0.00     0.050 C 
HETATM    5  C   UNL     1      42.948 -16.748   3.460  1.00  0.00     0.041 A 
HETATM    6  C   UNL     1      43.577 -15.636   2.893  1.00  0.00     0.032 A 
HETATM    7  C   UNL     1      43.228 -14.336   3.270  1.00  0.00     0.032 A 
ENDROOT
BRANCH   1   8
HETATM    8  N   UNL     1      42.034 -12.793   4.649  1.00  0.00    -0.309 N 
HETATM    9  C   UNL     1      41.253 -11.817   4.111  1.00  0.00     0.320 C 
HETATM   10  N   UNL     1      40.358 -12.194   3.150  1.00  0.00    -0.342 N 
HETATM   11  O   UNL     1      41.337 -10.663   4.523  1.00  0.00    -0.247 OA
HETATM   12  H   UNL     1      40.161 -13.188   3.201  1.00  0.00     0.164 HD
HETATM   13  H   UNL     1      42.438 -12.505   5.535  1.00  0.00     0.170 HD
BRANCH  10  14
HETATM   14  C   UNL     1      39.216 -11.399   2.731  1.00  0.00     0.130 C 
BRANCH  14  15
HETATM   15  C   UNL     1      38.826 -11.408   1.244  1.00  0.00     0.031 C 
HETATM   16  C   UNL     1      39.715 -12.279   0.368  1.00  0.00     0.241 C 
HETATM   17  N   UNL     1      39.036 -13.645   0.325  1.00  0.00    -0.071 N 
HETATM   18  H   UNL     1      38.877 -13.851  -0.671  1.00  0.00     0.279 HD
HETATM   19  C   UNL     1      37.682 -13.499   0.985  1.00  0.00     0.235 C 
HETATM   20  C   UNL     1      37.441 -12.005   1.018  1.00  0.00     0.035 C 
BRANCH  17  21
HETATM   21  C   UNL     1      39.902 -14.747   0.876  1.00  0.00     0.234 C 
BRANCH  21  22
HETATM   22  C   UNL     1      41.012 -15.095  -0.107  1.00  0.00     0.023 C 
HETATM   23  C   UNL     1      41.507 -16.515   0.115  1.00  0.00     0.007 C 
ENDBRANCH  21  22
ENDBRANCH  17  21
ENDBRANCH  14  15
ENDBRANCH  10  14
ENDBRANCH   1   8
BRANCH   5  24
HETATM   24  N   UNL     1      43.332 -18.070   3.152  1.00  0.00    -0.321 N 
HETATM   25  C   UNL     1      44.139 -18.923   3.889  1.00  0.00     0.279 C 
HETATM   26  O   UNL     1      44.701 -18.639   4.941  1.00  0.00    -0.265 OA
HETATM   27  H   UNL     1      42.907 -18.513   2.345  1.00  0.00     0.169 HD
BRANCH  25  28
HETATM   28  C   UNL     1      44.229 -20.250   3.303  1.00  0.00     0.142 A 
HETATM   29  O   UNL     1      44.655 -21.302   4.078  1.00  0.00    -0.317 OA
HETATM   30  C   UNL     1      44.649 -22.406   3.284  1.00  0.00     0.143 A 
HETATM   31  C   UNL     1      44.242 -22.085   2.011  1.00  0.00     0.027 A 
HETATM   32  C   UNL     1      43.969 -20.697   2.023  1.00  0.00     0.045 A 
ENDBRANCH  25  28
ENDBRANCH   5  24
TORSDOF 7
ENDMDL
MODEL 10
REMARK VINA RESULT:      -7.4      2.533      9.144
REMARK  7 active torsions:
REMARK  status: ('A' for Active; 'I' for Inactive)
REMARK    1  A    between atoms: C_2  and  C_3 
REMARK    2  A    between atoms: C_3  and  N_4 
REMARK    3  A    between atoms: C_7  and  C_8 
REMARK    4  A    between atoms: C_8  and  N_9 
REMARK       I    between atoms: N_9  and  C_10 
REMARK       I    between atoms: C_10  and  N_11 
REMARK    5  A    between atoms: N_11  and  C_12 
REMARK    6  A    between atoms: C_16  and  N_17 
REMARK       I    between atoms: N_17  and  C_18 
REMARK    7  A    between atoms: C_18  and  C_19 
ROOT
HETATM    1  C   UNL     1      41.909 -13.103   4.997  1.00  0.00     0.036 A 
HETATM    2  C   UNL     1      41.270 -14.187   5.602  1.00  0.00     0.038 A 
HETATM    3  C   UNL     1      41.655 -15.514   5.313  1.00  0.00    -0.033 A 
HETATM    4  C   UNL     1      40.918 -16.638   5.995  1.00  0.00     0.050 C 
HETATM    5  C   UNL     1      42.721 -15.750   4.421  1.00  0.00     0.041 A 
HETATM    6  C   UNL     1      43.302 -14.658   3.769  1.00  0.00     0.032 A 
HETATM    7  C   UNL     1      42.887 -13.350   4.037  1.00  0.00     0.032 A 
ENDROOT
BRANCH   1   8
HETATM    8  N   UNL     1      41.605 -11.760   5.276  1.00  0.00    -0.309 N 
HETATM    9  C   UNL     1      41.581 -11.061   6.444  1.00  0.00     0.320 C 
HETATM   10  N   UNL     1      42.146 -11.655   7.537  1.00  0.00    -0.342 N 
HETATM   11  O   UNL     1      41.109  -9.928   6.474  1.00  0.00    -0.247 OA
HETATM   12  H   UNL     1      42.796 -12.384   7.265  1.00  0.00     0.164 HD
HETATM   13  H   UNL     1      41.452 -11.157   4.474  1.00  0.00     0.170 HD
BRANCH  10  14
HETATM   14  C   UNL     1      42.542 -10.949   8.745  1.00  0.00     0.130 C 
BRANCH  14  15
HETATM   15  C   UNL     1      44.029 -10.949   9.137  1.00  0.00     0.031 C 
HETATM   16  C   UNL     1      44.330 -10.233  10.446  1.00  0.00     0.241 C 
HETATM   17  N   UNL     1      44.274 -11.311  11.526  1.00  0.00    -0.071 N 
HETATM   18  H   UNL     1      45.189 -11.287  11.997  1.00  0.00     0.279 HD
HETATM   19  C   UNL     1      44.153 -12.647  10.826  1.00  0.00     0.235 C 
HETATM   20  C   UNL     1      44.554 -12.358   9.394  1.00  0.00     0.035 C 
BRANCH  17  21
HETATM   21  C   UNL     1      43.225 -11.038  12.571  1.00  0.00     0.234 C 
BRANCH  21  22
HETATM   22  C   UNL     1      43.098  -9.541  12.820  1.00  0.00     0.023 C 
HETATM   23  C   UNL     1      43.059  -9.241  14.311  1.00  0.00     0.007 C 
ENDBRANCH  21  22
ENDBRANCH  17  21
ENDBRANCH  14  15
ENDBRANCH  10  14
ENDBRANCH   1   8
BRANCH   5  24
HETATM   24  N   UNL     1      43.172 -17.071   4.225  1.00  0.00    -0.321 N 
HETATM   25  C   UNL     1      42.871 -17.934   3.182  1.00  0.00     0.279 C 
HETATM   26  O   UNL     1      42.104 -17.692   2.257  1.00  0.00    -0.265 OA
HETATM   27  H   UNL     1      43.879 -17.432   4.856  1.00  0.00     0.169 HD
BRANCH  25  28
HETATM   28  C   UNL     1      43.605 -19.185   3.264  1.00  0.00     0.142 A 
HETATM   29  O   UNL     1      43.564 -20.063   2.208  1.00  0.00    -0.317 OA
HETATM   30  C   UNL     1      44.324 -21.136   2.553  1.00  0.00     0.143 A 
HETATM   31  C   UNL     1      44.843 -20.975   3.816  1.00  0.00     0.027 A 
HETATM   32  C   UNL     1      44.383 -19.717   4.274  1.00  0.00     0.045 A 
ENDBRANCH  25  28
ENDBRANCH   5  24
TORSDOF 7
ENDMDL
