MODEL 1
REMARK VINA RESULT:      -8.5      0.000      0.000
REMARK  7 active torsions:
REMARK  status: ('A' for Active; 'I' for Inactive)
REMARK    1  A    between atoms: C_3  and  C_4 
REMARK    2  A    between atoms: N_5  and  C_7 
REMARK    3  A    between atoms: N_10  and  C_11 
REMARK    4  A    between atoms: C_14  and  C_15 
REMARK       I    between atoms: C_15  and  N_16 
REMARK    5  A    between atoms: N_16  and  C_17 
REMARK    6  A    between atoms: C_17  and  C_18 
REMARK    7  A    between atoms: C_18  and  N_19 
ROOT
HETATM    1  C   UNL     1      40.280 -14.091  -0.421  1.00  0.00     0.191 C 
HETATM    2  C   UNL     1      41.345 -15.061   0.092  1.00  0.00     0.048 C 
HETATM    3  C   UNL     1      42.080 -14.586   1.324  1.00  0.00     0.098 C 
HETATM    4  N   UNL     1      41.101 -14.205   2.350  1.00  0.00    -0.283 NA
HETATM    5  C   UNL     1      40.242 -13.085   1.978  1.00  0.00     0.098 C 
HETATM    6  C   UNL     1      39.454 -13.439   0.708  1.00  0.00     0.048 C 
ENDROOT
BRANCH   4   7
HETATM    7  C   UNL     1      41.719 -14.188   3.617  1.00  0.00     0.010 A 
HETATM    8  C   UNL     1      41.283 -13.402   4.693  1.00  0.00     0.024 A 
HETATM    9  C   UNL     1      42.070 -13.262   5.849  1.00  0.00     0.019 A 
HETATM   10  C   UNL     1      43.298 -13.925   5.936  1.00  0.00     0.032 A 
HETATM   11  C   UNL     1      43.704 -14.780   4.914  1.00  0.00     0.019 A 
HETATM   12  C   UNL     1      42.909 -14.920   3.778  1.00  0.00     0.024 A 
BRANCH  10  13
HETATM   13  C   UNL     1      44.274 -13.609   7.000  1.00  0.00     0.251 C 
HETATM   14  N   UNL     1      43.838 -12.874   8.073  1.00  0.00    -0.355 N 
HETATM   15  H   UNL     1      42.859 -12.597   8.083  1.00  0.00     0.162 HD
HETATM   16  O   UNL     1      45.433 -13.997   6.883  1.00  0.00    -0.268 OA
BRANCH  14  17
HETATM   17  C   UNL     1      44.711 -12.226   9.054  1.00  0.00     0.150 C 
BRANCH  17  18
HETATM   18  C   UNL     1      44.333 -12.342  10.552  1.00  0.00     0.254 C 
BRANCH  18  19
HETATM   19  N   UNL     1      43.007 -11.708  10.893  1.00  0.00    -0.066 N 
HETATM   20  H   UNL     1      42.289 -12.345  10.487  1.00  0.00     0.280 HD
HETATM   21  C   UNL     1      42.684 -11.604  12.371  1.00  0.00     0.261 C 
HETATM   22  C   UNL     1      41.264 -11.050  12.547  1.00  0.00     0.195 C 
HETATM   23  O   UNL     1      41.128  -9.777  11.906  1.00  0.00    -0.388 OA
HETATM   24  C   UNL     1      41.367  -9.871  10.497  1.00  0.00     0.195 C 
HETATM   25  C   UNL     1      42.790 -10.367  10.212  1.00  0.00     0.261 C 
ENDBRANCH  18  19
ENDBRANCH  17  18
ENDBRANCH  14  17
ENDBRANCH  10  13
ENDBRANCH   4   7
BRANCH   1  26
HETATM   26  N   UNL     1      40.787 -13.051  -1.466  1.00  0.00    -0.056 N 
HETATM   27  C   UNL     1      40.942 -13.629  -2.898  1.00  0.00     0.257 C 
HETATM   28  C   UNL     1      41.262 -12.504  -3.890  1.00  0.00     0.041 C 
HETATM   29  C   UNL     1      42.496 -11.720  -3.469  1.00  0.00     0.004 C 
HETATM   30  C   UNL     1      42.305 -11.161  -2.070  1.00  0.00     0.028 C 
HETATM   31  C   UNL     1      42.008 -12.260  -1.062  1.00  0.00     0.236 C 
HETATM   32  H   UNL     1      40.017 -12.376  -1.539  1.00  0.00     0.281 HD
BRANCH  27  33
HETATM   33  C   UNL     1      39.818 -14.528  -3.353  1.00  0.00     0.136 A 
HETATM   34  N   UNL     1      38.467 -14.256  -3.400  1.00  0.00    -0.346 N 
HETATM   35  C   UNL     1      37.765 -13.059  -3.008  1.00  0.00     0.157 C 
HETATM   36  C   UNL     1      37.838 -15.366  -3.897  1.00  0.00     0.111 A 
HETATM   37  C   UNL     1      38.827 -16.289  -4.115  1.00  0.00     0.136 A 
HETATM   38  N   UNL     1      40.037 -15.771  -3.751  1.00  0.00    -0.244 NA
ENDBRANCH  27  33
ENDBRANCH   1  26
TORSDOF 7
ENDMDL
MODEL 2
REMARK VINA RESULT:      -8.5      5.772     10.092
REMARK  7 active torsions:
REMARK  status: ('A' for Active; 'I' for Inactive)
REMARK    1  A    between atoms: C_3  and  C_4 
REMARK    2  A    between atoms: N_5  and  C_7 
REMARK    3  A    between atoms: N_10  and  C_11 
REMARK    4  A    between atoms: C_14  and  C_15 
REMARK       I    between atoms: C_15  and  N_16 
REMARK    5  A    between atoms: N_16  and  C_17 
REMARK    6  A    between atoms: C_17  and  C_18 
REMARK    7  A    between atoms: C_18  and  N_19 
ROOT
HETATM    1  C   UNL     1      43.471 -17.721   3.272  1.00  0.00     0.191 C 
HETATM    2  C   UNL     1      43.654 -16.979   1.947  1.00  0.00     0.048 C 
HETATM    3  C   UNL     1      42.368 -16.719   1.197  1.00  0.00     0.098 C 
HETATM    4  N   UNL     1      41.409 -16.067   2.097  1.00  0.00    -0.283 NA
HETATM    5  C   UNL     1      41.010 -16.879   3.243  1.00  0.00     0.098 C 
HETATM    6  C   UNL     1      42.248 -17.236   4.078  1.00  0.00     0.048 C 
ENDROOT
BRANCH   4   7
HETATM    7  C   UNL     1      40.406 -15.425   1.344  1.00  0.00     0.010 A 
HETATM    8  C   UNL     1      40.625 -14.821   0.097  1.00  0.00     0.024 A 
HETATM    9  C   UNL     1      39.643 -14.008  -0.492  1.00  0.00     0.019 A 
HETATM   10  C   UNL     1      38.423 -13.808   0.163  1.00  0.00     0.032 A 
HETATM   11  C   UNL     1      38.156 -14.471   1.358  1.00  0.00     0.019 A 
HETATM   12  C   UNL     1      39.134 -15.285   1.927  1.00  0.00     0.024 A 
BRANCH  10  13
HETATM   13  C   UNL     1      37.470 -12.768  -0.278  1.00  0.00     0.251 C 
HETATM   14  N   UNL     1      36.666 -12.190   0.671  1.00  0.00    -0.355 N 
HETATM   15  H   UNL     1      36.781 -12.502   1.632  1.00  0.00     0.162 HD
HETATM   16  O   UNL     1      37.420 -12.469  -1.468  1.00  0.00    -0.268 OA
BRANCH  14  17
HETATM   17  C   UNL     1      35.483 -11.377   0.383  1.00  0.00     0.150 C 
BRANCH  17  18
HETATM   18  C   UNL     1      35.209 -10.147   1.286  1.00  0.00     0.254 C 
BRANCH  18  19
HETATM   19  N   UNL     1      34.088 -10.359   2.274  1.00  0.00    -0.066 N 
HETATM   20  H   UNL     1      34.382 -11.180   2.845  1.00  0.00     0.280 HD
HETATM   21  C   UNL     1      33.852  -9.229   3.257  1.00  0.00     0.261 C 
HETATM   22  C   UNL     1      32.767  -9.644   4.261  1.00  0.00     0.195 C 
HETATM   23  O   UNL     1      31.554  -9.994   3.588  1.00  0.00    -0.388 OA
HETATM   24  C   UNL     1      31.747 -11.103   2.701  1.00  0.00     0.195 C 
HETATM   25  C   UNL     1      32.780 -10.769   1.619  1.00  0.00     0.261 C 
ENDBRANCH  18  19
ENDBRANCH  17  18
ENDBRANCH  14  17
ENDBRANCH  10  13
ENDBRANCH   4   7
BRANCH   1  26
HETATM   26  N   UNL     1      43.543 -19.275   3.172  1.00  0.00    -0.056 N 
HETATM   27  C   UNL     1      44.601 -19.914   4.111  1.00  0.00     0.257 C 
HETATM   28  C   UNL     1      44.475 -21.442   4.085  1.00  0.00     0.041 C 
HETATM   29  C   UNL     1      44.584 -21.989   2.669  1.00  0.00     0.004 C 
HETATM   30  C   UNL     1      43.529 -21.351   1.783  1.00  0.00     0.028 C 
HETATM   31  C   UNL     1      43.645 -19.834   1.773  1.00  0.00     0.236 C 
HETATM   32  H   UNL     1      42.640 -19.590   3.544  1.00  0.00     0.281 HD
BRANCH  27  33
HETATM   33  C   UNL     1      44.653 -19.339   5.505  1.00  0.00     0.136 A 
HETATM   34  N   UNL     1      44.159 -19.879   6.675  1.00  0.00    -0.346 N 
HETATM   35  C   UNL     1      43.443 -21.116   6.876  1.00  0.00     0.157 C 
HETATM   36  C   UNL     1      44.453 -19.010   7.690  1.00  0.00     0.111 A 
HETATM   37  C   UNL     1      45.099 -17.954   7.101  1.00  0.00     0.136 A 
HETATM   38  N   UNL     1      45.191 -18.156   5.754  1.00  0.00    -0.244 NA
ENDBRANCH  27  33
ENDBRANCH   1  26
TORSDOF 7
ENDMDL
MODEL 3
REMARK VINA RESULT:      -8.2      5.541      9.922
REMARK  7 active torsions:
REMARK  status: ('A' for Active; 'I' for Inactive)
REMARK    1  A    between atoms: C_3  and  C_4 
REMARK    2  A    between atoms: N_5  and  C_7 
REMARK    3  A    between atoms: N_10  and  C_11 
REMARK    4  A    between atoms: C_14  and  C_15 
REMARK       I    between atoms: C_15  and  N_16 
REMARK    5  A    between atoms: N_16  and  C_17 
REMARK    6  A    between atoms: C_17  and  C_18 
REMARK    7  A    between atoms: C_18  and  N_19 
ROOT
HETATM    1  C   UNL     1      42.948 -17.432   3.296  1.00  0.00     0.191 C 
HETATM    2  C   UNL     1      41.433 -17.604   3.406  1.00  0.00     0.048 C 
HETATM    3  C   UNL     1      40.634 -16.410   2.938  1.00  0.00     0.098 C 
HETATM    4  N   UNL     1      41.077 -16.033   1.590  1.00  0.00    -0.283 NA
HETATM    5  C   UNL     1      42.470 -15.600   1.512  1.00  0.00     0.098 C 
HETATM    6  C   UNL     1      43.389 -16.732   1.993  1.00  0.00     0.048 C 
ENDROOT
BRANCH   4   7
HETATM    7  C   UNL     1      40.090 -15.245   0.965  1.00  0.00     0.010 A 
HETATM    8  C   UNL     1      40.302 -14.505  -0.207  1.00  0.00     0.024 A 
HETATM    9  C   UNL     1      39.352 -13.570  -0.650  1.00  0.00     0.019 A 
HETATM   10  C   UNL     1      38.172 -13.382   0.077  1.00  0.00     0.032 A 
HETATM   11  C   UNL     1      37.907 -14.171   1.193  1.00  0.00     0.019 A 
HETATM   12  C   UNL     1      38.852 -15.105   1.615  1.00  0.00     0.024 A 
BRANCH  10  13
HETATM   13  C   UNL     1      37.271 -12.241  -0.192  1.00  0.00     0.251 C 
HETATM   14  N   UNL     1      36.253 -12.004   0.696  1.00  0.00    -0.355 N 
HETATM   15  H   UNL     1      36.183 -12.621   1.501  1.00  0.00     0.162 HD
HETATM   16  O   UNL     1      37.453 -11.561  -1.198  1.00  0.00    -0.268 OA
BRANCH  14  17
HETATM   17  C   UNL     1      35.110 -11.125   0.443  1.00  0.00     0.150 C 
BRANCH  17  18
HETATM   18  C   UNL     1      34.813 -10.004   1.472  1.00  0.00     0.254 C 
BRANCH  18  19
HETATM   19  N   UNL     1      33.702 -10.344   2.434  1.00  0.00    -0.066 N 
HETATM   20  H   UNL     1      34.050 -11.167   2.970  1.00  0.00     0.280 HD
HETATM   21  C   UNL     1      33.373  -9.282   3.466  1.00  0.00     0.261 C 
HETATM   22  C   UNL     1      32.312  -9.821   4.434  1.00  0.00     0.195 C 
HETATM   23  O   UNL     1      31.134 -10.228   3.730  1.00  0.00    -0.388 OA
HETATM   24  C   UNL     1      31.417 -11.276   2.795  1.00  0.00     0.195 C 
HETATM   25  C   UNL     1      32.434 -10.817   1.743  1.00  0.00     0.261 C 
ENDBRANCH  18  19
ENDBRANCH  17  18
ENDBRANCH  14  17
ENDBRANCH  10  13
ENDBRANCH   4   7
BRANCH   1  26
HETATM   26  N   UNL     1      43.636 -16.830   4.559  1.00  0.00    -0.056 N 
HETATM   27  C   UNL     1      43.783 -17.838   5.731  1.00  0.00     0.257 C 
HETATM   28  C   UNL     1      44.628 -17.223   6.853  1.00  0.00     0.041 C 
HETATM   29  C   UNL     1      44.050 -15.898   7.328  1.00  0.00     0.004 C 
HETATM   30  C   UNL     1      43.931 -14.934   6.160  1.00  0.00     0.028 C 
HETATM   31  C   UNL     1      43.078 -15.512   5.040  1.00  0.00     0.236 C 
HETATM   32  H   UNL     1      44.597 -16.643   4.254  1.00  0.00     0.281 HD
BRANCH  27  33
HETATM   33  C   UNL     1      44.229 -19.224   5.334  1.00  0.00     0.136 A 
HETATM   34  N   UNL     1      44.119 -20.398   6.049  1.00  0.00    -0.346 N 
HETATM   35  C   UNL     1      43.577 -20.613   7.369  1.00  0.00     0.157 C 
HETATM   36  C   UNL     1      44.646 -21.402   5.282  1.00  0.00     0.111 A 
HETATM   37  C   UNL     1      45.081 -20.801   4.130  1.00  0.00     0.136 A 
HETATM   38  N   UNL     1      44.843 -19.457   4.186  1.00  0.00    -0.244 NA
ENDBRANCH  27  33
ENDBRANCH   1  26
TORSDOF 7
ENDMDL
MODEL 4
REMARK VINA RESULT:      -8.1      5.525     11.783
REMARK  7 active torsions:
REMARK  status: ('A' for Active; 'I' for Inactive)
REMARK    1  A    between atoms: C_3  and  C_4 
REMARK    2  A    between atoms: N_5  and  C_7 
REMARK    3  A    between atoms: N_10  and  C_11 
REMARK    4  A    between atoms: C_14  and  C_15 
REMARK       I    between atoms: C_15  and  N_16 
REMARK    5  A    between atoms: N_16  and  C_17 
REMARK    6  A    between atoms: C_17  and  C_18 
REMARK    7  A    between atoms: C_18  and  N_19 
ROOT
HETATM    1  C   UNL     1      42.816 -17.574   3.704  1.00  0.00     0.191 C 
HETATM    2  C   UNL     1      43.501 -16.548   2.800  1.00  0.00     0.048 C 
HETATM    3  C   UNL     1      42.755 -16.248   1.520  1.00  0.00     0.098 C 
HETATM    4  N   UNL     1      41.366 -15.899   1.844  1.00  0.00    -0.283 NA
HETATM    5  C   UNL     1      40.605 -16.974   2.473  1.00  0.00     0.098 C 
HETATM    6  C   UNL     1      41.286 -17.390   3.784  1.00  0.00     0.048 C 
ENDROOT
BRANCH   4   7
HETATM    7  C   UNL     1      40.785 -15.202   0.766  1.00  0.00     0.010 A 
HETATM    8  C   UNL     1      39.615 -14.434   0.866  1.00  0.00     0.024 A 
HETATM    9  C   UNL     1      38.968 -13.954  -0.285  1.00  0.00     0.019 A 
HETATM   10  C   UNL     1      39.502 -14.231  -1.548  1.00  0.00     0.032 A 
HETATM   11  C   UNL     1      40.709 -14.916  -1.660  1.00  0.00     0.019 A 
HETATM   12  C   UNL     1      41.348 -15.377  -0.510  1.00  0.00     0.024 A 
BRANCH  10  13
HETATM   13  C   UNL     1      38.733 -13.979  -2.784  1.00  0.00     0.251 C 
HETATM   14  N   UNL     1      37.651 -14.783  -3.043  1.00  0.00    -0.355 N 
HETATM   15  H   UNL     1      37.431 -15.502  -2.358  1.00  0.00     0.162 HD
HETATM   16  O   UNL     1      39.092 -13.080  -3.539  1.00  0.00    -0.268 OA
BRANCH  14  17
HETATM   17  C   UNL     1      36.966 -14.875  -4.333  1.00  0.00     0.150 C 
BRANCH  17  18
HETATM   18  C   UNL     1      35.827 -13.865  -4.624  1.00  0.00     0.254 C 
BRANCH  18  19
HETATM   19  N   UNL     1      36.315 -12.530  -5.129  1.00  0.00    -0.066 N 
HETATM   20  H   UNL     1      37.338 -12.658  -5.288  1.00  0.00     0.280 HD
HETATM   21  C   UNL     1      35.740 -12.075  -6.457  1.00  0.00     0.261 C 
HETATM   22  C   UNL     1      36.418 -10.768  -6.887  1.00  0.00     0.195 C 
HETATM   23  O   UNL     1      36.258  -9.754  -5.889  1.00  0.00    -0.388 OA
HETATM   24  C   UNL     1      36.853 -10.143  -4.645  1.00  0.00     0.195 C 
HETATM   25  C   UNL     1      36.202 -11.420  -4.098  1.00  0.00     0.261 C 
ENDBRANCH  18  19
ENDBRANCH  17  18
ENDBRANCH  14  17
ENDBRANCH  10  13
ENDBRANCH   4   7
BRANCH   1  26
HETATM   26  N   UNL     1      43.228 -19.055   3.447  1.00  0.00    -0.056 N 
HETATM   27  C   UNL     1      44.455 -19.517   4.277  1.00  0.00     0.257 C 
HETATM   28  C   UNL     1      44.673 -21.025   4.104  1.00  0.00     0.041 C 
HETATM   29  C   UNL     1      44.818 -21.405   2.637  1.00  0.00     0.004 C 
HETATM   30  C   UNL     1      43.597 -20.949   1.858  1.00  0.00     0.028 C 
HETATM   31  C   UNL     1      43.370 -19.451   1.996  1.00  0.00     0.236 C 
HETATM   32  H   UNL     1      42.441 -19.600   3.818  1.00  0.00     0.281 HD
BRANCH  27  33
HETATM   33  C   UNL     1      44.459 -19.072   5.719  1.00  0.00     0.136 A 
HETATM   34  N   UNL     1      44.050 -19.772   6.834  1.00  0.00    -0.346 N 
HETATM   35  C   UNL     1      43.489 -21.099   6.922  1.00  0.00     0.157 C 
HETATM   36  C   UNL     1      44.254 -18.971   7.926  1.00  0.00     0.111 A 
HETATM   37  C   UNL     1      44.761 -17.797   7.436  1.00  0.00     0.136 A 
HETATM   38  N   UNL     1      44.857 -17.861   6.075  1.00  0.00    -0.244 NA
ENDBRANCH  27  33
ENDBRANCH   1  26
TORSDOF 7
ENDMDL
MODEL 5
REMARK VINA RESULT:      -8.0      5.175     10.369
REMARK  7 active torsions:
REMARK  status: ('A' for Active; 'I' for Inactive)
REMARK    1  A    between atoms: C_3  and  C_4 
REMARK    2  A    between atoms: N_5  and  C_7 
REMARK    3  A    between atoms: N_10  and  C_11 
REMARK    4  A    between atoms: C_14  and  C_15 
REMARK       I    between atoms: C_15  and  N_16 
REMARK    5  A    between atoms: N_16  and  C_17 
REMARK    6  A    between atoms: C_17  and  C_18 
REMARK    7  A    between atoms: C_18  and  N_19 
ROOT
HETATM    1  C   UNL     1      42.888 -17.776   3.512  1.00  0.00     0.191 C 
HETATM    2  C   UNL     1      43.742 -16.819   2.678  1.00  0.00     0.048 C 
HETATM    3  C   UNL     1      43.178 -16.512   1.311  1.00  0.00     0.098 C 
HETATM    4  N   UNL     1      41.785 -16.069   1.453  1.00  0.00    -0.283 NA
HETATM    5  C   UNL     1      40.886 -17.079   2.005  1.00  0.00     0.098 C 
HETATM    6  C   UNL     1      41.374 -17.498   3.399  1.00  0.00     0.048 C 
ENDROOT
BRANCH   4   7
HETATM    7  C   UNL     1      41.385 -15.370   0.297  1.00  0.00     0.010 A 
HETATM    8  C   UNL     1      41.097 -15.981  -0.932  1.00  0.00     0.024 A 
HETATM    9  C   UNL     1      40.925 -15.214  -2.096  1.00  0.00     0.019 A 
HETATM   10  C   UNL     1      41.027 -13.821  -2.030  1.00  0.00     0.032 A 
HETATM   11  C   UNL     1      41.224 -13.193  -0.803  1.00  0.00     0.019 A 
HETATM   12  C   UNL     1      41.382 -13.964   0.347  1.00  0.00     0.024 A 
BRANCH  10  13
HETATM   13  C   UNL     1      41.115 -12.993  -3.251  1.00  0.00     0.251 C 
HETATM   14  N   UNL     1      42.324 -12.419  -3.552  1.00  0.00    -0.355 N 
HETATM   15  H   UNL     1      43.100 -12.607  -2.921  1.00  0.00     0.162 HD
HETATM   16  O   UNL     1      40.111 -12.836  -3.941  1.00  0.00    -0.268 OA
BRANCH  14  17
HETATM   17  C   UNL     1      42.522 -11.351  -4.534  1.00  0.00     0.150 C 
BRANCH  17  18
HETATM   18  C   UNL     1      42.519  -9.887  -4.024  1.00  0.00     0.254 C 
BRANCH  18  19
HETATM   19  N   UNL     1      42.406  -9.768  -2.524  1.00  0.00    -0.066 N 
HETATM   20  H   UNL     1      42.551 -10.735  -2.164  1.00  0.00     0.280 HD
HETATM   21  C   UNL     1      43.457  -8.908  -1.849  1.00  0.00     0.261 C 
HETATM   22  C   UNL     1      43.276  -8.983  -0.327  1.00  0.00     0.195 C 
HETATM   23  O   UNL     1      41.960  -8.570   0.055  1.00  0.00    -0.388 OA
HETATM   24  C   UNL     1      40.957  -9.413  -0.525  1.00  0.00     0.195 C 
HETATM   25  C   UNL     1      41.017  -9.366  -2.057  1.00  0.00     0.261 C 
ENDBRANCH  18  19
ENDBRANCH  17  18
ENDBRANCH  14  17
ENDBRANCH  10  13
ENDBRANCH   4   7
BRANCH   1  26
HETATM   26  N   UNL     1      43.232 -19.286   3.338  1.00  0.00    -0.056 N 
HETATM   27  C   UNL     1      44.461 -19.746   4.166  1.00  0.00     0.257 C 
HETATM   28  C   UNL     1      44.614 -21.270   4.083  1.00  0.00     0.041 C 
HETATM   29  C   UNL     1      44.705 -21.746   2.640  1.00  0.00     0.004 C 
HETATM   30  C   UNL     1      43.482 -21.288   1.864  1.00  0.00     0.028 C 
HETATM   31  C   UNL     1      43.320 -19.776   1.913  1.00  0.00     0.236 C 
HETATM   32  H   UNL     1      42.435 -19.773   3.762  1.00  0.00     0.281 HD
BRANCH  27  33
HETATM   33  C   UNL     1      44.522 -19.214   5.577  1.00  0.00     0.136 A 
HETATM   34  N   UNL     1      44.093 -19.817   6.741  1.00  0.00    -0.346 N 
HETATM   35  C   UNL     1      43.454 -21.098   6.921  1.00  0.00     0.157 C 
HETATM   36  C   UNL     1      44.368 -18.964   7.776  1.00  0.00     0.111 A 
HETATM   37  C   UNL     1      44.936 -17.856   7.205  1.00  0.00     0.136 A 
HETATM   38  N   UNL     1      45.000 -18.010   5.849  1.00  0.00    -0.244 NA
ENDBRANCH  27  33
ENDBRANCH   1  26
TORSDOF 7
ENDMDL
MODEL 6
REMARK VINA RESULT:      -8.0      5.702     11.834
REMARK  7 active torsions:
REMARK  status: ('A' for Active; 'I' for Inactive)
REMARK    1  A    between atoms: C_3  and  C_4 
REMARK    2  A    between atoms: N_5  and  C_7 
REMARK    3  A    between atoms: N_10  and  C_11 
REMARK    4  A    between atoms: C_14  and  C_15 
REMARK       I    between atoms: C_15  and  N_16 
REMARK    5  A    between atoms: N_16  and  C_17 
REMARK    6  A    between atoms: C_17  and  C_18 
REMARK    7  A    between atoms: C_18  and  N_19 
ROOT
HETATM    1  C   UNL     1      43.025 -17.835   3.921  1.00  0.00     0.191 C 
HETATM    2  C   UNL     1      43.597 -16.752   3.004  1.00  0.00     0.048 C 
HETATM    3  C   UNL     1      42.678 -16.339   1.879  1.00  0.00     0.098 C 
HETATM    4  N   UNL     1      41.363 -15.992   2.434  1.00  0.00    -0.283 NA
HETATM    5  C   UNL     1      40.673 -17.101   3.088  1.00  0.00     0.098 C 
HETATM    6  C   UNL     1      41.530 -17.632   4.245  1.00  0.00     0.048 C 
ENDROOT
BRANCH   4   7
HETATM    7  C   UNL     1      40.648 -15.202   1.512  1.00  0.00     0.010 A 
HETATM    8  C   UNL     1      39.371 -14.675   1.754  1.00  0.00     0.024 A 
HETATM    9  C   UNL     1      38.625 -14.090   0.717  1.00  0.00     0.019 A 
HETATM   10  C   UNL     1      39.166 -14.018  -0.571  1.00  0.00     0.032 A 
HETATM   11  C   UNL     1      40.466 -14.456  -0.808  1.00  0.00     0.019 A 
HETATM   12  C   UNL     1      41.201 -15.023   0.232  1.00  0.00     0.024 A 
BRANCH  10  13
HETATM   13  C   UNL     1      38.335 -13.658  -1.739  1.00  0.00     0.251 C 
HETATM   14  N   UNL     1      37.924 -12.354  -1.858  1.00  0.00    -0.355 N 
HETATM   15  H   UNL     1      38.227 -11.703  -1.138  1.00  0.00     0.162 HD
HETATM   16  O   UNL     1      38.030 -14.531  -2.548  1.00  0.00    -0.268 OA
BRANCH  14  17
HETATM   17  C   UNL     1      36.874 -11.887  -2.765  1.00  0.00     0.150 C 
BRANCH  17  18
HETATM   18  C   UNL     1      37.296 -11.397  -4.173  1.00  0.00     0.254 C 
BRANCH  18  19
HETATM   19  N   UNL     1      36.453 -11.962  -5.289  1.00  0.00    -0.066 N 
HETATM   20  H   UNL     1      37.075 -11.960  -6.126  1.00  0.00     0.280 HD
HETATM   21  C   UNL     1      35.998 -13.398  -5.112  1.00  0.00     0.261 C 
HETATM   22  C   UNL     1      35.258 -13.859  -6.374  1.00  0.00     0.195 C 
HETATM   23  O   UNL     1      34.145 -13.004  -6.657  1.00  0.00    -0.388 OA
HETATM   24  C   UNL     1      34.566 -11.655  -6.890  1.00  0.00     0.195 C 
HETATM   25  C   UNL     1      35.274 -11.078  -5.659  1.00  0.00     0.261 C 
ENDBRANCH  18  19
ENDBRANCH  17  18
ENDBRANCH  14  17
ENDBRANCH  10  13
ENDBRANCH   4   7
BRANCH   1  26
HETATM   26  N   UNL     1      43.350 -19.299   3.493  1.00  0.00    -0.056 N 
HETATM   27  C   UNL     1      44.418 -19.988   4.384  1.00  0.00     0.257 C 
HETATM   28  C   UNL     1      44.539 -21.471   4.011  1.00  0.00     0.041 C 
HETATM   29  C   UNL     1      44.844 -21.654   2.532  1.00  0.00     0.004 C 
HETATM   30  C   UNL     1      43.775 -20.977   1.692  1.00  0.00     0.028 C 
HETATM   31  C   UNL     1      43.650 -19.498   2.027  1.00  0.00     0.236 C 
HETATM   32  H   UNL     1      42.482 -19.811   3.683  1.00  0.00     0.281 HD
BRANCH  27  33
HETATM   33  C   UNL     1      44.267 -19.752   5.867  1.00  0.00     0.136 A 
HETATM   34  N   UNL     1      44.734 -18.694   6.619  1.00  0.00    -0.346 N 
HETATM   35  C   UNL     1      45.508 -17.550   6.200  1.00  0.00     0.157 C 
HETATM   36  C   UNL     1      44.344 -18.902   7.914  1.00  0.00     0.111 A 
HETATM   37  C   UNL     1      43.669 -20.094   7.913  1.00  0.00     0.136 A 
HETATM   38  N   UNL     1      43.652 -20.620   6.653  1.00  0.00    -0.244 NA
ENDBRANCH  27  33
ENDBRANCH   1  26
TORSDOF 7
ENDMDL
MODEL 7
REMARK VINA RESULT:      -7.7      5.210     11.607
REMARK  7 active torsions:
REMARK  status: ('A' for Active; 'I' for Inactive)
REMARK    1  A    between atoms: C_3  and  C_4 
REMARK    2  A    between atoms: N_5  and  C_7 
REMARK    3  A    between atoms: N_10  and  C_11 
REMARK    4  A    between atoms: C_14  and  C_15 
REMARK       I    between atoms: C_15  and  N_16 
REMARK    5  A    between atoms: N_16  and  C_17 
REMARK    6  A    between atoms: C_17  and  C_18 
REMARK    7  A    between atoms: C_18  and  N_19 
ROOT
HETATM    1  C   UNL     1      42.766 -17.904   3.536  1.00  0.00     0.191 C 
HETATM    2  C   UNL     1      41.297 -17.495   3.417  1.00  0.00     0.048 C 
HETATM    3  C   UNL     1      41.062 -16.253   2.590  1.00  0.00     0.098 C 
HETATM    4  N   UNL     1      41.727 -16.406   1.290  1.00  0.00    -0.283 NA
HETATM    5  C   UNL     1      43.180 -16.529   1.367  1.00  0.00     0.098 C 
HETATM    6  C   UNL     1      43.550 -17.754   2.215  1.00  0.00     0.048 C 
ENDROOT
BRANCH   4   7
HETATM    7  C   UNL     1      41.175 -15.502   0.361  1.00  0.00     0.010 A 
HETATM    8  C   UNL     1      40.378 -14.403   0.712  1.00  0.00     0.024 A 
HETATM    9  C   UNL     1      39.678 -13.678  -0.267  1.00  0.00     0.019 A 
HETATM   10  C   UNL     1      39.787 -14.046  -1.612  1.00  0.00     0.032 A 
HETATM   11  C   UNL     1      40.643 -15.079  -1.986  1.00  0.00     0.019 A 
HETATM   12  C   UNL     1      41.341 -15.782  -1.007  1.00  0.00     0.024 A 
BRANCH  10  13
HETATM   13  C   UNL     1      38.880 -13.493  -2.640  1.00  0.00     0.251 C 
HETATM   14  N   UNL     1      39.067 -12.190  -3.028  1.00  0.00    -0.355 N 
HETATM   15  H   UNL     1      39.832 -11.680  -2.594  1.00  0.00     0.162 HD
HETATM   16  O   UNL     1      37.989 -14.205  -3.097  1.00  0.00    -0.268 OA
BRANCH  14  17
HETATM   17  C   UNL     1      38.104 -11.399  -3.796  1.00  0.00     0.150 C 
BRANCH  17  18
HETATM   18  C   UNL     1      36.690 -11.195  -3.196  1.00  0.00     0.254 C 
BRANCH  18  19
HETATM   19  N   UNL     1      35.616 -11.997  -3.889  1.00  0.00    -0.066 N 
HETATM   20  H   UNL     1      35.597 -12.912  -3.389  1.00  0.00     0.280 HD
HETATM   21  C   UNL     1      34.209 -11.439  -3.792  1.00  0.00     0.261 C 
HETATM   22  C   UNL     1      33.224 -12.421  -4.440  1.00  0.00     0.195 C 
HETATM   23  O   UNL     1      33.577 -12.677  -5.803  1.00  0.00    -0.388 OA
HETATM   24  C   UNL     1      34.880 -13.264  -5.906  1.00  0.00     0.195 C 
HETATM   25  C   UNL     1      35.952 -12.330  -5.332  1.00  0.00     0.261 C 
ENDBRANCH  18  19
ENDBRANCH  17  18
ENDBRANCH  14  17
ENDBRANCH  10  13
ENDBRANCH   4   7
BRANCH   1  26
HETATM   26  N   UNL     1      43.523 -17.291   4.753  1.00  0.00    -0.056 N 
HETATM   27  C   UNL     1      43.770 -18.297   5.908  1.00  0.00     0.257 C 
HETATM   28  C   UNL     1      44.675 -17.667   6.974  1.00  0.00     0.041 C 
HETATM   29  C   UNL     1      44.102 -16.355   7.491  1.00  0.00     0.004 C 
HETATM   30  C   UNL     1      43.884 -15.392   6.337  1.00  0.00     0.028 C 
HETATM   31  C   UNL     1      42.971 -15.986   5.274  1.00  0.00     0.236 C 
HETATM   32  H   UNL     1      44.458 -17.082   4.384  1.00  0.00     0.281 HD
BRANCH  27  33
HETATM   33  C   UNL     1      44.219 -19.672   5.477  1.00  0.00     0.136 A 
HETATM   34  N   UNL     1      44.077 -20.870   6.146  1.00  0.00    -0.346 N 
HETATM   35  C   UNL     1      43.490 -21.127   7.439  1.00  0.00     0.157 C 
HETATM   36  C   UNL     1      44.621 -21.851   5.362  1.00  0.00     0.111 A 
HETATM   37  C   UNL     1      45.099 -21.214   4.247  1.00  0.00     0.136 A 
HETATM   38  N   UNL     1      44.869 -19.871   4.342  1.00  0.00    -0.244 NA
ENDBRANCH  27  33
ENDBRANCH   1  26
TORSDOF 7
ENDMDL
MODEL 8
REMARK VINA RESULT:      -7.3      5.842     11.057
REMARK  7 active torsions:
REMARK  status: ('A' for Active; 'I' for Inactive)
REMARK    1  A    between atoms: C_3  and  C_4 
REMARK    2  A    between atoms: N_5  and  C_7 
REMARK    3  A    between atoms: N_10  and  C_11 
REMARK    4  A    between atoms: C_14  and  C_15 
REMARK       I    between atoms: C_15  and  N_16 
REMARK    5  A    between atoms: N_16  and  C_17 
REMARK    6  A    between atoms: C_17  and  C_18 
REMARK    7  A    between atoms: C_18  and  N_19 
ROOT
HETATM    1  C   UNL     1      43.388 -18.112   3.719  1.00  0.00     0.191 C 
HETATM    2  C   UNL     1      43.798 -17.181   2.577  1.00  0.00     0.048 C 
HETATM    3  C   UNL     1      42.688 -16.866   1.601  1.00  0.00     0.098 C 
HETATM    4  N   UNL     1      41.515 -16.389   2.344  1.00  0.00    -0.283 NA
HETATM    5  C   UNL     1      40.937 -17.373   3.256  1.00  0.00     0.098 C 
HETATM    6  C   UNL     1      41.989 -17.797   4.290  1.00  0.00     0.048 C 
ENDROOT
BRANCH   4   7
HETATM    7  C   UNL     1      40.654 -15.685   1.478  1.00  0.00     0.010 A 
HETATM    8  C   UNL     1      41.034 -15.194   0.221  1.00  0.00     0.024 A 
HETATM    9  C   UNL     1      40.202 -14.313  -0.490  1.00  0.00     0.019 A 
HETATM   10  C   UNL     1      38.972 -13.930   0.054  1.00  0.00     0.032 A 
HETATM   11  C   UNL     1      38.541 -14.477   1.259  1.00  0.00     0.019 A 
HETATM   12  C   UNL     1      39.369 -15.360   1.950  1.00  0.00     0.024 A 
BRANCH  10  13
HETATM   13  C   UNL     1      38.186 -12.817  -0.520  1.00  0.00     0.251 C 
HETATM   14  N   UNL     1      38.205 -11.612   0.137  1.00  0.00    -0.355 N 
HETATM   15  H   UNL     1      38.773 -11.549   0.978  1.00  0.00     0.162 HD
HETATM   16  O   UNL     1      37.537 -13.009  -1.544  1.00  0.00    -0.268 OA
BRANCH  14  17
HETATM   17  C   UNL     1      37.274 -10.510  -0.111  1.00  0.00     0.150 C 
BRANCH  17  18
HETATM   18  C   UNL     1      37.105 -10.016  -1.570  1.00  0.00     0.254 C 
BRANCH  18  19
HETATM   19  N   UNL     1      35.928 -10.634  -2.285  1.00  0.00    -0.066 N 
HETATM   20  H   UNL     1      35.950 -11.642  -2.022  1.00  0.00     0.280 HD
HETATM   21  C   UNL     1      34.561 -10.123  -1.872  1.00  0.00     0.261 C 
HETATM   22  C   UNL     1      33.475 -10.926  -2.600  1.00  0.00     0.195 C 
HETATM   23  O   UNL     1      33.640 -10.844  -4.019  1.00  0.00    -0.388 OA
HETATM   24  C   UNL     1      34.902 -11.382  -4.432  1.00  0.00     0.195 C 
HETATM   25  C   UNL     1      36.065 -10.608  -3.798  1.00  0.00     0.261 C 
ENDBRANCH  18  19
ENDBRANCH  17  18
ENDBRANCH  14  17
ENDBRANCH  10  13
ENDBRANCH   4   7
BRANCH   1  26
HETATM   26  N   UNL     1      43.588 -19.631   3.434  1.00  0.00    -0.056 N 
HETATM   27  C   UNL     1      44.531 -20.338   4.443  1.00  0.00     0.257 C 
HETATM   28  C   UNL     1      44.524 -21.853   4.202  1.00  0.00     0.041 C 
HETATM   29  C   UNL     1      44.891 -22.192   2.765  1.00  0.00     0.004 C 
HETATM   30  C   UNL     1      43.943 -21.493   1.806  1.00  0.00     0.028 C 
HETATM   31  C   UNL     1      43.948 -19.986   2.011  1.00  0.00     0.236 C 
HETATM   32  H   UNL     1      42.664 -20.041   3.609  1.00  0.00     0.281 HD
BRANCH  27  33
HETATM   33  C   UNL     1      44.323 -19.960   5.890  1.00  0.00     0.136 A 
HETATM   34  N   UNL     1      44.792 -18.852   6.563  1.00  0.00    -0.346 N 
HETATM   35  C   UNL     1      45.623 -17.776   6.078  1.00  0.00     0.157 C 
HETATM   36  C   UNL     1      44.338 -18.925   7.852  1.00  0.00     0.111 A 
HETATM   37  C   UNL     1      43.623 -20.092   7.928  1.00  0.00     0.136 A 
HETATM   38  N   UNL     1      43.644 -20.732   6.722  1.00  0.00    -0.244 NA
ENDBRANCH  27  33
ENDBRANCH   1  26
TORSDOF 7
ENDMDL
MODEL 9
REMARK VINA RESULT:      -7.2      5.206     11.658
REMARK  7 active torsions:
REMARK  status: ('A' for Active; 'I' for Inactive)
REMARK    1  A    between atoms: C_3  and  C_4 
REMARK    2  A    between atoms: N_5  and  C_7 
REMARK    3  A    between atoms: N_10  and  C_11 
REMARK    4  A    between atoms: C_14  and  C_15 
REMARK       I    between atoms: C_15  and  N_16 
REMARK    5  A    between atoms: N_16  and  C_17 
REMARK    6  A    between atoms: C_17  and  C_18 
REMARK    7  A    between atoms: C_18  and  N_19 
ROOT
HETATM    1  C   UNL     1      42.936 -17.931   3.502  1.00  0.00     0.191 C 
HETATM    2  C   UNL     1      41.483 -17.501   3.294  1.00  0.00     0.048 C 
HETATM    3  C   UNL     1      41.315 -16.263   2.444  1.00  0.00     0.098 C 
HETATM    4  N   UNL     1      42.052 -16.439   1.186  1.00  0.00    -0.283 NA
HETATM    5  C   UNL     1      43.496 -16.583   1.349  1.00  0.00     0.098 C 
HETATM    6  C   UNL     1      43.797 -17.805   2.228  1.00  0.00     0.048 C 
ENDROOT
BRANCH   4   7
HETATM    7  C   UNL     1      41.569 -15.536   0.219  1.00  0.00     0.010 A 
HETATM    8  C   UNL     1      41.119 -15.915  -1.054  1.00  0.00     0.024 A 
HETATM    9  C   UNL     1      40.864 -14.952  -2.045  1.00  0.00     0.019 A 
HETATM   10  C   UNL     1      41.048 -13.596  -1.757  1.00  0.00     0.032 A 
HETATM   11  C   UNL     1      41.409 -13.198  -0.473  1.00  0.00     0.019 A 
HETATM   12  C   UNL     1      41.647 -14.162   0.505  1.00  0.00     0.024 A 
BRANCH  10  13
HETATM   13  C   UNL     1      41.049 -12.572  -2.824  1.00  0.00     0.251 C 
HETATM   14  N   UNL     1      41.052 -11.253  -2.448  1.00  0.00    -0.355 N 
HETATM   15  H   UNL     1      41.067 -11.052  -1.451  1.00  0.00     0.162 HD
HETATM   16  O   UNL     1      41.031 -12.932  -3.997  1.00  0.00    -0.268 OA
BRANCH  14  17
HETATM   17  C   UNL     1      40.759 -10.128  -3.338  1.00  0.00     0.150 C 
BRANCH  17  18
HETATM   18  C   UNL     1      41.919  -9.560  -4.195  1.00  0.00     0.254 C 
BRANCH  18  19
HETATM   19  N   UNL     1      41.707  -9.715  -5.681  1.00  0.00    -0.066 N 
HETATM   20  H   UNL     1      42.183 -10.609  -5.930  1.00  0.00     0.280 HD
HETATM   21  C   UNL     1      40.267  -9.869  -6.130  1.00  0.00     0.261 C 
HETATM   22  C   UNL     1      40.229 -10.133  -7.642  1.00  0.00     0.195 C 
HETATM   23  O   UNL     1      40.877  -9.080  -8.363  1.00  0.00    -0.388 OA
HETATM   24  C   UNL     1      42.256  -8.964  -7.995  1.00  0.00     0.195 C 
HETATM   25  C   UNL     1      42.403  -8.643  -6.502  1.00  0.00     0.261 C 
ENDBRANCH  18  19
ENDBRANCH  17  18
ENDBRANCH  14  17
ENDBRANCH  10  13
ENDBRANCH   4   7
BRANCH   1  26
HETATM   26  N   UNL     1      43.631 -17.317   4.755  1.00  0.00    -0.056 N 
HETATM   27  C   UNL     1      43.806 -18.319   5.927  1.00  0.00     0.257 C 
HETATM   28  C   UNL     1      44.657 -17.691   7.038  1.00  0.00     0.041 C 
HETATM   29  C   UNL     1      44.067 -16.372   7.516  1.00  0.00     0.004 C 
HETATM   30  C   UNL     1      43.920 -15.413   6.347  1.00  0.00     0.028 C 
HETATM   31  C   UNL     1      43.062 -16.005   5.240  1.00  0.00     0.236 C 
HETATM   32  H   UNL     1      44.586 -17.118   4.437  1.00  0.00     0.281 HD
BRANCH  27  33
HETATM   33  C   UNL     1      44.265 -19.700   5.528  1.00  0.00     0.136 A 
HETATM   34  N   UNL     1      44.075 -20.894   6.193  1.00  0.00    -0.346 N 
HETATM   35  C   UNL     1      43.413 -21.139   7.451  1.00  0.00     0.157 C 
HETATM   36  C   UNL     1      44.654 -21.883   5.445  1.00  0.00     0.111 A 
HETATM   37  C   UNL     1      45.199 -21.255   4.356  1.00  0.00     0.136 A 
HETATM   38  N   UNL     1      44.977 -19.910   4.432  1.00  0.00    -0.244 NA
ENDBRANCH  27  33
ENDBRANCH   1  26
TORSDOF 7
ENDMDL
MODEL 10
REMARK VINA RESULT:      -7.2      5.494     12.214
REMARK  7 active torsions:
REMARK  status: ('A' for Active; 'I' for Inactive)
REMARK    1  A    between atoms: C_3  and  C_4 
REMARK    2  A    between atoms: N_5  and  C_7 
REMARK    3  A    between atoms: N_10  and  C_11 
REMARK    4  A    between atoms: C_14  and  C_15 
REMARK       I    between atoms: C_15  and  N_16 
REMARK    5  A    between atoms: N_16  and  C_17 
REMARK    6  A    between atoms: C_17  and  C_18 
REMARK    7  A    between atoms: C_18  and  N_19 
ROOT
HETATM    1  C   UNL     1      42.969 -16.083   2.904  1.00  0.00     0.191 C 
HETATM    2  C   UNL     1      42.418 -17.074   1.877  1.00  0.00     0.048 C 
HETATM    3  C   UNL     1      41.303 -16.525   1.018  1.00  0.00     0.098 C 
HETATM    4  N   UNL     1      41.736 -15.255   0.422  1.00  0.00    -0.283 NA
HETATM    5  C   UNL     1      42.010 -14.197   1.390  1.00  0.00     0.098 C 
HETATM    6  C   UNL     1      43.120 -14.651   2.349  1.00  0.00     0.048 C 
ENDROOT
BRANCH   4   7
HETATM    7  C   UNL     1      40.933 -14.953  -0.696  1.00  0.00     0.010 A 
HETATM    8  C   UNL     1      39.787 -14.146  -0.647  1.00  0.00     0.024 A 
HETATM    9  C   UNL     1      38.911 -14.070  -1.742  1.00  0.00     0.019 A 
HETATM   10  C   UNL     1      39.189 -14.795  -2.905  1.00  0.00     0.032 A 
HETATM   11  C   UNL     1      40.368 -15.530  -3.003  1.00  0.00     0.019 A 
HETATM   12  C   UNL     1      41.235 -15.589  -1.914  1.00  0.00     0.024 A 
BRANCH  10  13
HETATM   13  C   UNL     1      38.183 -14.957  -3.975  1.00  0.00     0.251 C 
HETATM   14  N   UNL     1      37.221 -13.987  -4.104  1.00  0.00    -0.355 N 
HETATM   15  H   UNL     1      37.263 -13.200  -3.461  1.00  0.00     0.162 HD
HETATM   16  O   UNL     1      38.230 -15.951  -4.694  1.00  0.00    -0.268 OA
BRANCH  14  17
HETATM   17  C   UNL     1      35.995 -14.124  -4.893  1.00  0.00     0.150 C 
BRANCH  17  18
HETATM   18  C   UNL     1      34.939 -12.994  -4.795  1.00  0.00     0.254 C 
BRANCH  18  19
HETATM   19  N   UNL     1      34.687 -12.286  -6.104  1.00  0.00    -0.066 N 
HETATM   20  H   UNL     1      33.673 -12.041  -6.088  1.00  0.00     0.280 HD
HETATM   21  C   UNL     1      35.429 -10.978  -6.301  1.00  0.00     0.261 C 
HETATM   22  C   UNL     1      34.979 -10.329  -7.617  1.00  0.00     0.195 C 
HETATM   23  O   UNL     1      35.197 -11.210  -8.724  1.00  0.00    -0.388 OA
HETATM   24  C   UNL     1      34.451 -12.425  -8.583  1.00  0.00     0.195 C 
HETATM   25  C   UNL     1      34.868 -13.183  -7.316  1.00  0.00     0.261 C 
ENDBRANCH  18  19
ENDBRANCH  17  18
ENDBRANCH  14  17
ENDBRANCH  10  13
ENDBRANCH   4   7
BRANCH   1  26
HETATM   26  N   UNL     1      42.261 -16.113   4.293  1.00  0.00    -0.056 N 
HETATM   27  C   UNL     1      42.086 -17.541   4.874  1.00  0.00     0.257 C 
HETATM   28  C   UNL     1      41.556 -17.465   6.311  1.00  0.00     0.041 C 
HETATM   29  C   UNL     1      40.261 -16.669   6.389  1.00  0.00     0.004 C 
HETATM   30  C   UNL     1      40.472 -15.276   5.823  1.00  0.00     0.028 C 
HETATM   31  C   UNL     1      40.978 -15.323   4.389  1.00  0.00     0.236 C 
HETATM   32  H   UNL     1      42.930 -15.655   4.922  1.00  0.00     0.281 HD
BRANCH  27  33
HETATM   33  C   UNL     1      43.284 -18.447   4.724  1.00  0.00     0.136 A 
HETATM   34  N   UNL     1      44.473 -18.420   5.422  1.00  0.00    -0.346 N 
HETATM   35  C   UNL     1      44.901 -17.512   6.458  1.00  0.00     0.157 C 
HETATM   36  C   UNL     1      45.253 -19.443   4.953  1.00  0.00     0.111 A 
HETATM   37  C   UNL     1      44.519 -20.048   3.965  1.00  0.00     0.136 A 
HETATM   38  N   UNL     1      43.322 -19.409   3.816  1.00  0.00    -0.244 NA
ENDBRANCH  27  33
ENDBRANCH   1  26
TORSDOF 7
ENDMDL
