MODEL 1
REMARK VINA RESULT:      -8.6      0.000      0.000
REMARK  3 active torsions:
REMARK  status: ('A' for Active; 'I' for Inactive)
REMARK    1  A    between atoms: C_12  and  C_13 
REMARK       I    between atoms: C_13  and  N_14 
REMARK    2  A    between atoms: N_14  and  C_15 
REMARK    3  A    between atoms: C_15  and  C_16 
ROOT
HETATM    1  C   UNL     1      42.845  -8.856  13.296  1.00  0.00     0.001 A 
HETATM    2  C   UNL     1      43.651  -9.823  12.689  1.00  0.00     0.016 A 
HETATM    3  C   UNL     1      43.402 -10.202  11.368  1.00  0.00     0.026 A 
HETATM    4  C   UNL     1      42.342  -9.611  10.652  1.00  0.00     0.081 A 
HETATM    5  O   UNL     1      42.010  -9.909   9.348  1.00  0.00    -0.346 OA
HETATM    6  C   UNL     1      42.785 -10.898   8.610  1.00  0.00     0.219 A 
HETATM    7  C   UNL     1      43.899 -11.521   9.356  1.00  0.00     0.031 A 
HETATM    8  C   UNL     1      44.176 -11.184  10.653  1.00  0.00     0.074 A 
HETATM    9  N   UNL     1      45.244 -11.934  11.025  1.00  0.00    -0.276 N 
HETATM   10  H   UNL     1      45.722 -11.952  11.919  1.00  0.00     0.189 HD
HETATM   11  N   UNL     1      45.692 -12.747  10.041  1.00  0.00    -0.168 NA
HETATM   12  C   UNL     1      44.861 -12.495   9.001  1.00  0.00     0.155 A 
HETATM   13  C   UNL     1      41.543  -8.647  11.268  1.00  0.00     0.038 A 
HETATM   14  C   UNL     1      41.794  -8.271  12.588  1.00  0.00     0.003 A 
ENDROOT
BRANCH  12  15
HETATM   15  C   UNL     1      44.998 -13.175   7.704  1.00  0.00     0.272 C 
HETATM   16  N   UNL     1      43.928 -13.979   7.396  1.00  0.00    -0.351 N 
HETATM   17  H   UNL     1      43.171 -13.991   8.074  1.00  0.00     0.163 HD
HETATM   18  O   UNL     1      45.978 -13.028   6.981  1.00  0.00    -0.266 OA
BRANCH  16  19
HETATM   19  C   UNL     1      43.836 -14.747   6.183  1.00  0.00     0.161 C 
BRANCH  19  20
HETATM   20  C   UNL     1      43.790 -16.226   6.470  1.00  0.00    -0.040 A 
HETATM   21  C   UNL     1      43.648 -16.689   7.787  1.00  0.00     0.010 A 
HETATM   22  C   UNL     1      43.588 -18.059   8.057  1.00  0.00     0.024 A 
HETATM   23  C   UNL     1      43.662 -18.972   7.010  1.00  0.00     0.034 A 
HETATM   24 CL   UNL     1      43.582 -20.659   7.340  1.00  0.00    -0.084 Cl
HETATM   25  C   UNL     1      43.798 -18.530   5.696  1.00  0.00     0.024 A 
HETATM   26  C   UNL     1      43.863 -17.160   5.426  1.00  0.00     0.010 A 
ENDBRANCH  19  20
ENDBRANCH  16  19
ENDBRANCH  12  15
TORSDOF 3
ENDMDL
MODEL 2
REMARK VINA RESULT:      -8.5      7.562     10.546
REMARK  3 active torsions:
REMARK  status: ('A' for Active; 'I' for Inactive)
REMARK    1  A    between atoms: C_12  and  C_13 
REMARK       I    between atoms: C_13  and  N_14 
REMARK    2  A    between atoms: N_14  and  C_15 
REMARK    3  A    between atoms: C_15  and  C_16 
ROOT
HETATM    1  C   UNL     1      44.740 -21.846   4.437  1.00  0.00     0.001 A 
HETATM    2  C   UNL     1      44.476 -20.515   4.770  1.00  0.00     0.016 A 
HETATM    3  C   UNL     1      44.099 -19.613   3.772  1.00  0.00     0.026 A 
HETATM    4  C   UNL     1      43.986 -20.047   2.436  1.00  0.00     0.081 A 
HETATM    5  O   UNL     1      43.622 -19.243   1.377  1.00  0.00    -0.346 OA
HETATM    6  C   UNL     1      43.316 -17.837   1.604  1.00  0.00     0.219 A 
HETATM    7  C   UNL     1      43.432 -17.378   3.004  1.00  0.00     0.031 A 
HETATM    8  C   UNL     1      43.803 -18.225   4.013  1.00  0.00     0.074 A 
HETATM    9  N   UNL     1      43.809 -17.486   5.151  1.00  0.00    -0.276 N 
HETATM   10  H   UNL     1      44.037 -17.782   6.094  1.00  0.00     0.189 HD
HETATM   11  N   UNL     1      43.457 -16.196   4.950  1.00  0.00    -0.168 NA
HETATM   12  C   UNL     1      43.221 -16.122   3.618  1.00  0.00     0.155 A 
HETATM   13  C   UNL     1      44.253 -21.378   2.115  1.00  0.00     0.038 A 
HETATM   14  C   UNL     1      44.629 -22.276   3.115  1.00  0.00     0.003 A 
ENDROOT
BRANCH  12  15
HETATM   15  C   UNL     1      42.802 -14.873   2.963  1.00  0.00     0.272 C 
HETATM   16  N   UNL     1      41.516 -14.916   2.484  1.00  0.00    -0.351 N 
HETATM   17  H   UNL     1      41.006 -15.778   2.655  1.00  0.00     0.163 HD
HETATM   18  O   UNL     1      43.541 -13.899   2.864  1.00  0.00    -0.266 OA
BRANCH  16  19
HETATM   19  C   UNL     1      40.887 -13.816   1.803  1.00  0.00     0.161 C 
BRANCH  19  20
HETATM   20  C   UNL     1      40.524 -14.180   0.385  1.00  0.00    -0.040 A 
HETATM   21  C   UNL     1      39.371 -13.645  -0.211  1.00  0.00     0.010 A 
HETATM   22  C   UNL     1      39.039 -13.967  -1.530  1.00  0.00     0.024 A 
HETATM   23  C   UNL     1      39.861 -14.820  -2.260  1.00  0.00     0.034 A 
HETATM   24 CL   UNL     1      39.456 -15.212  -3.886  1.00  0.00    -0.084 Cl
HETATM   25  C   UNL     1      41.010 -15.356  -1.685  1.00  0.00     0.024 A 
HETATM   26  C   UNL     1      41.341 -15.038  -0.365  1.00  0.00     0.010 A 
ENDBRANCH  19  20
ENDBRANCH  16  19
ENDBRANCH  12  15
TORSDOF 3
ENDMDL
MODEL 3
REMARK VINA RESULT:      -8.4      8.138     10.183
REMARK  3 active torsions:
REMARK  status: ('A' for Active; 'I' for Inactive)
REMARK    1  A    between atoms: C_12  and  C_13 
REMARK       I    between atoms: C_13  and  N_14 
REMARK    2  A    between atoms: N_14  and  C_15 
REMARK    3  A    between atoms: C_15  and  C_16 
ROOT
HETATM    1  C   UNL     1      42.456 -10.895  -3.929  1.00  0.00     0.001 A 
HETATM    2  C   UNL     1      42.105 -12.157  -3.441  1.00  0.00     0.016 A 
HETATM    3  C   UNL     1      42.120 -12.396  -2.065  1.00  0.00     0.026 A 
HETATM    4  C   UNL     1      42.487 -11.367  -1.175  1.00  0.00     0.081 A 
HETATM    5  O   UNL     1      42.535 -11.494   0.197  1.00  0.00    -0.346 OA
HETATM    6  C   UNL     1      42.183 -12.763   0.821  1.00  0.00     0.219 A 
HETATM    7  C   UNL     1      41.796 -13.845  -0.109  1.00  0.00     0.031 A 
HETATM    8  C   UNL     1      41.773 -13.657  -1.464  1.00  0.00     0.074 A 
HETATM    9  N   UNL     1      41.379 -14.837  -2.008  1.00  0.00    -0.276 N 
HETATM   10  H   UNL     1      41.252 -15.069  -2.987  1.00  0.00     0.189 HD
HETATM   11  N   UNL     1      41.137 -15.794  -1.084  1.00  0.00    -0.168 NA
HETATM   12  C   UNL     1      41.393 -15.184   0.099  1.00  0.00     0.155 A 
HETATM   13  C   UNL     1      42.836 -10.112  -1.673  1.00  0.00     0.038 A 
HETATM   14  C   UNL     1      42.820  -9.876  -3.049  1.00  0.00     0.003 A 
ENDROOT
BRANCH  12  15
HETATM   15  C   UNL     1      41.250 -15.878   1.387  1.00  0.00     0.272 C 
HETATM   16  N   UNL     1      42.449 -16.116   2.013  1.00  0.00    -0.351 N 
HETATM   17  H   UNL     1      43.276 -15.772   1.535  1.00  0.00     0.163 HD
HETATM   18  O   UNL     1      40.159 -16.205   1.844  1.00  0.00    -0.266 OA
BRANCH  16  19
HETATM   19  C   UNL     1      42.562 -16.784   3.283  1.00  0.00     0.161 C 
BRANCH  19  20
HETATM   20  C   UNL     1      43.126 -18.173   3.127  1.00  0.00    -0.040 A 
HETATM   21  C   UNL     1      43.898 -18.744   4.151  1.00  0.00     0.010 A 
HETATM   22  C   UNL     1      44.410 -20.037   4.019  1.00  0.00     0.024 A 
HETATM   23  C   UNL     1      44.147 -20.769   2.864  1.00  0.00     0.034 A 
HETATM   24 CL   UNL     1      44.771 -22.364   2.702  1.00  0.00    -0.084 Cl
HETATM   25  C   UNL     1      43.379 -20.219   1.840  1.00  0.00     0.024 A 
HETATM   26  C   UNL     1      42.870 -18.924   1.970  1.00  0.00     0.010 A 
ENDBRANCH  19  20
ENDBRANCH  16  19
ENDBRANCH  12  15
TORSDOF 3
ENDMDL
MODEL 4
REMARK VINA RESULT:      -8.3      6.149      9.931
REMARK  3 active torsions:
REMARK  status: ('A' for Active; 'I' for Inactive)
REMARK    1  A    between atoms: C_12  and  C_13 
REMARK       I    between atoms: C_13  and  N_14 
REMARK    2  A    between atoms: N_14  and  C_15 
REMARK    3  A    between atoms: C_15  and  C_16 
ROOT
HETATM    1  C   UNL     1      44.769 -22.022   3.466  1.00  0.00     0.001 A 
HETATM    2  C   UNL     1      44.726 -20.880   4.270  1.00  0.00     0.016 A 
HETATM    3  C   UNL     1      44.101 -19.724   3.798  1.00  0.00     0.026 A 
HETATM    4  C   UNL     1      43.517 -19.711   2.516  1.00  0.00     0.081 A 
HETATM    5  O   UNL     1      42.876 -18.627   1.954  1.00  0.00    -0.346 OA
HETATM    6  C   UNL     1      42.764 -17.382   2.703  1.00  0.00     0.219 A 
HETATM    7  C   UNL     1      43.375 -17.391   4.049  1.00  0.00     0.031 A 
HETATM    8  C   UNL     1      44.002 -18.499   4.549  1.00  0.00     0.074 A 
HETATM    9  N   UNL     1      44.441 -18.164   5.789  1.00  0.00    -0.276 N 
HETATM   10  H   UNL     1      44.951 -18.736   6.453  1.00  0.00     0.189 HD
HETATM   11  N   UNL     1      44.134 -16.894   6.137  1.00  0.00    -0.168 NA
HETATM   12  C   UNL     1      43.471 -16.408   5.061  1.00  0.00     0.155 A 
HETATM   13  C   UNL     1      43.566 -20.857   1.721  1.00  0.00     0.038 A 
HETATM   14  C   UNL     1      44.191 -22.010   2.196  1.00  0.00     0.003 A 
ENDROOT
BRANCH  12  15
HETATM   15  C   UNL     1      42.946 -15.035   5.016  1.00  0.00     0.272 C 
HETATM   16  N   UNL     1      41.575 -14.975   5.077  1.00  0.00    -0.351 N 
HETATM   17  H   UNL     1      41.095 -15.865   5.168  1.00  0.00     0.163 HD
HETATM   18  O   UNL     1      43.674 -14.051   4.933  1.00  0.00    -0.266 OA
BRANCH  16  19
HETATM   19  C   UNL     1      40.833 -13.742   5.046  1.00  0.00     0.161 C 
BRANCH  19  20
HETATM   20  C   UNL     1      39.989 -13.638   3.801  1.00  0.00    -0.040 A 
HETATM   21  C   UNL     1      39.410 -12.412   3.439  1.00  0.00     0.010 A 
HETATM   22  C   UNL     1      38.640 -12.306   2.277  1.00  0.00     0.024 A 
HETATM   23  C   UNL     1      38.451 -13.424   1.469  1.00  0.00     0.034 A 
HETATM   24 CL   UNL     1      37.509 -13.294   0.036  1.00  0.00    -0.084 Cl
HETATM   25  C   UNL     1      39.023 -14.647   1.813  1.00  0.00     0.024 A 
HETATM   26  C   UNL     1      39.790 -14.754   2.977  1.00  0.00     0.010 A 
ENDBRANCH  19  20
ENDBRANCH  16  19
ENDBRANCH  12  15
TORSDOF 3
ENDMDL
MODEL 5
REMARK VINA RESULT:      -8.2      7.351      9.678
REMARK  3 active torsions:
REMARK  status: ('A' for Active; 'I' for Inactive)
REMARK    1  A    between atoms: C_12  and  C_13 
REMARK       I    between atoms: C_13  and  N_14 
REMARK    2  A    between atoms: N_14  and  C_15 
REMARK    3  A    between atoms: C_15  and  C_16 
ROOT
HETATM    1  C   UNL     1      42.567 -10.789  -2.873  1.00  0.00     0.001 A 
HETATM    2  C   UNL     1      42.521 -11.053  -1.501  1.00  0.00     0.016 A 
HETATM    3  C   UNL     1      42.149 -12.322  -1.052  1.00  0.00     0.026 A 
HETATM    4  C   UNL     1      41.822 -13.331  -1.980  1.00  0.00     0.081 A 
HETATM    5  O   UNL     1      41.444 -14.614  -1.647  1.00  0.00    -0.346 OA
HETATM    6  C   UNL     1      41.367 -15.008  -0.246  1.00  0.00     0.219 A 
HETATM    7  C   UNL     1      41.710 -13.953   0.731  1.00  0.00     0.031 A 
HETATM    8  C   UNL     1      42.074 -12.695   0.337  1.00  0.00     0.074 A 
HETATM    9  N   UNL     1      42.316 -11.992   1.472  1.00  0.00    -0.276 N 
HETATM   10  H   UNL     1      42.605 -11.024   1.566  1.00  0.00     0.189 HD
HETATM   11  N   UNL     1      42.135 -12.720   2.598  1.00  0.00    -0.168 NA
HETATM   12  C   UNL     1      41.759 -13.940   2.145  1.00  0.00     0.155 A 
HETATM   13  C   UNL     1      41.870 -13.056  -3.347  1.00  0.00     0.038 A 
HETATM   14  C   UNL     1      42.242 -11.787  -3.792  1.00  0.00     0.003 A 
ENDROOT
BRANCH  12  15
HETATM   15  C   UNL     1      41.459 -15.057   3.053  1.00  0.00     0.272 C 
HETATM   16  N   UNL     1      42.583 -15.670   3.550  1.00  0.00    -0.351 N 
HETATM   17  H   UNL     1      43.471 -15.273   3.258  1.00  0.00     0.163 HD
HETATM   18  O   UNL     1      40.312 -15.395   3.328  1.00  0.00    -0.266 OA
BRANCH  16  19
HETATM   19  C   UNL     1      42.541 -16.788   4.455  1.00  0.00     0.161 C 
BRANCH  19  20
HETATM   20  C   UNL     1      43.053 -18.046   3.800  1.00  0.00    -0.040 A 
HETATM   21  C   UNL     1      42.586 -18.424   2.532  1.00  0.00     0.010 A 
HETATM   22  C   UNL     1      43.068 -19.580   1.913  1.00  0.00     0.024 A 
HETATM   23  C   UNL     1      44.025 -20.360   2.557  1.00  0.00     0.034 A 
HETATM   24 CL   UNL     1      44.625 -21.781   1.793  1.00  0.00    -0.084 Cl
HETATM   25  C   UNL     1      44.502 -19.997   3.814  1.00  0.00     0.024 A 
HETATM   26  C   UNL     1      44.016 -18.842   4.435  1.00  0.00     0.010 A 
ENDBRANCH  19  20
ENDBRANCH  16  19
ENDBRANCH  12  15
TORSDOF 3
ENDMDL
MODEL 6
REMARK VINA RESULT:      -8.1      6.550     10.562
REMARK  3 active torsions:
REMARK  status: ('A' for Active; 'I' for Inactive)
REMARK    1  A    between atoms: C_12  and  C_13 
REMARK       I    between atoms: C_13  and  N_14 
REMARK    2  A    between atoms: N_14  and  C_15 
REMARK    3  A    between atoms: C_15  and  C_16 
ROOT
HETATM    1  C   UNL     1      44.331 -22.062   2.115  1.00  0.00     0.001 A 
HETATM    2  C   UNL     1      43.963 -20.771   1.728  1.00  0.00     0.016 A 
HETATM    3  C   UNL     1      43.950 -19.742   2.672  1.00  0.00     0.026 A 
HETATM    4  C   UNL     1      44.308 -20.007   4.009  1.00  0.00     0.081 A 
HETATM    5  O   UNL     1      44.331 -19.068   5.018  1.00  0.00    -0.346 OA
HETATM    6  C   UNL     1      43.972 -17.685   4.731  1.00  0.00     0.219 A 
HETATM    7  C   UNL     1      43.597 -17.402   3.330  1.00  0.00     0.031 A 
HETATM    8  C   UNL     1      43.589 -18.380   2.373  1.00  0.00     0.074 A 
HETATM    9  N   UNL     1      43.202 -17.783   1.218  1.00  0.00    -0.276 N 
HETATM   10  H   UNL     1      43.082 -18.201   0.301  1.00  0.00     0.189 HD
HETATM   11  N   UNL     1      42.956 -16.461   1.358  1.00  0.00    -0.168 NA
HETATM   12  C   UNL     1      43.200 -16.217   2.668  1.00  0.00     0.155 A 
HETATM   13  C   UNL     1      44.673 -21.300   4.384  1.00  0.00     0.038 A 
HETATM   14  C   UNL     1      44.685 -22.326   3.438  1.00  0.00     0.003 A 
ENDROOT
BRANCH  12  15
HETATM   15  C   UNL     1      43.055 -14.877   3.258  1.00  0.00     0.272 C 
HETATM   16  N   UNL     1      41.872 -14.705   3.932  1.00  0.00    -0.351 N 
HETATM   17  H   UNL     1      41.257 -15.513   3.966  1.00  0.00     0.163 HD
HETATM   18  O   UNL     1      43.917 -14.011   3.148  1.00  0.00    -0.266 OA
BRANCH  16  19
HETATM   19  C   UNL     1      41.505 -13.479   4.589  1.00  0.00     0.161 C 
BRANCH  19  20
HETATM   20  C   UNL     1      40.370 -12.789   3.874  1.00  0.00    -0.040 A 
HETATM   21  C   UNL     1      39.978 -13.211   2.595  1.00  0.00     0.010 A 
HETATM   22  C   UNL     1      38.916 -12.587   1.934  1.00  0.00     0.024 A 
HETATM   23  C   UNL     1      38.238 -11.541   2.554  1.00  0.00     0.034 A 
HETATM   24 CL   UNL     1      36.926 -10.775   1.745  1.00  0.00    -0.084 Cl
HETATM   25  C   UNL     1      38.611 -11.113   3.825  1.00  0.00     0.024 A 
HETATM   26  C   UNL     1      39.675 -11.735   4.484  1.00  0.00     0.010 A 
ENDBRANCH  19  20
ENDBRANCH  16  19
ENDBRANCH  12  15
TORSDOF 3
ENDMDL
MODEL 7
REMARK VINA RESULT:      -8.0      1.690      2.229
REMARK  3 active torsions:
REMARK  status: ('A' for Active; 'I' for Inactive)
REMARK    1  A    between atoms: C_12  and  C_13 
REMARK       I    between atoms: C_13  and  N_14 
REMARK    2  A    between atoms: N_14  and  C_15 
REMARK    3  A    between atoms: C_15  and  C_16 
ROOT
HETATM    1  C   UNL     1      41.505  -9.630  15.192  1.00  0.00     0.001 A 
HETATM    2  C   UNL     1      42.148 -10.605  14.424  1.00  0.00     0.016 A 
HETATM    3  C   UNL     1      42.581 -10.295  13.133  1.00  0.00     0.026 A 
HETATM    4  C   UNL     1      42.370  -9.004  12.609  1.00  0.00     0.081 A 
HETATM    5  O   UNL     1      42.757  -8.593  11.352  1.00  0.00    -0.346 OA
HETATM    6  C   UNL     1      43.444  -9.521  10.463  1.00  0.00     0.219 A 
HETATM    7  C   UNL     1      43.668 -10.877  11.009  1.00  0.00     0.031 A 
HETATM    8  C   UNL     1      43.255 -11.226  12.265  1.00  0.00     0.074 A 
HETATM    9  N   UNL     1      43.616 -12.522  12.441  1.00  0.00    -0.276 N 
HETATM   10  H   UNL     1      43.470 -13.114  13.252  1.00  0.00     0.189 HD
HETATM   11  N   UNL     1      44.249 -13.049  11.368  1.00  0.00    -0.168 NA
HETATM   12  C   UNL     1      44.285 -12.032  10.474  1.00  0.00     0.155 A 
HETATM   13  C   UNL     1      41.726  -8.039  13.384  1.00  0.00     0.038 A 
HETATM   14  C   UNL     1      41.294  -8.352  14.673  1.00  0.00     0.003 A 
ENDROOT
BRANCH  12  15
HETATM   15  C   UNL     1      44.901 -12.175   9.147  1.00  0.00     0.272 C 
HETATM   16  N   UNL     1      44.417 -13.244   8.435  1.00  0.00    -0.351 N 
HETATM   17  H   UNL     1      43.688 -13.787   8.889  1.00  0.00     0.163 HD
HETATM   18  O   UNL     1      45.762 -11.405   8.732  1.00  0.00    -0.266 OA
BRANCH  16  19
HETATM   19  C   UNL     1      44.870 -13.588   7.113  1.00  0.00     0.161 C 
BRANCH  19  20
HETATM   20  C   UNL     1      44.089 -14.747   6.547  1.00  0.00    -0.040 A 
HETATM   21  C   UNL     1      43.922 -15.922   7.296  1.00  0.00     0.010 A 
HETATM   22  C   UNL     1      43.185 -16.993   6.783  1.00  0.00     0.024 A 
HETATM   23  C   UNL     1      42.607 -16.891   5.521  1.00  0.00     0.034 A 
HETATM   24 CL   UNL     1      41.695 -18.207   4.890  1.00  0.00    -0.084 Cl
HETATM   25  C   UNL     1      42.761 -15.731   4.766  1.00  0.00     0.024 A 
HETATM   26  C   UNL     1      43.500 -14.661   5.277  1.00  0.00     0.010 A 
ENDBRANCH  19  20
ENDBRANCH  16  19
ENDBRANCH  12  15
TORSDOF 3
ENDMDL
MODEL 8
REMARK VINA RESULT:      -8.0      5.754      9.997
REMARK  3 active torsions:
REMARK  status: ('A' for Active; 'I' for Inactive)
REMARK    1  A    between atoms: C_12  and  C_13 
REMARK       I    between atoms: C_13  and  N_14 
REMARK    2  A    between atoms: N_14  and  C_15 
REMARK    3  A    between atoms: C_15  and  C_16 
ROOT
HETATM    1  C   UNL     1      44.342 -22.014   2.751  1.00  0.00     0.001 A 
HETATM    2  C   UNL     1      43.989 -20.801   2.155  1.00  0.00     0.016 A 
HETATM    3  C   UNL     1      43.982 -19.631   2.917  1.00  0.00     0.026 A 
HETATM    4  C   UNL     1      44.329 -19.677   4.282  1.00  0.00     0.081 A 
HETATM    5  O   UNL     1      44.356 -18.585   5.124  1.00  0.00    -0.346 OA
HETATM    6  C   UNL     1      44.014 -17.265   4.612  1.00  0.00     0.219 A 
HETATM    7  C   UNL     1      43.649 -17.212   3.180  1.00  0.00     0.031 A 
HETATM    8  C   UNL     1      43.637 -18.333   2.397  1.00  0.00     0.074 A 
HETATM    9  N   UNL     1      43.263 -17.930   1.156  1.00  0.00    -0.276 N 
HETATM   10  H   UNL     1      43.144 -18.491   0.320  1.00  0.00     0.189 HD
HETATM   11  N   UNL     1      43.030 -16.600   1.076  1.00  0.00    -0.168 NA
HETATM   12  C   UNL     1      43.269 -16.148   2.330  1.00  0.00     0.155 A 
HETATM   13  C   UNL     1      44.679 -20.894   4.867  1.00  0.00     0.038 A 
HETATM   14  C   UNL     1      44.685 -22.061   4.102  1.00  0.00     0.003 A 
ENDROOT
BRANCH  12  15
HETATM   15  C   UNL     1      43.135 -14.728   2.691  1.00  0.00     0.272 C 
HETATM   16  N   UNL     1      41.934 -14.181   2.311  1.00  0.00    -0.351 N 
HETATM   17  H   UNL     1      41.282 -14.813   1.855  1.00  0.00     0.163 HD
HETATM   18  O   UNL     1      44.018 -14.109   3.275  1.00  0.00    -0.266 OA
BRANCH  16  19
HETATM   19  C   UNL     1      41.575 -12.809   2.552  1.00  0.00     0.161 C 
BRANCH  19  20
HETATM   20  C   UNL     1      40.981 -12.629   3.927  1.00  0.00    -0.040 A 
HETATM   21  C   UNL     1      39.975 -13.494   4.382  1.00  0.00     0.010 A 
HETATM   22  C   UNL     1      39.432 -13.342   5.661  1.00  0.00     0.024 A 
HETATM   23  C   UNL     1      39.898 -12.327   6.493  1.00  0.00     0.034 A 
HETATM   24 CL   UNL     1      39.236 -12.143   8.070  1.00  0.00    -0.084 Cl
HETATM   25  C   UNL     1      40.899 -11.463   6.057  1.00  0.00     0.024 A 
HETATM   26  C   UNL     1      41.440 -11.612   4.777  1.00  0.00     0.010 A 
ENDBRANCH  19  20
ENDBRANCH  16  19
ENDBRANCH  12  15
TORSDOF 3
ENDMDL
MODEL 9
REMARK VINA RESULT:      -8.0      6.979     10.208
REMARK  3 active torsions:
REMARK  status: ('A' for Active; 'I' for Inactive)
REMARK    1  A    between atoms: C_12  and  C_13 
REMARK       I    between atoms: C_13  and  N_14 
REMARK    2  A    between atoms: N_14  and  C_15 
REMARK    3  A    between atoms: C_15  and  C_16 
ROOT
HETATM    1  C   UNL     1      44.701 -22.013   3.598  1.00  0.00     0.001 A 
HETATM    2  C   UNL     1      44.403 -20.829   2.920  1.00  0.00     0.016 A 
HETATM    3  C   UNL     1      44.149 -19.661   3.642  1.00  0.00     0.026 A 
HETATM    4  C   UNL     1      44.194 -19.680   5.051  1.00  0.00     0.081 A 
HETATM    5  O   UNL     1      43.961 -18.588   5.860  1.00  0.00    -0.346 OA
HETATM    6  C   UNL     1      43.647 -17.296   5.263  1.00  0.00     0.219 A 
HETATM    7  C   UNL     1      43.599 -17.271   3.786  1.00  0.00     0.031 A 
HETATM    8  C   UNL     1      43.836 -18.392   3.038  1.00  0.00     0.074 A 
HETATM    9  N   UNL     1      43.713 -18.019   1.739  1.00  0.00    -0.276 N 
HETATM   10  H   UNL     1      43.818 -18.588   0.906  1.00  0.00     0.189 HD
HETATM   11  N   UNL     1      43.411 -16.709   1.588  1.00  0.00    -0.168 NA
HETATM   12  C   UNL     1      43.339 -16.238   2.856  1.00  0.00     0.155 A 
HETATM   13  C   UNL     1      44.492 -20.868   5.718  1.00  0.00     0.038 A 
HETATM   14  C   UNL     1      44.745 -22.033   4.993  1.00  0.00     0.003 A 
ENDROOT
BRANCH  12  15
HETATM   15  C   UNL     1      43.032 -14.832   3.155  1.00  0.00     0.272 C 
HETATM   16  N   UNL     1      41.712 -14.618   3.466  1.00  0.00    -0.351 N 
HETATM   17  H   UNL     1      41.118 -15.443   3.476  1.00  0.00     0.163 HD
HETATM   18  O   UNL     1      43.883 -13.949   3.125  1.00  0.00    -0.266 OA
BRANCH  16  19
HETATM   19  C   UNL     1      41.173 -13.324   3.791  1.00  0.00     0.161 C 
BRANCH  19  20
HETATM   20  C   UNL     1      39.962 -13.004   2.951  1.00  0.00    -0.040 A 
HETATM   21  C   UNL     1      39.365 -11.737   3.023  1.00  0.00     0.010 A 
HETATM   22  C   UNL     1      38.253 -11.429   2.234  1.00  0.00     0.024 A 
HETATM   23  C   UNL     1      37.737 -12.387   1.365  1.00  0.00     0.034 A 
HETATM   24 CL   UNL     1      36.372 -12.008   0.388  1.00  0.00    -0.084 Cl
HETATM   25  C   UNL     1      38.321 -13.648   1.278  1.00  0.00     0.024 A 
HETATM   26  C   UNL     1      39.431 -13.957   2.070  1.00  0.00     0.010 A 
ENDBRANCH  19  20
ENDBRANCH  16  19
ENDBRANCH  12  15
TORSDOF 3
ENDMDL
MODEL 10
REMARK VINA RESULT:      -8.0      2.681      4.063
REMARK  3 active torsions:
REMARK  status: ('A' for Active; 'I' for Inactive)
REMARK    1  A    between atoms: C_12  and  C_13 
REMARK       I    between atoms: C_13  and  N_14 
REMARK    2  A    between atoms: N_14  and  C_15 
REMARK    3  A    between atoms: C_15  and  C_16 
ROOT
HETATM    1  C   UNL     1      43.596 -10.592  10.640  1.00  0.00     0.001 A 
HETATM    2  C   UNL     1      42.982 -10.950   9.438  1.00  0.00     0.016 A 
HETATM    3  C   UNL     1      43.617 -11.846   8.576  1.00  0.00     0.026 A 
HETATM    4  C   UNL     1      44.874 -12.385   8.919  1.00  0.00     0.081 A 
HETATM    5  O   UNL     1      45.586 -13.275   8.144  1.00  0.00    -0.346 OA
HETATM    6  C   UNL     1      45.041 -13.728   6.871  1.00  0.00     0.219 A 
HETATM    7  C   UNL     1      43.723 -13.166   6.507  1.00  0.00     0.031 A 
HETATM    8  C   UNL     1      43.067 -12.281   7.318  1.00  0.00     0.074 A 
HETATM    9  N   UNL     1      41.905 -11.973   6.688  1.00  0.00    -0.276 N 
HETATM   10  H   UNL     1      41.169 -11.346   6.994  1.00  0.00     0.189 HD
HETATM   11  N   UNL     1      41.755 -12.611   5.505  1.00  0.00    -0.168 NA
HETATM   12  C   UNL     1      42.882 -13.354   5.386  1.00  0.00     0.155 A 
HETATM   13  C   UNL     1      45.478 -12.019  10.122  1.00  0.00     0.038 A 
HETATM   14  C   UNL     1      44.840 -11.124  10.981  1.00  0.00     0.003 A 
ENDROOT
BRANCH  12  15
HETATM   15  C   UNL     1      43.131 -14.220   4.224  1.00  0.00     0.272 C 
HETATM   16  N   UNL     1      42.294 -15.306   4.166  1.00  0.00    -0.351 N 
HETATM   17  H   UNL     1      41.598 -15.371   4.902  1.00  0.00     0.163 HD
HETATM   18  O   UNL     1      44.006 -13.981   3.398  1.00  0.00    -0.266 OA
BRANCH  16  19
HETATM   19  C   UNL     1      42.350 -16.296   3.123  1.00  0.00     0.161 C 
BRANCH  19  20
HETATM   20  C   UNL     1      43.017 -17.562   3.600  1.00  0.00    -0.040 A 
HETATM   21  C   UNL     1      43.603 -18.444   2.679  1.00  0.00     0.010 A 
HETATM   22  C   UNL     1      44.237 -19.611   3.117  1.00  0.00     0.024 A 
HETATM   23  C   UNL     1      44.292 -19.896   4.478  1.00  0.00     0.034 A 
HETATM   24 CL   UNL     1      45.077 -21.329   5.019  1.00  0.00    -0.084 Cl
HETATM   25  C   UNL     1      43.719 -19.030   5.405  1.00  0.00     0.024 A 
HETATM   26  C   UNL     1      43.082 -17.865   4.967  1.00  0.00     0.010 A 
ENDBRANCH  19  20
ENDBRANCH  16  19
ENDBRANCH  12  15
TORSDOF 3
ENDMDL
