MODEL 1
REMARK VINA RESULT:      -9.9      0.000      0.000
REMARK  6 active torsions:
REMARK  status: ('A' for Active; 'I' for Inactive)
REMARK    1  A    between atoms: C_2  and  O_3 
REMARK    2  A    between atoms: C_2  and  C_4 
REMARK    3  A    between atoms: C_6  and  N_7 
REMARK       I    between atoms: N_7  and  C_8 
REMARK    4  A    between atoms: C_8  and  C_9 
REMARK    5  A    between atoms: C_14  and  C_15 
REMARK    6  A    between atoms: C_23  and  C_24 
ROOT
HETATM    1  C   UNL     1      42.930 -14.605   4.930  1.00  0.00     0.148 A 
HETATM    2  N   UNL     1      43.290 -14.451   3.633  1.00  0.00    -0.165 NA
HETATM    3  N   UNL     1      42.965 -15.637   3.083  1.00  0.00    -0.240 N 
HETATM    4  C   UNL     1      42.496 -16.557   3.977  1.00  0.00     0.123 A 
HETATM    5  N   UNL     1      42.252 -17.830   3.604  1.00  0.00    -0.366 N 
HETATM    6  C   UNL     1      42.746 -18.385   2.343  1.00  0.00     0.118 C 
HETATM    7  C   UNL     1      43.720 -17.423   1.628  1.00  0.00     0.066 C 
HETATM    8  C   UNL     1      43.253 -15.961   1.700  1.00  0.00     0.221 C 
HETATM    9  C   UNL     1      42.395 -15.901   5.172  1.00  0.00     0.089 A 
HETATM   10  H   UNL     1      41.890 -18.512   4.271  1.00  0.00     0.161 HD
ENDROOT
BRANCH   1  11
HETATM   11  C   UNL     1      43.138 -13.547   5.935  1.00  0.00     0.276 C 
HETATM   12  N   UNL     1      44.251 -13.788   6.718  1.00  0.00    -0.322 N 
HETATM   13  H   UNL     1      44.765 -14.621   6.443  1.00  0.00     0.169 HD
HETATM   14  O   UNL     1      42.369 -12.595   6.023  1.00  0.00    -0.266 OA
BRANCH  12  15
HETATM   15  C   UNL     1      44.727 -13.039   7.806  1.00  0.00     0.035 A 
HETATM   16  C   UNL     1      43.998 -12.826   8.979  1.00  0.00     0.039 A 
HETATM   17  C   UNL     1      44.530 -12.070  10.038  1.00  0.00    -0.028 A 
HETATM   18  C   UNL     1      45.806 -11.509   9.895  1.00  0.00     0.010 A 
HETATM   19  C   UNL     1      46.545 -11.726   8.734  1.00  0.00     0.003 A 
HETATM   20  C   UNL     1      46.009 -12.492   7.697  1.00  0.00     0.029 A 
BRANCH  17  21
HETATM   21  C   UNL     1      43.699 -11.846  11.285  1.00  0.00     0.147 C 
HETATM   22  C   UNL     1      44.046 -10.532  11.970  1.00  0.00     0.044 C 
BRANCH  21  23
HETATM   23  O   UNL     1      43.885 -12.915  12.212  1.00  0.00    -0.391 OA
HETATM   24  H   UNL     1      44.600 -13.469  11.857  1.00  0.00     0.210 HD
ENDBRANCH  21  23
ENDBRANCH  17  21
ENDBRANCH  12  15
ENDBRANCH   1  11
BRANCH   8  25
HETATM   25  C   UNL     1      42.043 -15.688   0.838  1.00  0.00     0.409 C 
HETATM   26  F   UNL     1      40.901 -15.632   1.559  1.00  0.00    -0.169 F 
HETATM   27  F   UNL     1      42.179 -14.476   0.236  1.00  0.00    -0.169 F 
HETATM   28  F   UNL     1      41.865 -16.589  -0.149  1.00  0.00    -0.169 F 
ENDBRANCH   8  25
BRANCH   6  29
HETATM   29  C   UNL     1      43.425 -19.719   2.621  1.00  0.00    -0.035 A 
HETATM   30  C   UNL     1      44.156 -19.911   3.805  1.00  0.00     0.012 A 
HETATM   31  C   UNL     1      44.773 -21.138   4.062  1.00  0.00     0.043 A 
HETATM   32  C   UNL     1      44.661 -22.174   3.142  1.00  0.00     0.116 A 
HETATM   33  F   UNL     1      45.257 -23.347   3.394  1.00  0.00    -0.206 F 
HETATM   34  C   UNL     1      43.941 -22.011   1.967  1.00  0.00     0.043 A 
HETATM   35  C   UNL     1      43.322 -20.787   1.708  1.00  0.00     0.012 A 
ENDBRANCH   6  29
TORSDOF 6
ENDMDL
MODEL 2
REMARK VINA RESULT:      -9.3      4.796      8.965
REMARK  6 active torsions:
REMARK  status: ('A' for Active; 'I' for Inactive)
REMARK    1  A    between atoms: C_2  and  O_3 
REMARK    2  A    between atoms: C_2  and  C_4 
REMARK    3  A    between atoms: C_6  and  N_7 
REMARK       I    between atoms: N_7  and  C_8 
REMARK    4  A    between atoms: C_8  and  C_9 
REMARK    5  A    between atoms: C_14  and  C_15 
REMARK    6  A    between atoms: C_23  and  C_24 
ROOT
HETATM    1  C   UNL     1      39.815 -14.971   1.559  1.00  0.00     0.148 A 
HETATM    2  N   UNL     1      39.769 -15.034   2.912  1.00  0.00    -0.165 NA
HETATM    3  N   UNL     1      40.949 -15.597   3.233  1.00  0.00    -0.240 N 
HETATM    4  C   UNL     1      41.703 -15.967   2.155  1.00  0.00     0.123 A 
HETATM    5  N   UNL     1      42.848 -16.660   2.310  1.00  0.00    -0.366 N 
HETATM    6  C   UNL     1      43.202 -17.318   3.569  1.00  0.00     0.118 C 
HETATM    7  C   UNL     1      42.038 -17.289   4.584  1.00  0.00     0.066 C 
HETATM    8  C   UNL     1      41.307 -15.938   4.595  1.00  0.00     0.221 C 
HETATM    9  C   UNL     1      41.030 -15.513   1.054  1.00  0.00     0.089 A 
HETATM   10  H   UNL     1      43.416 -16.923   1.505  1.00  0.00     0.161 HD
ENDROOT
BRANCH   1  11
HETATM   11  C   UNL     1      38.698 -14.443   0.756  1.00  0.00     0.276 C 
HETATM   12  N   UNL     1      39.127 -13.920  -0.448  1.00  0.00    -0.322 N 
HETATM   13  H   UNL     1      40.127 -14.028  -0.602  1.00  0.00     0.169 HD
HETATM   14  O   UNL     1      37.544 -14.483   1.171  1.00  0.00    -0.266 OA
BRANCH  12  15
HETATM   15  C   UNL     1      38.365 -13.282  -1.440  1.00  0.00     0.035 A 
HETATM   16  C   UNL     1      37.913 -13.918  -2.599  1.00  0.00     0.039 A 
HETATM   17  C   UNL     1      37.150 -13.227  -3.557  1.00  0.00    -0.028 A 
HETATM   18  C   UNL     1      36.862 -11.872  -3.344  1.00  0.00     0.010 A 
HETATM   19  C   UNL     1      37.300 -11.232  -2.186  1.00  0.00     0.003 A 
HETATM   20  C   UNL     1      38.043 -11.936  -1.237  1.00  0.00     0.029 A 
BRANCH  17  21
HETATM   21  C   UNL     1      36.694 -13.948  -4.808  1.00  0.00     0.147 C 
HETATM   22  C   UNL     1      35.194 -14.203  -4.802  1.00  0.00     0.044 C 
BRANCH  21  23
HETATM   23  O   UNL     1      37.375 -15.193  -4.949  1.00  0.00    -0.391 OA
HETATM   24  H   UNL     1      37.541 -15.522  -4.049  1.00  0.00     0.210 HD
ENDBRANCH  21  23
ENDBRANCH  17  21
ENDBRANCH  12  15
ENDBRANCH   1  11
BRANCH   8  25
HETATM   25  C   UNL     1      42.128 -14.830   5.212  1.00  0.00     0.409 C 
HETATM   26  F   UNL     1      41.378 -13.996   5.967  1.00  0.00    -0.169 F 
HETATM   27  F   UNL     1      43.063 -15.365   6.041  1.00  0.00    -0.169 F 
HETATM   28  F   UNL     1      42.796 -14.083   4.311  1.00  0.00    -0.169 F 
ENDBRANCH   8  25
BRANCH   6  29
HETATM   29  C   UNL     1      43.619 -18.752   3.279  1.00  0.00    -0.035 A 
HETATM   30  C   UNL     1      43.206 -19.387   2.097  1.00  0.00     0.012 A 
HETATM   31  C   UNL     1      43.595 -20.702   1.828  1.00  0.00     0.043 A 
HETATM   32  C   UNL     1      44.397 -21.384   2.736  1.00  0.00     0.116 A 
HETATM   33  F   UNL     1      44.765 -22.644   2.473  1.00  0.00    -0.206 F 
HETATM   34  C   UNL     1      44.821 -20.778   3.910  1.00  0.00     0.043 A 
HETATM   35  C   UNL     1      44.436 -19.464   4.180  1.00  0.00     0.012 A 
ENDBRANCH   6  29
TORSDOF 6
ENDMDL
MODEL 3
REMARK VINA RESULT:      -9.2      2.383      4.994
REMARK  6 active torsions:
REMARK  status: ('A' for Active; 'I' for Inactive)
REMARK    1  A    between atoms: C_2  and  O_3 
REMARK    2  A    between atoms: C_2  and  C_4 
REMARK    3  A    between atoms: C_6  and  N_7 
REMARK       I    between atoms: N_7  and  C_8 
REMARK    4  A    between atoms: C_8  and  C_9 
REMARK    5  A    between atoms: C_14  and  C_15 
REMARK    6  A    between atoms: C_23  and  C_24 
ROOT
HETATM    1  C   UNL     1      43.513 -15.153   5.784  1.00  0.00     0.148 A 
HETATM    2  N   UNL     1      43.074 -16.417   5.568  1.00  0.00    -0.165 NA
HETATM    3  N   UNL     1      42.751 -16.410   4.261  1.00  0.00    -0.240 N 
HETATM    4  C   UNL     1      42.886 -15.191   3.659  1.00  0.00     0.123 A 
HETATM    5  N   UNL     1      42.480 -14.992   2.389  1.00  0.00    -0.366 N 
HETATM    6  C   UNL     1      41.611 -15.937   1.687  1.00  0.00     0.118 C 
HETATM    7  C   UNL     1      41.075 -17.039   2.627  1.00  0.00     0.066 C 
HETATM    8  C   UNL     1      42.150 -17.550   3.599  1.00  0.00     0.221 C 
HETATM    9  C   UNL     1      43.444 -14.369   4.599  1.00  0.00     0.089 A 
HETATM   10  H   UNL     1      42.594 -14.084   1.938  1.00  0.00     0.161 HD
ENDROOT
BRANCH   1  11
HETATM   11  C   UNL     1      43.949 -14.687   7.112  1.00  0.00     0.276 C 
HETATM   12  N   UNL     1      43.966 -13.308   7.197  1.00  0.00    -0.322 N 
HETATM   13  H   UNL     1      43.632 -12.848   6.353  1.00  0.00     0.169 HD
HETATM   14  O   UNL     1      44.258 -15.481   7.994  1.00  0.00    -0.266 OA
BRANCH  12  15
HETATM   15  C   UNL     1      44.378 -12.508   8.275  1.00  0.00     0.035 A 
HETATM   16  C   UNL     1      43.506 -12.001   9.242  1.00  0.00     0.039 A 
HETATM   17  C   UNL     1      43.978 -11.207  10.302  1.00  0.00    -0.028 A 
HETATM   18  C   UNL     1      45.345 -10.909  10.367  1.00  0.00     0.010 A 
HETATM   19  C   UNL     1      46.224 -11.419   9.414  1.00  0.00     0.003 A 
HETATM   20  C   UNL     1      45.742 -12.219   8.376  1.00  0.00     0.029 A 
BRANCH  17  21
HETATM   21  C   UNL     1      42.997 -10.663  11.319  1.00  0.00     0.147 C 
HETATM   22  C   UNL     1      43.702  -9.938  12.457  1.00  0.00     0.044 C 
BRANCH  21  23
HETATM   23  O   UNL     1      42.199 -11.713  11.863  1.00  0.00    -0.391 OA
HETATM   24  H   UNL     1      42.620 -12.548  11.594  1.00  0.00     0.210 HD
ENDBRANCH  21  23
ENDBRANCH  17  21
ENDBRANCH  12  15
ENDBRANCH   1  11
BRANCH   8  25
HETATM   25  C   UNL     1      43.213 -18.378   2.917  1.00  0.00     0.409 C 
HETATM   26  F   UNL     1      43.716 -19.336   3.728  1.00  0.00    -0.169 F 
HETATM   27  F   UNL     1      42.672 -19.023   1.849  1.00  0.00    -0.169 F 
HETATM   28  F   UNL     1      44.247 -17.653   2.444  1.00  0.00    -0.169 F 
ENDBRANCH   8  25
BRANCH   6  29
HETATM   29  C   UNL     1      40.459 -15.173   1.052  1.00  0.00    -0.035 A 
HETATM   30  C   UNL     1      40.602 -14.602  -0.223  1.00  0.00     0.012 A 
HETATM   31  C   UNL     1      39.541 -13.906  -0.809  1.00  0.00     0.043 A 
HETATM   32  C   UNL     1      38.336 -13.781  -0.126  1.00  0.00     0.116 A 
HETATM   33  F   UNL     1      37.324 -13.111  -0.691  1.00  0.00    -0.206 F 
HETATM   34  C   UNL     1      38.168 -14.339   1.134  1.00  0.00     0.043 A 
HETATM   35  C   UNL     1      39.225 -15.037   1.720  1.00  0.00     0.012 A 
ENDBRANCH   6  29
TORSDOF 6
ENDMDL
MODEL 4
REMARK VINA RESULT:      -9.0      3.215      3.957
REMARK  6 active torsions:
REMARK  status: ('A' for Active; 'I' for Inactive)
REMARK    1  A    between atoms: C_2  and  O_3 
REMARK    2  A    between atoms: C_2  and  C_4 
REMARK    3  A    between atoms: C_6  and  N_7 
REMARK       I    between atoms: N_7  and  C_8 
REMARK    4  A    between atoms: C_8  and  C_9 
REMARK    5  A    between atoms: C_14  and  C_15 
REMARK    6  A    between atoms: C_23  and  C_24 
ROOT
HETATM    1  C   UNL     1      40.574 -12.868   5.582  1.00  0.00     0.148 A 
HETATM    2  N   UNL     1      40.583 -12.626   4.248  1.00  0.00    -0.165 NA
HETATM    3  N   UNL     1      40.516 -13.859   3.713  1.00  0.00    -0.240 N 
HETATM    4  C   UNL     1      40.546 -14.870   4.632  1.00  0.00     0.123 A 
HETATM    5  N   UNL     1      40.617 -16.160   4.248  1.00  0.00    -0.366 N 
HETATM    6  C   UNL     1      40.970 -16.552   2.883  1.00  0.00     0.118 C 
HETATM    7  C   UNL     1      41.435 -15.348   2.036  1.00  0.00     0.066 C 
HETATM    8  C   UNL     1      40.581 -14.095   2.285  1.00  0.00     0.221 C 
HETATM    9  C   UNL     1      40.514 -14.263   5.857  1.00  0.00     0.089 A 
HETATM   10  H   UNL     1      40.627 -16.913   4.936  1.00  0.00     0.161 HD
ENDROOT
BRANCH   1  11
HETATM   11  C   UNL     1      40.669 -11.787   6.579  1.00  0.00     0.276 C 
HETATM   12  N   UNL     1      39.848 -12.013   7.667  1.00  0.00    -0.322 N 
HETATM   13  H   UNL     1      39.356 -12.903   7.624  1.00  0.00     0.169 HD
HETATM   14  O   UNL     1      41.401 -10.819   6.399  1.00  0.00    -0.266 OA
BRANCH  12  15
HETATM   15  C   UNL     1      39.628 -11.184   8.779  1.00  0.00     0.035 A 
HETATM   16  C   UNL     1      40.022 -11.510  10.079  1.00  0.00     0.039 A 
HETATM   17  C   UNL     1      39.778 -10.636  11.153  1.00  0.00    -0.028 A 
HETATM   18  C   UNL     1      39.109  -9.430  10.906  1.00  0.00     0.010 A 
HETATM   19  C   UNL     1      38.722  -9.091   9.610  1.00  0.00     0.003 A 
HETATM   20  C   UNL     1      38.986  -9.963   8.552  1.00  0.00     0.029 A 
BRANCH  17  21
HETATM   21  C   UNL     1      40.204 -11.035  12.550  1.00  0.00     0.147 C 
HETATM   22  C   UNL     1      41.710 -10.916  12.740  1.00  0.00     0.044 C 
BRANCH  21  23
HETATM   23  O   UNL     1      39.806 -12.374  12.837  1.00  0.00    -0.391 OA
HETATM   24  H   UNL     1      40.617 -12.912  12.832  1.00  0.00     0.210 HD
ENDBRANCH  21  23
ENDBRANCH  17  21
ENDBRANCH  12  15
ENDBRANCH   1  11
BRANCH   8  25
HETATM   25  C   UNL     1      39.189 -14.210   1.710  1.00  0.00     0.409 C 
HETATM   26  F   UNL     1      38.400 -13.172   2.068  1.00  0.00    -0.169 F 
HETATM   27  F   UNL     1      39.255 -14.193   0.352  1.00  0.00    -0.169 F 
HETATM   28  F   UNL     1      38.553 -15.349   2.049  1.00  0.00    -0.169 F 
ENDBRANCH   8  25
BRANCH   6  29
HETATM   29  C   UNL     1      42.058 -17.615   2.938  1.00  0.00    -0.035 A 
HETATM   30  C   UNL     1      42.611 -18.003   4.170  1.00  0.00     0.012 A 
HETATM   31  C   UNL     1      43.605 -18.983   4.221  1.00  0.00     0.043 A 
HETATM   32  C   UNL     1      44.048 -19.579   3.045  1.00  0.00     0.116 A 
HETATM   33  F   UNL     1      45.002 -20.517   3.100  1.00  0.00    -0.206 F 
HETATM   34  C   UNL     1      43.515 -19.217   1.816  1.00  0.00     0.043 A 
HETATM   35  C   UNL     1      42.521 -18.239   1.762  1.00  0.00     0.012 A 
ENDBRANCH   6  29
TORSDOF 6
ENDMDL
MODEL 5
REMARK VINA RESULT:      -9.0      4.595      7.725
REMARK  6 active torsions:
REMARK  status: ('A' for Active; 'I' for Inactive)
REMARK    1  A    between atoms: C_2  and  O_3 
REMARK    2  A    between atoms: C_2  and  C_4 
REMARK    3  A    between atoms: C_6  and  N_7 
REMARK       I    between atoms: N_7  and  C_8 
REMARK    4  A    between atoms: C_8  and  C_9 
REMARK    5  A    between atoms: C_14  and  C_15 
REMARK    6  A    between atoms: C_23  and  C_24 
ROOT
HETATM    1  C   UNL     1      41.617 -15.144   1.763  1.00  0.00     0.148 A 
HETATM    2  N   UNL     1      40.872 -15.427   2.860  1.00  0.00    -0.165 NA
HETATM    3  N   UNL     1      41.703 -16.174   3.610  1.00  0.00    -0.240 N 
HETATM    4  C   UNL     1      42.902 -16.446   3.014  1.00  0.00     0.123 A 
HETATM    5  N   UNL     1      43.788 -17.288   3.582  1.00  0.00    -0.366 N 
HETATM    6  C   UNL     1      43.424 -18.185   4.680  1.00  0.00     0.118 C 
HETATM    7  C   UNL     1      41.903 -18.187   4.946  1.00  0.00     0.066 C 
HETATM    8  C   UNL     1      41.294 -16.779   4.862  1.00  0.00     0.221 C 
HETATM    9  C   UNL     1      42.908 -15.737   1.845  1.00  0.00     0.089 A 
HETATM   10  H   UNL     1      44.688 -17.479   3.141  1.00  0.00     0.161 HD
ENDROOT
BRANCH   1  11
HETATM   11  C   UNL     1      41.089 -14.359   0.633  1.00  0.00     0.276 C 
HETATM   12  N   UNL     1      42.057 -14.108  -0.320  1.00  0.00    -0.322 N 
HETATM   13  H   UNL     1      42.953 -14.543  -0.110  1.00  0.00     0.169 HD
HETATM   14  O   UNL     1      39.919 -13.992   0.607  1.00  0.00    -0.266 OA
BRANCH  12  15
HETATM   15  C   UNL     1      41.944 -13.349  -1.495  1.00  0.00     0.035 A 
HETATM   16  C   UNL     1      42.456 -12.056  -1.635  1.00  0.00     0.039 A 
HETATM   17  C   UNL     1      42.315 -11.345  -2.840  1.00  0.00    -0.028 A 
HETATM   18  C   UNL     1      41.631 -11.947  -3.905  1.00  0.00     0.010 A 
HETATM   19  C   UNL     1      41.127 -13.240  -3.778  1.00  0.00     0.003 A 
HETATM   20  C   UNL     1      41.288 -13.938  -2.580  1.00  0.00     0.029 A 
BRANCH  17  21
HETATM   21  C   UNL     1      42.868  -9.939  -2.945  1.00  0.00     0.147 C 
HETATM   22  C   UNL     1      43.546  -9.498  -1.656  1.00  0.00     0.044 C 
BRANCH  21  23
HETATM   23  O   UNL     1      41.832  -9.012  -3.264  1.00  0.00    -0.391 OA
HETATM   24  H   UNL     1      41.750  -8.415  -2.501  1.00  0.00     0.210 HD
ENDBRANCH  21  23
ENDBRANCH  17  21
ENDBRANCH  12  15
ENDBRANCH   1  11
BRANCH   8  25
HETATM   25  C   UNL     1      41.692 -15.897   6.022  1.00  0.00     0.409 C 
HETATM   26  F   UNL     1      40.700 -15.054   6.389  1.00  0.00    -0.169 F 
HETATM   27  F   UNL     1      41.962 -16.668   7.108  1.00  0.00    -0.169 F 
HETATM   28  F   UNL     1      42.796 -15.159   5.791  1.00  0.00    -0.169 F 
ENDBRANCH   8  25
BRANCH   6  29
HETATM   29  C   UNL     1      43.909 -19.590   4.354  1.00  0.00    -0.035 A 
HETATM   30  C   UNL     1      44.331 -20.452   5.379  1.00  0.00     0.012 A 
HETATM   31  C   UNL     1      44.770 -21.744   5.080  1.00  0.00     0.043 A 
HETATM   32  C   UNL     1      44.787 -22.179   3.759  1.00  0.00     0.116 A 
HETATM   33  F   UNL     1      45.211 -23.418   3.478  1.00  0.00    -0.206 F 
HETATM   34  C   UNL     1      44.372 -21.348   2.728  1.00  0.00     0.043 A 
HETATM   35  C   UNL     1      43.930 -20.058   3.024  1.00  0.00     0.012 A 
ENDBRANCH   6  29
TORSDOF 6
ENDMDL
MODEL 6
REMARK VINA RESULT:      -9.0      4.031      9.399
REMARK  6 active torsions:
REMARK  status: ('A' for Active; 'I' for Inactive)
REMARK    1  A    between atoms: C_2  and  O_3 
REMARK    2  A    between atoms: C_2  and  C_4 
REMARK    3  A    between atoms: C_6  and  N_7 
REMARK       I    between atoms: N_7  and  C_8 
REMARK    4  A    between atoms: C_8  and  C_9 
REMARK    5  A    between atoms: C_14  and  C_15 
REMARK    6  A    between atoms: C_23  and  C_24 
ROOT
HETATM    1  C   UNL     1      41.572 -15.061   5.482  1.00  0.00     0.148 A 
HETATM    2  N   UNL     1      40.364 -14.460   5.608  1.00  0.00    -0.165 NA
HETATM    3  N   UNL     1      40.681 -13.226   6.044  1.00  0.00    -0.240 N 
HETATM    4  C   UNL     1      42.014 -13.040   6.276  1.00  0.00     0.123 A 
HETATM    5  N   UNL     1      42.472 -11.903   6.837  1.00  0.00    -0.366 N 
HETATM    6  C   UNL     1      41.587 -10.946   7.503  1.00  0.00     0.118 C 
HETATM    7  C   UNL     1      40.151 -11.492   7.653  1.00  0.00     0.066 C 
HETATM    8  C   UNL     1      39.678 -12.242   6.399  1.00  0.00     0.221 C 
HETATM    9  C   UNL     1      42.630 -14.187   5.857  1.00  0.00     0.089 A 
HETATM   10  H   UNL     1      43.470 -11.762   6.998  1.00  0.00     0.161 HD
ENDROOT
BRANCH   1  11
HETATM   11  C   UNL     1      41.712 -16.464   5.054  1.00  0.00     0.276 C 
HETATM   12  N   UNL     1      42.908 -16.689   4.399  1.00  0.00    -0.322 N 
HETATM   13  H   UNL     1      43.509 -15.868   4.363  1.00  0.00     0.169 HD
HETATM   14  O   UNL     1      40.830 -17.287   5.274  1.00  0.00    -0.266 OA
BRANCH  12  15
HETATM   15  C   UNL     1      43.363 -17.875   3.802  1.00  0.00     0.035 A 
HETATM   16  C   UNL     1      43.897 -18.949   4.520  1.00  0.00     0.039 A 
HETATM   17  C   UNL     1      44.334 -20.114   3.866  1.00  0.00    -0.028 A 
HETATM   18  C   UNL     1      44.246 -20.180   2.469  1.00  0.00     0.010 A 
HETATM   19  C   UNL     1      43.705 -19.119   1.746  1.00  0.00     0.003 A 
HETATM   20  C   UNL     1      43.262 -17.974   2.411  1.00  0.00     0.029 A 
BRANCH  17  21
HETATM   21  C   UNL     1      44.923 -21.248   4.679  1.00  0.00     0.147 C 
HETATM   22  C   UNL     1      44.715 -22.597   4.006  1.00  0.00     0.044 C 
BRANCH  21  23
HETATM   23  O   UNL     1      44.347 -21.287   5.983  1.00  0.00    -0.391 OA
HETATM   24  H   UNL     1      44.688 -20.511   6.460  1.00  0.00     0.210 HD
ENDBRANCH  21  23
ENDBRANCH  17  21
ENDBRANCH  12  15
ENDBRANCH   1  11
BRANCH   8  25
HETATM   25  C   UNL     1      39.412 -11.322   5.230  1.00  0.00     0.409 C 
HETATM   26  F   UNL     1      38.345 -11.716   4.499  1.00  0.00    -0.169 F 
HETATM   27  F   UNL     1      39.126 -10.075   5.689  1.00  0.00    -0.169 F 
HETATM   28  F   UNL     1      40.460 -11.191   4.393  1.00  0.00    -0.169 F 
ENDBRANCH   8  25
BRANCH   6  29
HETATM   29  C   UNL     1      42.169 -10.597   8.865  1.00  0.00    -0.035 A 
HETATM   30  C   UNL     1      43.441 -11.063   9.235  1.00  0.00     0.012 A 
HETATM   31  C   UNL     1      43.977 -10.738  10.483  1.00  0.00     0.043 A 
HETATM   32  C   UNL     1      43.248  -9.945  11.363  1.00  0.00     0.116 A 
HETATM   33  F   UNL     1      43.767  -9.638  12.558  1.00  0.00    -0.206 F 
HETATM   34  C   UNL     1      41.990  -9.469  11.020  1.00  0.00     0.043 A 
HETATM   35  C   UNL     1      41.453  -9.791   9.773  1.00  0.00     0.012 A 
ENDBRANCH   6  29
TORSDOF 6
ENDMDL
MODEL 7
REMARK VINA RESULT:      -8.9      4.559      7.798
REMARK  6 active torsions:
REMARK  status: ('A' for Active; 'I' for Inactive)
REMARK    1  A    between atoms: C_2  and  O_3 
REMARK    2  A    between atoms: C_2  and  C_4 
REMARK    3  A    between atoms: C_6  and  N_7 
REMARK       I    between atoms: N_7  and  C_8 
REMARK    4  A    between atoms: C_8  and  C_9 
REMARK    5  A    between atoms: C_14  and  C_15 
REMARK    6  A    between atoms: C_23  and  C_24 
ROOT
HETATM    1  C   UNL     1      41.936 -13.688   2.319  1.00  0.00     0.148 A 
HETATM    2  N   UNL     1      40.958 -14.221   3.093  1.00  0.00    -0.165 NA
HETATM    3  N   UNL     1      41.582 -15.240   3.714  1.00  0.00    -0.240 N 
HETATM    4  C   UNL     1      42.875 -15.430   3.315  1.00  0.00     0.123 A 
HETATM    5  N   UNL     1      43.589 -16.488   3.748  1.00  0.00    -0.366 N 
HETATM    6  C   UNL     1      42.966 -17.640   4.402  1.00  0.00     0.118 C 
HETATM    7  C   UNL     1      41.424 -17.576   4.342  1.00  0.00     0.066 C 
HETATM    8  C   UNL     1      40.889 -16.159   4.595  1.00  0.00     0.221 C 
HETATM    9  C   UNL     1      43.159 -14.399   2.463  1.00  0.00     0.089 A 
HETATM   10  H   UNL     1      44.558 -16.621   3.459  1.00  0.00     0.161 HD
ENDROOT
BRANCH   1  11
HETATM   11  C   UNL     1      41.693 -12.546   1.420  1.00  0.00     0.276 C 
HETATM   12  N   UNL     1      42.193 -12.769   0.152  1.00  0.00    -0.322 N 
HETATM   13  H   UNL     1      42.599 -13.695   0.036  1.00  0.00     0.169 HD
HETATM   14  O   UNL     1      41.118 -11.537   1.816  1.00  0.00    -0.266 OA
BRANCH  12  15
HETATM   15  C   UNL     1      42.203 -11.895  -0.946  1.00  0.00     0.035 A 
HETATM   16  C   UNL     1      41.268 -11.943  -1.984  1.00  0.00     0.039 A 
HETATM   17  C   UNL     1      41.326 -11.037  -3.057  1.00  0.00    -0.028 A 
HETATM   18  C   UNL     1      42.356 -10.087  -3.086  1.00  0.00     0.010 A 
HETATM   19  C   UNL     1      43.287 -10.025  -2.050  1.00  0.00     0.003 A 
HETATM   20  C   UNL     1      43.206 -10.921  -0.983  1.00  0.00     0.029 A 
BRANCH  17  21
HETATM   21  C   UNL     1      40.305 -11.134  -4.171  1.00  0.00     0.147 C 
HETATM   22  C   UNL     1      39.222 -10.072  -4.042  1.00  0.00     0.044 C 
BRANCH  21  23
HETATM   23  O   UNL     1      39.692 -12.422  -4.182  1.00  0.00    -0.391 OA
HETATM   24  H   UNL     1      38.824 -12.319  -3.753  1.00  0.00     0.210 HD
ENDBRANCH  21  23
ENDBRANCH  17  21
ENDBRANCH  12  15
ENDBRANCH   1  11
BRANCH   8  25
HETATM   25  C   UNL     1      41.044 -15.720   6.032  1.00  0.00     0.409 C 
HETATM   26  F   UNL     1      40.129 -14.790   6.386  1.00  0.00    -0.169 F 
HETATM   27  F   UNL     1      40.850 -16.784   6.856  1.00  0.00    -0.169 F 
HETATM   28  F   UNL     1      42.265 -15.229   6.321  1.00  0.00    -0.169 F 
ENDBRANCH   8  25
BRANCH   6  29
HETATM   29  C   UNL     1      43.471 -18.916   3.745  1.00  0.00    -0.035 A 
HETATM   30  C   UNL     1      43.086 -19.242   2.435  1.00  0.00     0.012 A 
HETATM   31  C   UNL     1      43.555 -20.411   1.830  1.00  0.00     0.043 A 
HETATM   32  C   UNL     1      44.411 -21.255   2.530  1.00  0.00     0.116 A 
HETATM   33  F   UNL     1      44.856 -22.375   1.946  1.00  0.00    -0.206 F 
HETATM   34  C   UNL     1      44.809 -20.954   3.825  1.00  0.00     0.043 A 
HETATM   35  C   UNL     1      44.344 -19.786   4.430  1.00  0.00     0.012 A 
ENDBRANCH   6  29
TORSDOF 6
ENDMDL
MODEL 8
REMARK VINA RESULT:      -8.9      4.453      6.740
REMARK  6 active torsions:
REMARK  status: ('A' for Active; 'I' for Inactive)
REMARK    1  A    between atoms: C_2  and  O_3 
REMARK    2  A    between atoms: C_2  and  C_4 
REMARK    3  A    between atoms: C_6  and  N_7 
REMARK       I    between atoms: N_7  and  C_8 
REMARK    4  A    between atoms: C_8  and  C_9 
REMARK    5  A    between atoms: C_14  and  C_15 
REMARK    6  A    between atoms: C_23  and  C_24 
ROOT
HETATM    1  C   UNL     1      41.205 -14.819   5.213  1.00  0.00     0.148 A 
HETATM    2  N   UNL     1      41.254 -15.620   6.305  1.00  0.00    -0.165 NA
HETATM    3  N   UNL     1      42.265 -16.462   6.022  1.00  0.00    -0.240 N 
HETATM    4  C   UNL     1      42.804 -16.290   4.778  1.00  0.00     0.123 A 
HETATM    5  N   UNL     1      43.735 -17.139   4.298  1.00  0.00    -0.366 N 
HETATM    6  C   UNL     1      44.003 -18.438   4.916  1.00  0.00     0.118 C 
HETATM    7  C   UNL     1      42.975 -18.780   6.016  1.00  0.00     0.066 C 
HETATM    8  C   UNL     1      42.630 -17.564   6.889  1.00  0.00     0.221 C 
HETATM    9  C   UNL     1      42.188 -15.188   4.252  1.00  0.00     0.089 A 
HETATM   10  H   UNL     1      44.145 -17.000   3.374  1.00  0.00     0.161 HD
ENDROOT
BRANCH   1  11
HETATM   11  C   UNL     1      40.204 -13.747   5.067  1.00  0.00     0.276 C 
HETATM   12  N   UNL     1      40.240 -13.173   3.810  1.00  0.00    -0.322 N 
HETATM   13  H   UNL     1      40.910 -13.614   3.184  1.00  0.00     0.169 HD
HETATM   14  O   UNL     1      39.464 -13.439   5.995  1.00  0.00    -0.266 OA
BRANCH  12  15
HETATM   15  C   UNL     1      39.484 -12.094   3.325  1.00  0.00     0.035 A 
HETATM   16  C   UNL     1      38.486 -12.221   2.355  1.00  0.00     0.039 A 
HETATM   17  C   UNL     1      37.759 -11.103   1.910  1.00  0.00    -0.028 A 
HETATM   18  C   UNL     1      38.063  -9.843   2.441  1.00  0.00     0.010 A 
HETATM   19  C   UNL     1      39.049  -9.708   3.417  1.00  0.00     0.003 A 
HETATM   20  C   UNL     1      39.752 -10.830   3.859  1.00  0.00     0.029 A 
BRANCH  17  21
HETATM   21  C   UNL     1      36.698 -11.280   0.844  1.00  0.00     0.147 C 
HETATM   22  C   UNL     1      35.408 -10.555   1.201  1.00  0.00     0.044 C 
BRANCH  21  23
HETATM   23  O   UNL     1      36.412 -12.663   0.642  1.00  0.00    -0.391 OA
HETATM   24  H   UNL     1      37.265 -13.129   0.670  1.00  0.00     0.210 HD
ENDBRANCH  21  23
ENDBRANCH  17  21
ENDBRANCH  12  15
ENDBRANCH   1  11
BRANCH   8  25
HETATM   25  C   UNL     1      43.762 -17.156   7.803  1.00  0.00     0.409 C 
HETATM   26  F   UNL     1      43.328 -16.816   9.037  1.00  0.00    -0.169 F 
HETATM   27  F   UNL     1      44.613 -18.204   7.968  1.00  0.00    -0.169 F 
HETATM   28  F   UNL     1      44.501 -16.133   7.329  1.00  0.00    -0.169 F 
ENDBRANCH   8  25
BRANCH   6  29
HETATM   29  C   UNL     1      44.002 -19.510   3.835  1.00  0.00    -0.035 A 
HETATM   30  C   UNL     1      44.637 -20.743   4.057  1.00  0.00     0.012 A 
HETATM   31  C   UNL     1      44.630 -21.729   3.067  1.00  0.00     0.043 A 
HETATM   32  C   UNL     1      43.989 -21.489   1.857  1.00  0.00     0.116 A 
HETATM   33  F   UNL     1      43.987 -22.437   0.912  1.00  0.00    -0.206 F 
HETATM   34  C   UNL     1      43.351 -20.280   1.615  1.00  0.00     0.043 A 
HETATM   35  C   UNL     1      43.354 -19.294   2.602  1.00  0.00     0.012 A 
ENDBRANCH   6  29
TORSDOF 6
ENDMDL
MODEL 9
REMARK VINA RESULT:      -8.8      4.666      8.697
REMARK  6 active torsions:
REMARK  status: ('A' for Active; 'I' for Inactive)
REMARK    1  A    between atoms: C_2  and  O_3 
REMARK    2  A    between atoms: C_2  and  C_4 
REMARK    3  A    between atoms: C_6  and  N_7 
REMARK       I    between atoms: N_7  and  C_8 
REMARK    4  A    between atoms: C_8  and  C_9 
REMARK    5  A    between atoms: C_14  and  C_15 
REMARK    6  A    between atoms: C_23  and  C_24 
ROOT
HETATM    1  C   UNL     1      39.805 -14.961   1.471  1.00  0.00     0.148 A 
HETATM    2  N   UNL     1      39.717 -15.033   2.822  1.00  0.00    -0.165 NA
HETATM    3  N   UNL     1      40.890 -15.592   3.174  1.00  0.00    -0.240 N 
HETATM    4  C   UNL     1      41.678 -15.950   2.118  1.00  0.00     0.123 A 
HETATM    5  N   UNL     1      42.823 -16.638   2.303  1.00  0.00    -0.366 N 
HETATM    6  C   UNL     1      43.141 -17.302   3.568  1.00  0.00     0.118 C 
HETATM    7  C   UNL     1      41.947 -17.287   4.547  1.00  0.00     0.066 C 
HETATM    8  C   UNL     1      41.208 -15.940   4.545  1.00  0.00     0.221 C 
HETATM    9  C   UNL     1      41.037 -15.493   1.000  1.00  0.00     0.089 A 
HETATM   10  H   UNL     1      43.416 -16.893   1.514  1.00  0.00     0.161 HD
ENDROOT
BRANCH   1  11
HETATM   11  C   UNL     1      38.709 -14.434   0.638  1.00  0.00     0.276 C 
HETATM   12  N   UNL     1      39.070 -14.336  -0.692  1.00  0.00    -0.322 N 
HETATM   13  H   UNL     1      40.007 -14.686  -0.882  1.00  0.00     0.169 HD
HETATM   14  O   UNL     1      37.628 -14.126   1.130  1.00  0.00    -0.266 OA
BRANCH  12  15
HETATM   15  C   UNL     1      38.318 -13.827  -1.763  1.00  0.00     0.035 A 
HETATM   16  C   UNL     1      37.905 -12.496  -1.856  1.00  0.00     0.039 A 
HETATM   17  C   UNL     1      37.156 -12.043  -2.956  1.00  0.00    -0.028 A 
HETATM   18  C   UNL     1      36.806 -12.956  -3.959  1.00  0.00     0.010 A 
HETATM   19  C   UNL     1      37.223 -14.284  -3.880  1.00  0.00     0.003 A 
HETATM   20  C   UNL     1      37.979 -14.715  -2.789  1.00  0.00     0.029 A 
BRANCH  17  21
HETATM   21  C   UNL     1      36.712 -10.596  -3.011  1.00  0.00     0.147 C 
HETATM   22  C   UNL     1      37.554  -9.709  -2.104  1.00  0.00     0.044 C 
BRANCH  21  23
HETATM   23  O   UNL     1      35.341 -10.474  -2.635  1.00  0.00    -0.391 OA
HETATM   24  H   UNL     1      35.033 -11.370  -2.417  1.00  0.00     0.210 HD
ENDBRANCH  21  23
ENDBRANCH  17  21
ENDBRANCH  12  15
ENDBRANCH   1  11
BRANCH   8  25
HETATM   25  C   UNL     1      42.003 -14.832   5.194  1.00  0.00     0.409 C 
HETATM   26  F   UNL     1      41.212 -13.930   5.816  1.00  0.00    -0.169 F 
HETATM   27  F   UNL     1      42.817 -15.355   6.149  1.00  0.00    -0.169 F 
HETATM   28  F   UNL     1      42.800 -14.162   4.337  1.00  0.00    -0.169 F 
ENDBRANCH   8  25
BRANCH   6  29
HETATM   29  C   UNL     1      43.576 -18.732   3.282  1.00  0.00    -0.035 A 
HETATM   30  C   UNL     1      43.185 -19.369   2.092  1.00  0.00     0.012 A 
HETATM   31  C   UNL     1      43.590 -20.679   1.827  1.00  0.00     0.043 A 
HETATM   32  C   UNL     1      44.385 -21.356   2.745  1.00  0.00     0.116 A 
HETATM   33  F   UNL     1      44.768 -22.613   2.485  1.00  0.00    -0.206 F 
HETATM   34  C   UNL     1      44.787 -20.748   3.926  1.00  0.00     0.043 A 
HETATM   35  C   UNL     1      44.387 -19.438   4.193  1.00  0.00     0.012 A 
ENDBRANCH   6  29
TORSDOF 6
ENDMDL
MODEL 10
REMARK VINA RESULT:      -8.8      5.497      9.498
REMARK  6 active torsions:
REMARK  status: ('A' for Active; 'I' for Inactive)
REMARK    1  A    between atoms: C_2  and  O_3 
REMARK    2  A    between atoms: C_2  and  C_4 
REMARK    3  A    between atoms: C_6  and  N_7 
REMARK       I    between atoms: N_7  and  C_8 
REMARK    4  A    between atoms: C_8  and  C_9 
REMARK    5  A    between atoms: C_14  and  C_15 
REMARK    6  A    between atoms: C_23  and  C_24 
ROOT
HETATM    1  C   UNL     1      40.822 -15.487   0.473  1.00  0.00     0.148 A 
HETATM    2  N   UNL     1      41.572 -15.428  -0.654  1.00  0.00    -0.165 NA
HETATM    3  N   UNL     1      40.968 -14.462  -1.372  1.00  0.00    -0.240 N 
HETATM    4  C   UNL     1      39.833 -13.965  -0.797  1.00  0.00     0.123 A 
HETATM    5  N   UNL     1      39.047 -13.088  -1.452  1.00  0.00    -0.366 N 
HETATM    6  C   UNL     1      39.170 -12.847  -2.891  1.00  0.00     0.118 C 
HETATM    7  C   UNL     1      40.138 -13.844  -3.564  1.00  0.00     0.066 C 
HETATM    8  C   UNL     1      41.389 -14.108  -2.713  1.00  0.00     0.221 C 
HETATM    9  C   UNL     1      39.746 -14.557   0.432  1.00  0.00     0.089 A 
HETATM   10  H   UNL     1      38.207 -12.708  -1.016  1.00  0.00     0.161 HD
ENDROOT
BRANCH   1  11
HETATM   11  C   UNL     1      41.100 -16.449   1.554  1.00  0.00     0.276 C 
HETATM   12  N   UNL     1      42.452 -16.702   1.688  1.00  0.00    -0.322 N 
HETATM   13  H   UNL     1      43.030 -16.150   1.057  1.00  0.00     0.169 HD
HETATM   14  O   UNL     1      40.192 -16.942   2.215  1.00  0.00    -0.266 OA
BRANCH  12  15
HETATM   15  C   UNL     1      43.088 -17.598   2.561  1.00  0.00     0.035 A 
HETATM   16  C   UNL     1      43.517 -18.874   2.185  1.00  0.00     0.039 A 
HETATM   17  C   UNL     1      44.152 -19.727   3.105  1.00  0.00    -0.028 A 
HETATM   18  C   UNL     1      44.334 -19.287   4.422  1.00  0.00     0.010 A 
HETATM   19  C   UNL     1      43.918 -18.013   4.804  1.00  0.00     0.003 A 
HETATM   20  C   UNL     1      43.303 -17.172   3.875  1.00  0.00     0.029 A 
BRANCH  17  21
HETATM   21  C   UNL     1      44.587 -21.109   2.662  1.00  0.00     0.147 C 
HETATM   22  C   UNL     1      43.641 -21.696   1.624  1.00  0.00     0.044 C 
BRANCH  21  23
HETATM   23  O   UNL     1      44.660 -21.996   3.777  1.00  0.00    -0.391 OA
HETATM   24  H   UNL     1      45.523 -21.840   4.198  1.00  0.00     0.210 HD
ENDBRANCH  21  23
ENDBRANCH  17  21
ENDBRANCH  12  15
ENDBRANCH   1  11
BRANCH   8  25
HETATM   25  C   UNL     1      42.330 -12.926  -2.670  1.00  0.00     0.409 C 
HETATM   26  F   UNL     1      43.625 -13.298  -2.778  1.00  0.00    -0.169 F 
HETATM   27  F   UNL     1      42.076 -12.104  -3.722  1.00  0.00    -0.169 F 
HETATM   28  F   UNL     1      42.208 -12.175  -1.557  1.00  0.00    -0.169 F 
ENDBRANCH   8  25
BRANCH   6  29
HETATM   29  C   UNL     1      37.791 -12.932  -3.528  1.00  0.00    -0.035 A 
HETATM   30  C   UNL     1      37.285 -14.166  -3.964  1.00  0.00     0.012 A 
HETATM   31  C   UNL     1      36.015 -14.245  -4.543  1.00  0.00     0.043 A 
HETATM   32  C   UNL     1      35.249 -13.093  -4.686  1.00  0.00     0.116 A 
HETATM   33  F   UNL     1      34.034 -13.174  -5.243  1.00  0.00    -0.206 F 
HETATM   34  C   UNL     1      35.725 -11.861  -4.259  1.00  0.00     0.043 A 
HETATM   35  C   UNL     1      36.992 -11.780  -3.679  1.00  0.00     0.012 A 
ENDBRANCH   6  29
TORSDOF 6
ENDMDL
