MODEL 1
REMARK VINA RESULT:      -8.8      0.000      0.000
REMARK  8 active torsions:
REMARK  status: ('A' for Active; 'I' for Inactive)
REMARK    1  A    between atoms: C_2  and  C_3 
REMARK    2  A    between atoms: C_4  and  N_5 
REMARK       I    between atoms: N_5  and  C_6 
REMARK    3  A    between atoms: C_6  and  C_7 
REMARK    4  A    between atoms: C_7  and  N_8 
REMARK    5  A    between atoms: C_11  and  C_12 
REMARK       I    between atoms: C_12  and  N_13 
REMARK    6  A    between atoms: N_13  and  C_14 
REMARK    7  A    between atoms: C_15  and  O_16 
REMARK    8  A    between atoms: C_24  and  N_25 
ROOT
HETATM    1  N   UNL     1      41.416 -13.272   4.991  1.00  0.00    -0.252 N 
HETATM    2  N   UNL     1      42.615 -13.208   4.382  1.00  0.00     0.007 NA
HETATM    3  N   UNL     1      42.986 -14.449   4.094  1.00  0.00    -0.151 NA
HETATM    4  C   UNL     1      41.993 -15.307   4.512  1.00  0.00     0.181 A 
HETATM    5  C   UNL     1      40.952 -14.564   5.044  1.00  0.00     0.130 A 
ENDROOT
BRANCH   1   6
HETATM    6  C   UNL     1      40.824 -12.093   5.580  1.00  0.00     0.251 C 
BRANCH   6   7
HETATM    7  C   UNL     1      41.743 -11.391   6.563  1.00  0.00     0.241 C 
HETATM    8  N   UNL     1      42.513 -12.230   7.359  1.00  0.00    -0.325 N 
HETATM    9  H   UNL     1      42.397 -13.229   7.209  1.00  0.00     0.169 HD
HETATM   10  O   UNL     1      41.687 -10.166   6.660  1.00  0.00    -0.271 OA
BRANCH   8  11
HETATM   11  C   UNL     1      43.488 -11.872   8.324  1.00  0.00     0.041 A 
HETATM   12  C   UNL     1      44.765 -12.485   8.280  1.00  0.00    -0.032 A 
HETATM   13  C   UNL     1      45.744 -12.109   9.223  1.00  0.00     0.009 A 
HETATM   14  C   UNL     1      45.474 -11.157  10.201  1.00  0.00     0.001 A 
HETATM   15  C   UNL     1      44.221 -10.564  10.250  1.00  0.00     0.002 A 
HETATM   16  C   UNL     1      43.239 -10.917   9.318  1.00  0.00     0.030 A 
BRANCH  12  17
HETATM   17  C   UNL     1      45.172 -13.507   7.240  1.00  0.00     0.036 C 
HETATM   18  C   UNL     1      44.387 -14.804   7.376  1.00  0.00     0.010 C 
ENDBRANCH  12  17
ENDBRANCH   8  11
ENDBRANCH   6   7
ENDBRANCH   1   6
BRANCH   5  19
HETATM   19  N   UNL     1      39.770 -14.913   5.621  1.00  0.00    -0.285 NA
HETATM   20  H   UNL     1      39.028 -14.202   5.547  1.00  0.00     0.125 HD
HETATM   21  H   UNL     1      39.769 -15.294   6.568  1.00  0.00     0.125 HD
ENDBRANCH   5  19
BRANCH   4  22
HETATM   22  C   UNL     1      42.084 -16.759   4.425  1.00  0.00     0.279 C 
HETATM   23  N   UNL     1      43.327 -17.189   4.015  1.00  0.00    -0.319 N 
HETATM   24  H   UNL     1      44.002 -16.469   3.765  1.00  0.00     0.169 HD
HETATM   25  O   UNL     1      41.126 -17.472   4.711  1.00  0.00    -0.265 OA
BRANCH  23  26
HETATM   26  C   UNL     1      43.816 -18.509   3.917  1.00  0.00     0.069 A 
HETATM   27  C   UNL     1      44.507 -19.020   5.035  1.00  0.00     0.095 A 
HETATM   28  C   UNL     1      44.983 -20.333   5.014  1.00  0.00     0.039 A 
HETATM   29  C   UNL     1      44.784 -21.136   3.888  1.00  0.00     0.009 A 
HETATM   30  C   UNL     1      44.118 -20.633   2.766  1.00  0.00    -0.060 A 
HETATM   31  C   UNL     1      43.866 -21.505   1.572  1.00  0.00     0.048 C 
HETATM   32  C   UNL     1      43.627 -19.320   2.795  1.00  0.00     0.039 A 
BRANCH  27  33
HETATM   33  O   UNL     1      44.644 -18.151   6.093  1.00  0.00    -0.354 OA
HETATM   34  C   UNL     1      44.092 -18.559   7.339  1.00  0.00     0.210 C 
ENDBRANCH  27  33
ENDBRANCH  23  26
ENDBRANCH   4  22
TORSDOF 8
ENDMDL
MODEL 2
REMARK VINA RESULT:      -8.7      1.065      1.413
REMARK  8 active torsions:
REMARK  status: ('A' for Active; 'I' for Inactive)
REMARK    1  A    between atoms: C_2  and  C_3 
REMARK    2  A    between atoms: C_4  and  N_5 
REMARK       I    between atoms: N_5  and  C_6 
REMARK    3  A    between atoms: C_6  and  C_7 
REMARK    4  A    between atoms: C_7  and  N_8 
REMARK    5  A    between atoms: C_11  and  C_12 
REMARK       I    between atoms: C_12  and  N_13 
REMARK    6  A    between atoms: N_13  and  C_14 
REMARK    7  A    between atoms: C_15  and  O_16 
REMARK    8  A    between atoms: C_24  and  N_25 
ROOT
HETATM    1  N   UNL     1      41.435 -12.569   5.657  1.00  0.00    -0.252 N 
HETATM    2  N   UNL     1      42.747 -12.534   5.356  1.00  0.00     0.007 NA
HETATM    3  N   UNL     1      43.121 -13.770   5.049  1.00  0.00    -0.151 NA
HETATM    4  C   UNL     1      42.020 -14.592   5.139  1.00  0.00     0.181 A 
HETATM    5  C   UNL     1      40.915 -13.829   5.478  1.00  0.00     0.130 A 
ENDROOT
BRANCH   1   6
HETATM    6  C   UNL     1      40.770 -11.405   6.196  1.00  0.00     0.251 C 
BRANCH   6   7
HETATM    7  C   UNL     1      41.607 -10.665   7.226  1.00  0.00     0.241 C 
HETATM    8  N   UNL     1      41.796 -11.334   8.428  1.00  0.00    -0.325 N 
HETATM    9  H   UNL     1      41.367 -12.252   8.509  1.00  0.00     0.169 HD
HETATM   10  O   UNL     1      41.976  -9.518   6.978  1.00  0.00    -0.271 OA
BRANCH   8  11
HETATM   11  C   UNL     1      42.562 -10.923   9.549  1.00  0.00     0.041 A 
HETATM   12  C   UNL     1      43.882 -11.414   9.704  1.00  0.00    -0.032 A 
HETATM   13  C   UNL     1      44.654 -10.984  10.803  1.00  0.00     0.009 A 
HETATM   14  C   UNL     1      44.138 -10.097  11.742  1.00  0.00     0.001 A 
HETATM   15  C   UNL     1      42.842  -9.624  11.596  1.00  0.00     0.002 A 
HETATM   16  C   UNL     1      42.064 -10.032  10.508  1.00  0.00     0.030 A 
BRANCH  12  17
HETATM   17  C   UNL     1      44.551 -12.355   8.723  1.00  0.00     0.036 C 
HETATM   18  C   UNL     1      46.048 -12.102   8.622  1.00  0.00     0.010 C 
ENDBRANCH  12  17
ENDBRANCH   8  11
ENDBRANCH   6   7
ENDBRANCH   1   6
BRANCH   5  19
HETATM   19  N   UNL     1      39.615 -14.145   5.725  1.00  0.00    -0.285 NA
HETATM   20  H   UNL     1      39.470 -14.779   6.524  1.00  0.00     0.125 HD
HETATM   21  H   UNL     1      39.017 -14.445   4.954  1.00  0.00     0.125 HD
ENDBRANCH   5  19
BRANCH   4  22
HETATM   22  C   UNL     1      42.065 -16.036   4.941  1.00  0.00     0.279 C 
HETATM   23  N   UNL     1      43.304 -16.476   4.529  1.00  0.00    -0.319 N 
HETATM   24  H   UNL     1      44.009 -15.762   4.352  1.00  0.00     0.169 HD
HETATM   25  O   UNL     1      41.077 -16.734   5.148  1.00  0.00    -0.265 OA
BRANCH  23  26
HETATM   26  C   UNL     1      43.751 -17.801   4.340  1.00  0.00     0.069 A 
HETATM   27  C   UNL     1      44.439 -18.403   5.413  1.00  0.00     0.095 A 
HETATM   28  C   UNL     1      44.875 -19.725   5.302  1.00  0.00     0.039 A 
HETATM   29  C   UNL     1      44.639 -20.448   4.128  1.00  0.00     0.009 A 
HETATM   30  C   UNL     1      43.976 -19.854   3.050  1.00  0.00    -0.060 A 
HETATM   31  C   UNL     1      43.684 -20.639   1.806  1.00  0.00     0.048 C 
HETATM   32  C   UNL     1      43.525 -18.531   3.170  1.00  0.00     0.039 A 
BRANCH  27  33
HETATM   33  O   UNL     1      44.615 -17.609   6.523  1.00  0.00    -0.354 OA
HETATM   34  C   UNL     1      43.926 -17.993   7.707  1.00  0.00     0.210 C 
ENDBRANCH  27  33
ENDBRANCH  23  26
ENDBRANCH   4  22
TORSDOF 8
ENDMDL
MODEL 3
REMARK VINA RESULT:      -8.6      4.372      7.800
REMARK  8 active torsions:
REMARK  status: ('A' for Active; 'I' for Inactive)
REMARK    1  A    between atoms: C_2  and  C_3 
REMARK    2  A    between atoms: C_4  and  N_5 
REMARK       I    between atoms: N_5  and  C_6 
REMARK    3  A    between atoms: C_6  and  C_7 
REMARK    4  A    between atoms: C_7  and  N_8 
REMARK    5  A    between atoms: C_11  and  C_12 
REMARK       I    between atoms: C_12  and  N_13 
REMARK    6  A    between atoms: N_13  and  C_14 
REMARK    7  A    between atoms: C_15  and  O_16 
REMARK    8  A    between atoms: C_24  and  N_25 
ROOT
HETATM    1  N   UNL     1      42.646 -14.854   4.769  1.00  0.00    -0.252 N 
HETATM    2  N   UNL     1      43.693 -14.170   4.270  1.00  0.00     0.007 NA
HETATM    3  N   UNL     1      43.333 -13.695   3.084  1.00  0.00    -0.151 NA
HETATM    4  C   UNL     1      42.030 -14.069   2.844  1.00  0.00     0.181 A 
HETATM    5  C   UNL     1      41.554 -14.770   3.939  1.00  0.00     0.130 A 
ENDROOT
BRANCH   1   6
HETATM    6  C   UNL     1      42.782 -15.634   5.977  1.00  0.00     0.251 C 
BRANCH   6   7
HETATM    7  C   UNL     1      42.951 -17.120   5.711  1.00  0.00     0.241 C 
HETATM    8  N   UNL     1      43.562 -17.441   4.506  1.00  0.00    -0.325 N 
HETATM    9  H   UNL     1      43.844 -16.662   3.918  1.00  0.00     0.169 HD
HETATM   10  O   UNL     1      42.470 -17.925   6.507  1.00  0.00    -0.271 OA
BRANCH   8  11
HETATM   11  C   UNL     1      43.896 -18.727   4.008  1.00  0.00     0.041 A 
HETATM   12  C   UNL     1      43.419 -19.121   2.733  1.00  0.00    -0.032 A 
HETATM   13  C   UNL     1      43.773 -20.388   2.225  1.00  0.00     0.009 A 
HETATM   14  C   UNL     1      44.572 -21.260   2.958  1.00  0.00     0.001 A 
HETATM   15  C   UNL     1      45.031 -20.877   4.210  1.00  0.00     0.002 A 
HETATM   16  C   UNL     1      44.698 -19.622   4.728  1.00  0.00     0.030 A 
BRANCH  12  17
HETATM   17  C   UNL     1      42.572 -18.237   1.841  1.00  0.00     0.036 C 
HETATM   18  C   UNL     1      43.423 -17.369   0.926  1.00  0.00     0.010 C 
ENDBRANCH  12  17
ENDBRANCH   8  11
ENDBRANCH   6   7
ENDBRANCH   1   6
BRANCH   5  19
HETATM   19  N   UNL     1      40.367 -15.383   4.198  1.00  0.00    -0.285 NA
HETATM   20  H   UNL     1      39.864 -15.719   3.364  1.00  0.00     0.125 HD
HETATM   21  H   UNL     1      39.700 -14.937   4.828  1.00  0.00     0.125 HD
ENDBRANCH   5  19
BRANCH   4  22
HETATM   22  C   UNL     1      41.319 -13.786   1.603  1.00  0.00     0.279 C 
HETATM   23  N   UNL     1      42.097 -13.995   0.486  1.00  0.00    -0.319 N 
HETATM   24  H   UNL     1      43.070 -14.253   0.646  1.00  0.00     0.169 HD
HETATM   25  O   UNL     1      40.148 -13.416   1.615  1.00  0.00    -0.265 OA
BRANCH  23  26
HETATM   26  C   UNL     1      41.726 -13.927  -0.874  1.00  0.00     0.069 A 
HETATM   27  C   UNL     1      42.202 -12.825  -1.613  1.00  0.00     0.095 A 
HETATM   28  C   UNL     1      41.900 -12.720  -2.973  1.00  0.00     0.039 A 
HETATM   29  C   UNL     1      41.120 -13.698  -3.598  1.00  0.00     0.009 A 
HETATM   30  C   UNL     1      40.625 -14.783  -2.869  1.00  0.00    -0.060 A 
HETATM   31  C   UNL     1      39.824 -15.856  -3.546  1.00  0.00     0.048 C 
HETATM   32  C   UNL     1      40.944 -14.896  -1.508  1.00  0.00     0.039 A 
BRANCH  27  33
HETATM   33  O   UNL     1      42.964 -11.923  -0.905  1.00  0.00    -0.354 OA
HETATM   34  C   UNL     1      43.201 -10.660  -1.515  1.00  0.00     0.210 C 
ENDBRANCH  27  33
ENDBRANCH  23  26
ENDBRANCH   4  22
TORSDOF 8
ENDMDL
MODEL 4
REMARK VINA RESULT:      -8.4      1.694      2.765
REMARK  8 active torsions:
REMARK  status: ('A' for Active; 'I' for Inactive)
REMARK    1  A    between atoms: C_2  and  C_3 
REMARK    2  A    between atoms: C_4  and  N_5 
REMARK       I    between atoms: N_5  and  C_6 
REMARK    3  A    between atoms: C_6  and  C_7 
REMARK    4  A    between atoms: C_7  and  N_8 
REMARK    5  A    between atoms: C_11  and  C_12 
REMARK       I    between atoms: C_12  and  N_13 
REMARK    6  A    between atoms: N_13  and  C_14 
REMARK    7  A    between atoms: C_15  and  O_16 
REMARK    8  A    between atoms: C_24  and  N_25 
ROOT
HETATM    1  N   UNL     1      41.288 -12.520   6.200  1.00  0.00    -0.252 N 
HETATM    2  N   UNL     1      42.634 -12.564   6.211  1.00  0.00     0.007 NA
HETATM    3  N   UNL     1      43.000 -13.762   5.774  1.00  0.00    -0.151 NA
HETATM    4  C   UNL     1      41.863 -14.476   5.463  1.00  0.00     0.181 A 
HETATM    5  C   UNL     1      40.755 -13.675   5.680  1.00  0.00     0.130 A 
ENDROOT
BRANCH   1   6
HETATM    6  C   UNL     1      40.582 -11.402   6.782  1.00  0.00     0.251 C 
BRANCH   6   7
HETATM    7  C   UNL     1      41.408 -10.643   7.806  1.00  0.00     0.241 C 
HETATM    8  N   UNL     1      41.465 -11.220   9.067  1.00  0.00    -0.325 N 
HETATM    9  H   UNL     1      40.958 -12.093   9.191  1.00  0.00     0.169 HD
HETATM   10  O   UNL     1      41.885  -9.552   7.495  1.00  0.00    -0.271 OA
BRANCH   8  11
HETATM   11  C   UNL     1      42.188 -10.775  10.204  1.00  0.00     0.041 A 
HETATM   12  C   UNL     1      43.572 -11.065  10.301  1.00  0.00    -0.032 A 
HETATM   13  C   UNL     1      44.298 -10.599  11.417  1.00  0.00     0.009 A 
HETATM   14  C   UNL     1      43.676  -9.871  12.427  1.00  0.00     0.001 A 
HETATM   15  C   UNL     1      42.319  -9.596  12.336  1.00  0.00     0.002 A 
HETATM   16  C   UNL     1      41.584 -10.042  11.233  1.00  0.00     0.030 A 
BRANCH  12  17
HETATM   17  C   UNL     1      44.351 -11.819   9.244  1.00  0.00     0.036 C 
HETATM   18  C   UNL     1      45.830 -11.464   9.265  1.00  0.00     0.010 C 
ENDBRANCH  12  17
ENDBRANCH   8  11
ENDBRANCH   6   7
ENDBRANCH   1   6
BRANCH   5  19
HETATM   19  N   UNL     1      39.418 -13.899   5.569  1.00  0.00    -0.285 NA
HETATM   20  H   UNL     1      38.967 -14.254   6.424  1.00  0.00     0.125 HD
HETATM   21  H   UNL     1      39.063 -14.423   4.768  1.00  0.00     0.125 HD
ENDBRANCH   5  19
BRANCH   4  22
HETATM   22  C   UNL     1      41.872 -15.865   5.018  1.00  0.00     0.279 C 
HETATM   23  N   UNL     1      42.968 -16.165   4.239  1.00  0.00    -0.319 N 
HETATM   24  H   UNL     1      43.596 -15.395   4.014  1.00  0.00     0.169 HD
HETATM   25  O   UNL     1      40.978 -16.640   5.345  1.00  0.00    -0.265 OA
BRANCH  23  26
HETATM   26  C   UNL     1      43.367 -17.416   3.722  1.00  0.00     0.069 A 
HETATM   27  C   UNL     1      43.282 -17.587   2.325  1.00  0.00     0.095 A 
HETATM   28  C   UNL     1      43.697 -18.790   1.748  1.00  0.00     0.039 A 
HETATM   29  C   UNL     1      44.185 -19.824   2.552  1.00  0.00     0.009 A 
HETATM   30  C   UNL     1      44.254 -19.673   3.940  1.00  0.00    -0.060 A 
HETATM   31  C   UNL     1      44.817 -20.765   4.801  1.00  0.00     0.048 C 
HETATM   32  C   UNL     1      43.853 -18.459   4.516  1.00  0.00     0.039 A 
BRANCH  27  33
HETATM   33  O   UNL     1      42.793 -16.507   1.626  1.00  0.00    -0.354 OA
HETATM   34  C   UNL     1      41.897 -16.784   0.556  1.00  0.00     0.210 C 
ENDBRANCH  27  33
ENDBRANCH  23  26
ENDBRANCH   4  22
TORSDOF 8
ENDMDL
MODEL 5
REMARK VINA RESULT:      -8.3      2.182      3.215
REMARK  8 active torsions:
REMARK  status: ('A' for Active; 'I' for Inactive)
REMARK    1  A    between atoms: C_2  and  C_3 
REMARK    2  A    between atoms: C_4  and  N_5 
REMARK       I    between atoms: N_5  and  C_6 
REMARK    3  A    between atoms: C_6  and  C_7 
REMARK    4  A    between atoms: C_7  and  N_8 
REMARK    5  A    between atoms: C_11  and  C_12 
REMARK       I    between atoms: C_12  and  N_13 
REMARK    6  A    between atoms: N_13  and  C_14 
REMARK    7  A    between atoms: C_15  and  O_16 
REMARK    8  A    between atoms: C_24  and  N_25 
ROOT
HETATM    1  N   UNL     1      40.240 -11.546   7.136  1.00  0.00    -0.252 N 
HETATM    2  N   UNL     1      41.563 -11.321   7.023  1.00  0.00     0.007 NA
HETATM    3  N   UNL     1      42.062 -12.252   6.221  1.00  0.00    -0.151 NA
HETATM    4  C   UNL     1      41.030 -13.065   5.805  1.00  0.00     0.181 A 
HETATM    5  C   UNL     1      39.844 -12.595   6.341  1.00  0.00     0.130 A 
ENDROOT
BRANCH   1   6
HETATM    6  C   UNL     1      39.442 -10.799   8.080  1.00  0.00     0.251 C 
BRANCH   6   7
HETATM    7  C   UNL     1      40.274 -10.097   9.139  1.00  0.00     0.241 C 
HETATM    8  N   UNL     1      40.831 -10.928  10.103  1.00  0.00    -0.325 N 
HETATM    9  H   UNL     1      40.639 -11.922  10.011  1.00  0.00     0.169 HD
HETATM   10  O   UNL     1      40.327  -8.868   9.136  1.00  0.00    -0.271 OA
BRANCH   8  11
HETATM   11  C   UNL     1      41.686 -10.574  11.178  1.00  0.00     0.041 A 
HETATM   12  C   UNL     1      43.089 -10.622  10.992  1.00  0.00    -0.032 A 
HETATM   13  C   UNL     1      43.939 -10.244  12.052  1.00  0.00     0.009 A 
HETATM   14  C   UNL     1      43.423  -9.837  13.279  1.00  0.00     0.001 A 
HETATM   15  C   UNL     1      42.049  -9.799  13.463  1.00  0.00     0.002 A 
HETATM   16  C   UNL     1      41.189 -10.162  12.422  1.00  0.00     0.030 A 
BRANCH  12  17
HETATM   17  C   UNL     1      43.753 -11.019   9.690  1.00  0.00     0.036 C 
HETATM   18  C   UNL     1      45.271 -11.006   9.798  1.00  0.00     0.010 C 
ENDBRANCH  12  17
ENDBRANCH   8  11
ENDBRANCH   6   7
ENDBRANCH   1   6
BRANCH   5  19
HETATM   19  N   UNL     1      38.561 -13.043   6.278  1.00  0.00    -0.285 NA
HETATM   20  H   UNL     1      38.013 -12.908   7.140  1.00  0.00     0.125 HD
HETATM   21  H   UNL     1      38.374 -13.978   5.913  1.00  0.00     0.125 HD
ENDBRANCH   5  19
BRANCH   4  22
HETATM   22  C   UNL     1      41.213 -14.245   4.968  1.00  0.00     0.279 C 
HETATM   23  N   UNL     1      42.433 -14.852   5.166  1.00  0.00    -0.319 N 
HETATM   24  H   UNL     1      43.077 -14.390   5.805  1.00  0.00     0.169 HD
HETATM   25  O   UNL     1      40.332 -14.616   4.197  1.00  0.00    -0.265 OA
BRANCH  23  26
HETATM   26  C   UNL     1      42.916 -16.060   4.619  1.00  0.00     0.069 A 
HETATM   27  C   UNL     1      42.969 -17.176   5.479  1.00  0.00     0.095 A 
HETATM   28  C   UNL     1      43.403 -18.409   4.988  1.00  0.00     0.039 A 
HETATM   29  C   UNL     1      43.792 -18.537   3.652  1.00  0.00     0.009 A 
HETATM   30  C   UNL     1      43.763 -17.433   2.795  1.00  0.00    -0.060 A 
HETATM   31  C   UNL     1      44.139 -17.576   1.350  1.00  0.00     0.048 C 
HETATM   32  C   UNL     1      43.311 -16.199   3.285  1.00  0.00     0.039 A 
BRANCH  27  33
HETATM   33  O   UNL     1      42.560 -16.945   6.773  1.00  0.00    -0.354 OA
HETATM   34  C   UNL     1      43.238 -17.656   7.801  1.00  0.00     0.210 C 
ENDBRANCH  27  33
ENDBRANCH  23  26
ENDBRANCH   4  22
TORSDOF 8
ENDMDL
MODEL 6
REMARK VINA RESULT:      -8.2      2.143      8.313
REMARK  8 active torsions:
REMARK  status: ('A' for Active; 'I' for Inactive)
REMARK    1  A    between atoms: C_2  and  C_3 
REMARK    2  A    between atoms: C_4  and  N_5 
REMARK       I    between atoms: N_5  and  C_6 
REMARK    3  A    between atoms: C_6  and  C_7 
REMARK    4  A    between atoms: C_7  and  N_8 
REMARK    5  A    between atoms: C_11  and  C_12 
REMARK       I    between atoms: C_12  and  N_13 
REMARK    6  A    between atoms: N_13  and  C_14 
REMARK    7  A    between atoms: C_15  and  O_16 
REMARK    8  A    between atoms: C_24  and  N_25 
ROOT
HETATM    1  N   UNL     1      40.203 -12.571   5.486  1.00  0.00    -0.252 N 
HETATM    2  N   UNL     1      38.972 -12.038   5.598  1.00  0.00     0.007 NA
HETATM    3  N   UNL     1      38.974 -11.242   6.660  1.00  0.00    -0.151 NA
HETATM    4  C   UNL     1      40.235 -11.260   7.213  1.00  0.00     0.181 A 
HETATM    5  C   UNL     1      41.053 -12.068   6.442  1.00  0.00     0.130 A 
ENDROOT
BRANCH   1   6
HETATM    6  C   UNL     1      40.471 -13.613   4.522  1.00  0.00     0.251 C 
BRANCH   6   7
HETATM    7  C   UNL     1      41.060 -14.866   5.147  1.00  0.00     0.241 C 
HETATM    8  N   UNL     1      42.341 -15.195   4.723  1.00  0.00    -0.325 N 
HETATM    9  H   UNL     1      42.768 -14.571   4.043  1.00  0.00     0.169 HD
HETATM   10  O   UNL     1      40.357 -15.543   5.895  1.00  0.00    -0.271 OA
BRANCH   8  11
HETATM   11  C   UNL     1      43.160 -16.267   5.158  1.00  0.00     0.041 A 
HETATM   12  C   UNL     1      43.349 -17.384   4.307  1.00  0.00    -0.032 A 
HETATM   13  C   UNL     1      44.186 -18.439   4.728  1.00  0.00     0.009 A 
HETATM   14  C   UNL     1      44.817 -18.406   5.968  1.00  0.00     0.001 A 
HETATM   15  C   UNL     1      44.624 -17.317   6.805  1.00  0.00     0.002 A 
HETATM   16  C   UNL     1      43.805 -16.258   6.402  1.00  0.00     0.030 A 
BRANCH  12  17
HETATM   17  C   UNL     1      42.737 -17.505   2.927  1.00  0.00     0.036 C 
HETATM   18  C   UNL     1      43.787 -17.777   1.860  1.00  0.00     0.010 C 
ENDBRANCH  12  17
ENDBRANCH   8  11
ENDBRANCH   6   7
ENDBRANCH   1   6
BRANCH   5  19
HETATM   19  N   UNL     1      42.353 -12.450   6.564  1.00  0.00    -0.285 NA
HETATM   20  H   UNL     1      43.040 -11.749   6.253  1.00  0.00     0.125 HD
HETATM   21  H   UNL     1      42.640 -13.367   6.219  1.00  0.00     0.125 HD
ENDBRANCH   5  19
BRANCH   4  22
HETATM   22  C   UNL     1      40.594 -10.558   8.440  1.00  0.00     0.279 C 
HETATM   23  N   UNL     1      41.465 -11.279   9.228  1.00  0.00    -0.319 N 
HETATM   24  H   UNL     1      41.704 -12.216   8.909  1.00  0.00     0.169 HD
HETATM   25  O   UNL     1      40.146  -9.442   8.684  1.00  0.00    -0.265 OA
BRANCH  23  26
HETATM   26  C   UNL     1      42.107 -10.884  10.421  1.00  0.00     0.069 A 
HETATM   27  C   UNL     1      43.494 -10.639  10.351  1.00  0.00     0.095 A 
HETATM   28  C   UNL     1      44.179 -10.211  11.490  1.00  0.00     0.039 A 
HETATM   29  C   UNL     1      43.497 -10.033  12.697  1.00  0.00     0.009 A 
HETATM   30  C   UNL     1      42.126 -10.293  12.783  1.00  0.00    -0.060 A 
HETATM   31  C   UNL     1      41.383 -10.062  14.066  1.00  0.00     0.048 C 
HETATM   32  C   UNL     1      41.436 -10.707  11.635  1.00  0.00     0.039 A 
BRANCH  27  33
HETATM   33  O   UNL     1      44.067 -10.839   9.117  1.00  0.00    -0.354 OA
HETATM   34  C   UNL     1      45.111 -11.802   9.039  1.00  0.00     0.210 C 
ENDBRANCH  27  33
ENDBRANCH  23  26
ENDBRANCH   4  22
TORSDOF 8
ENDMDL
MODEL 7
REMARK VINA RESULT:      -8.0      4.611      8.139
REMARK  8 active torsions:
REMARK  status: ('A' for Active; 'I' for Inactive)
REMARK    1  A    between atoms: C_2  and  C_3 
REMARK    2  A    between atoms: C_4  and  N_5 
REMARK       I    between atoms: N_5  and  C_6 
REMARK    3  A    between atoms: C_6  and  C_7 
REMARK    4  A    between atoms: C_7  and  N_8 
REMARK    5  A    between atoms: C_11  and  C_12 
REMARK       I    between atoms: C_12  and  N_13 
REMARK    6  A    between atoms: N_13  and  C_14 
REMARK    7  A    between atoms: C_15  and  O_16 
REMARK    8  A    between atoms: C_24  and  N_25 
ROOT
HETATM    1  N   UNL     1      41.733 -14.910   4.256  1.00  0.00    -0.252 N 
HETATM    2  N   UNL     1      40.485 -15.365   4.035  1.00  0.00     0.007 NA
HETATM    3  N   UNL     1      40.044 -14.800   2.918  1.00  0.00    -0.151 NA
HETATM    4  C   UNL     1      41.041 -13.992   2.417  1.00  0.00     0.181 A 
HETATM    5  C   UNL     1      42.153 -14.090   3.236  1.00  0.00     0.130 A 
ENDROOT
BRANCH   1   6
HETATM    6  C   UNL     1      42.420 -15.212   5.491  1.00  0.00     0.251 C 
BRANCH   6   7
HETATM    7  C   UNL     1      43.332 -16.422   5.384  1.00  0.00     0.241 C 
HETATM    8  N   UNL     1      42.829 -17.480   4.639  1.00  0.00    -0.325 N 
HETATM    9  H   UNL     1      41.907 -17.350   4.231  1.00  0.00     0.169 HD
HETATM   10  O   UNL     1      44.386 -16.430   6.019  1.00  0.00    -0.271 OA
BRANCH   8  11
HETATM   11  C   UNL     1      43.461 -18.711   4.325  1.00  0.00     0.041 A 
HETATM   12  C   UNL     1      43.551 -19.117   2.971  1.00  0.00    -0.032 A 
HETATM   13  C   UNL     1      44.204 -20.327   2.655  1.00  0.00     0.009 A 
HETATM   14  C   UNL     1      44.749 -21.131   3.651  1.00  0.00     0.001 A 
HETATM   15  C   UNL     1      44.652 -20.738   4.977  1.00  0.00     0.002 A 
HETATM   16  C   UNL     1      44.016 -19.537   5.310  1.00  0.00     0.030 A 
BRANCH  12  17
HETATM   17  C   UNL     1      43.021 -18.302   1.810  1.00  0.00     0.036 C 
HETATM   18  C   UNL     1      44.076 -17.362   1.245  1.00  0.00     0.010 C 
ENDBRANCH  12  17
ENDBRANCH   8  11
ENDBRANCH   6   7
ENDBRANCH   1   6
BRANCH   5  19
HETATM   19  N   UNL     1      43.370 -13.483   3.217  1.00  0.00    -0.285 NA
HETATM   20  H   UNL     1      43.986 -13.726   4.006  1.00  0.00     0.125 HD
HETATM   21  H   UNL     1      43.425 -12.477   3.054  1.00  0.00     0.125 HD
ENDBRANCH   5  19
BRANCH   4  22
HETATM   22  C   UNL     1      40.890 -13.153   1.234  1.00  0.00     0.279 C 
HETATM   23  N   UNL     1      41.887 -13.359   0.307  1.00  0.00    -0.319 N 
HETATM   24  H   UNL     1      42.630 -14.006   0.568  1.00  0.00     0.169 HD
HETATM   25  O   UNL     1      39.947 -12.374   1.128  1.00  0.00    -0.265 OA
BRANCH  23  26
HETATM   26  C   UNL     1      42.014 -12.814  -0.989  1.00  0.00     0.069 A 
HETATM   27  C   UNL     1      41.627 -13.633  -2.069  1.00  0.00     0.095 A 
HETATM   28  C   UNL     1      41.694 -13.137  -3.373  1.00  0.00     0.039 A 
HETATM   29  C   UNL     1      42.151 -11.837  -3.609  1.00  0.00     0.009 A 
HETATM   30  C   UNL     1      42.556 -11.023  -2.547  1.00  0.00    -0.060 A 
HETATM   31  C   UNL     1      43.007  -9.614  -2.793  1.00  0.00     0.048 C 
HETATM   32  C   UNL     1      42.473 -11.517  -1.237  1.00  0.00     0.039 A 
BRANCH  27  33
HETATM   33  O   UNL     1      41.188 -14.892  -1.728  1.00  0.00    -0.354 OA
HETATM   34  C   UNL     1      40.939 -15.799  -2.795  1.00  0.00     0.210 C 
ENDBRANCH  27  33
ENDBRANCH  23  26
ENDBRANCH   4  22
TORSDOF 8
ENDMDL
MODEL 8
REMARK VINA RESULT:      -8.0      3.964      5.781
REMARK  8 active torsions:
REMARK  status: ('A' for Active; 'I' for Inactive)
REMARK    1  A    between atoms: C_2  and  C_3 
REMARK    2  A    between atoms: C_4  and  N_5 
REMARK       I    between atoms: N_5  and  C_6 
REMARK    3  A    between atoms: C_6  and  C_7 
REMARK    4  A    between atoms: C_7  and  N_8 
REMARK    5  A    between atoms: C_11  and  C_12 
REMARK       I    between atoms: C_12  and  N_13 
REMARK    6  A    between atoms: N_13  and  C_14 
REMARK    7  A    between atoms: C_15  and  O_16 
REMARK    8  A    between atoms: C_24  and  N_25 
ROOT
HETATM    1  N   UNL     1      41.639 -13.315   3.391  1.00  0.00    -0.252 N 
HETATM    2  N   UNL     1      42.968 -13.302   3.612  1.00  0.00     0.007 NA
HETATM    3  N   UNL     1      43.362 -14.560   3.761  1.00  0.00    -0.151 NA
HETATM    4  C   UNL     1      42.264 -15.379   3.611  1.00  0.00     0.181 A 
HETATM    5  C   UNL     1      41.158 -14.600   3.321  1.00  0.00     0.130 A 
ENDROOT
BRANCH   1   6
HETATM    6  C   UNL     1      40.886 -12.083   3.357  1.00  0.00     0.251 C 
BRANCH   6   7
HETATM    7  C   UNL     1      40.917 -11.403   1.999  1.00  0.00     0.241 C 
HETATM    8  N   UNL     1      42.089 -11.576   1.276  1.00  0.00    -0.325 N 
HETATM    9  H   UNL     1      42.813 -12.140   1.712  1.00  0.00     0.169 HD
HETATM   10  O   UNL     1      39.971 -10.687   1.671  1.00  0.00    -0.271 OA
BRANCH   8  11
HETATM   11  C   UNL     1      42.392 -11.107  -0.029  1.00  0.00     0.041 A 
HETATM   12  C   UNL     1      42.241 -11.984  -1.131  1.00  0.00    -0.032 A 
HETATM   13  C   UNL     1      42.515 -11.510  -2.432  1.00  0.00     0.009 A 
HETATM   14  C   UNL     1      42.943 -10.204  -2.647  1.00  0.00     0.001 A 
HETATM   15  C   UNL     1      43.100  -9.349  -1.566  1.00  0.00     0.002 A 
HETATM   16  C   UNL     1      42.825  -9.797  -0.270  1.00  0.00     0.030 A 
BRANCH  12  17
HETATM   17  C   UNL     1      41.752 -13.412  -1.012  1.00  0.00     0.036 C 
HETATM   18  C   UNL     1      40.249 -13.518  -1.224  1.00  0.00     0.010 C 
ENDBRANCH  12  17
ENDBRANCH   8  11
ENDBRANCH   6   7
ENDBRANCH   1   6
BRANCH   5  19
HETATM   19  N   UNL     1      39.845 -14.898   3.122  1.00  0.00    -0.285 NA
HETATM   20  H   UNL     1      39.639 -15.357   2.223  1.00  0.00     0.125 HD
HETATM   21  H   UNL     1      39.137 -14.183   3.296  1.00  0.00     0.125 HD
ENDBRANCH   5  19
BRANCH   4  22
HETATM   22  C   UNL     1      42.302 -16.827   3.780  1.00  0.00     0.279 C 
HETATM   23  N   UNL     1      43.496 -17.379   3.371  1.00  0.00    -0.319 N 
HETATM   24  H   UNL     1      44.174 -16.745   2.950  1.00  0.00     0.169 HD
HETATM   25  O   UNL     1      41.345 -17.433   4.254  1.00  0.00    -0.265 OA
BRANCH  23  26
HETATM   26  C   UNL     1      43.933 -18.716   3.479  1.00  0.00     0.069 A 
HETATM   27  C   UNL     1      44.498 -19.107   4.710  1.00  0.00     0.095 A 
HETATM   28  C   UNL     1      44.916 -20.427   4.892  1.00  0.00     0.039 A 
HETATM   29  C   UNL     1      44.784 -21.356   3.856  1.00  0.00     0.009 A 
HETATM   30  C   UNL     1      44.245 -20.974   2.624  1.00  0.00    -0.060 A 
HETATM   31  C   UNL     1      44.062 -21.978   1.525  1.00  0.00     0.048 C 
HETATM   32  C   UNL     1      43.810 -19.652   2.448  1.00  0.00     0.039 A 
BRANCH  27  33
HETATM   33  O   UNL     1      44.577 -18.119   5.664  1.00  0.00    -0.354 OA
HETATM   34  C   UNL     1      44.393 -18.514   7.018  1.00  0.00     0.210 C 
ENDBRANCH  27  33
ENDBRANCH  23  26
ENDBRANCH   4  22
TORSDOF 8
ENDMDL
MODEL 9
REMARK VINA RESULT:      -7.9      4.497      8.340
REMARK  8 active torsions:
REMARK  status: ('A' for Active; 'I' for Inactive)
REMARK    1  A    between atoms: C_2  and  C_3 
REMARK    2  A    between atoms: C_4  and  N_5 
REMARK       I    between atoms: N_5  and  C_6 
REMARK    3  A    between atoms: C_6  and  C_7 
REMARK    4  A    between atoms: C_7  and  N_8 
REMARK    5  A    between atoms: C_11  and  C_12 
REMARK       I    between atoms: C_12  and  N_13 
REMARK    6  A    between atoms: N_13  and  C_14 
REMARK    7  A    between atoms: C_15  and  O_16 
REMARK    8  A    between atoms: C_24  and  N_25 
ROOT
HETATM    1  N   UNL     1      42.069 -14.686   4.108  1.00  0.00    -0.252 N 
HETATM    2  N   UNL     1      43.262 -14.156   3.781  1.00  0.00     0.007 NA
HETATM    3  N   UNL     1      43.111 -13.502   2.636  1.00  0.00    -0.151 NA
HETATM    4  C   UNL     1      41.793 -13.607   2.247  1.00  0.00     0.181 A 
HETATM    5  C   UNL     1      41.097 -14.321   3.208  1.00  0.00     0.130 A 
ENDROOT
BRANCH   1   6
HETATM    6  C   UNL     1      41.948 -15.600   5.220  1.00  0.00     0.251 C 
BRANCH   6   7
HETATM    7  C   UNL     1      42.058 -17.058   4.808  1.00  0.00     0.241 C 
HETATM    8  N   UNL     1      43.221 -17.396   4.128  1.00  0.00    -0.325 N 
HETATM    9  H   UNL     1      43.890 -16.647   3.973  1.00  0.00     0.169 HD
HETATM   10  O   UNL     1      41.104 -17.807   5.012  1.00  0.00    -0.271 OA
BRANCH   8  11
HETATM   11  C   UNL     1      43.625 -18.674   3.665  1.00  0.00     0.041 A 
HETATM   12  C   UNL     1      44.384 -19.513   4.518  1.00  0.00    -0.032 A 
HETATM   13  C   UNL     1      44.763 -20.795   4.068  1.00  0.00     0.009 A 
HETATM   14  C   UNL     1      44.415 -21.243   2.798  1.00  0.00     0.001 A 
HETATM   15  C   UNL     1      43.681 -20.418   1.958  1.00  0.00     0.002 A 
HETATM   16  C   UNL     1      43.288 -19.147   2.390  1.00  0.00     0.030 A 
BRANCH  12  17
HETATM   17  C   UNL     1      44.787 -19.136   5.929  1.00  0.00     0.036 C 
HETATM   18  C   UNL     1      43.835 -19.713   6.966  1.00  0.00     0.010 C 
ENDBRANCH  12  17
ENDBRANCH   8  11
ENDBRANCH   6   7
ENDBRANCH   1   6
BRANCH   5  19
HETATM   19  N   UNL     1      39.803 -14.733   3.295  1.00  0.00    -0.285 NA
HETATM   20  H   UNL     1      39.679 -15.696   3.637  1.00  0.00     0.125 HD
HETATM   21  H   UNL     1      39.175 -14.581   2.504  1.00  0.00     0.125 HD
ENDBRANCH   5  19
BRANCH   4  22
HETATM   22  C   UNL     1      41.270 -13.072   0.996  1.00  0.00     0.279 C 
HETATM   23  N   UNL     1      40.102 -13.688   0.603  1.00  0.00    -0.319 N 
HETATM   24  H   UNL     1      39.778 -14.465   1.176  1.00  0.00     0.169 HD
HETATM   25  O   UNL     1      41.846 -12.162   0.408  1.00  0.00    -0.265 OA
BRANCH  23  26
HETATM   26  C   UNL     1      39.261 -13.371  -0.485  1.00  0.00     0.069 A 
HETATM   27  C   UNL     1      39.492 -14.059  -1.694  1.00  0.00     0.095 A 
HETATM   28  C   UNL     1      38.669 -13.817  -2.796  1.00  0.00     0.039 A 
HETATM   29  C   UNL     1      37.627 -12.890  -2.707  1.00  0.00     0.009 A 
HETATM   30  C   UNL     1      37.402 -12.187  -1.519  1.00  0.00    -0.060 A 
HETATM   31  C   UNL     1      36.258 -11.223  -1.406  1.00  0.00     0.048 C 
HETATM   32  C   UNL     1      38.218 -12.443  -0.408  1.00  0.00     0.039 A 
BRANCH  27  33
HETATM   33  O   UNL     1      40.538 -14.952  -1.675  1.00  0.00    -0.354 OA
HETATM   34  C   UNL     1      41.034 -15.392  -2.933  1.00  0.00     0.210 C 
ENDBRANCH  27  33
ENDBRANCH  23  26
ENDBRANCH   4  22
TORSDOF 8
ENDMDL
MODEL 10
REMARK VINA RESULT:      -7.9      1.883      3.456
REMARK  8 active torsions:
REMARK  status: ('A' for Active; 'I' for Inactive)
REMARK    1  A    between atoms: C_2  and  C_3 
REMARK    2  A    between atoms: C_4  and  N_5 
REMARK       I    between atoms: N_5  and  C_6 
REMARK    3  A    between atoms: C_6  and  C_7 
REMARK    4  A    between atoms: C_7  and  N_8 
REMARK    5  A    between atoms: C_11  and  C_12 
REMARK       I    between atoms: C_12  and  N_13 
REMARK    6  A    between atoms: N_13  and  C_14 
REMARK    7  A    between atoms: C_15  and  O_16 
REMARK    8  A    between atoms: C_24  and  N_25 
ROOT
HETATM    1  N   UNL     1      41.089 -12.296   5.787  1.00  0.00    -0.252 N 
HETATM    2  N   UNL     1      39.945 -12.773   6.311  1.00  0.00     0.007 NA
HETATM    3  N   UNL     1      39.921 -14.083   6.099  1.00  0.00    -0.151 NA
HETATM    4  C   UNL     1      41.083 -14.438   5.448  1.00  0.00     0.181 A 
HETATM    5  C   UNL     1      41.870 -13.310   5.286  1.00  0.00     0.130 A 
ENDROOT
BRANCH   1   6
HETATM    6  C   UNL     1      41.329 -10.873   5.710  1.00  0.00     0.251 C 
BRANCH   6   7
HETATM    7  C   UNL     1      41.888 -10.292   6.997  1.00  0.00     0.241 C 
HETATM    8  N   UNL     1      42.220 -11.222   7.973  1.00  0.00    -0.325 N 
HETATM    9  H   UNL     1      42.065 -12.200   7.740  1.00  0.00     0.169 HD
HETATM   10  O   UNL     1      41.927  -9.070   7.130  1.00  0.00    -0.271 OA
BRANCH   8  11
HETATM   11  C   UNL     1      42.802 -10.989   9.246  1.00  0.00     0.041 A 
HETATM   12  C   UNL     1      41.960 -10.723  10.354  1.00  0.00    -0.032 A 
HETATM   13  C   UNL     1      42.537 -10.518  11.625  1.00  0.00     0.009 A 
HETATM   14  C   UNL     1      43.916 -10.560  11.805  1.00  0.00     0.001 A 
HETATM   15  C   UNL     1      44.740 -10.810  10.717  1.00  0.00     0.002 A 
HETATM   16  C   UNL     1      44.187 -11.024   9.451  1.00  0.00     0.030 A 
BRANCH  12  17
HETATM   17  C   UNL     1      40.448 -10.688  10.274  1.00  0.00     0.036 C 
HETATM   18  C   UNL     1      39.814 -10.393  11.625  1.00  0.00     0.010 C 
ENDBRANCH  12  17
ENDBRANCH   8  11
ENDBRANCH   6   7
ENDBRANCH   1   6
BRANCH   5  19
HETATM   19  N   UNL     1      43.073 -13.103   4.686  1.00  0.00    -0.285 NA
HETATM   20  H   UNL     1      43.038 -13.051   3.657  1.00  0.00     0.125 HD
HETATM   21  H   UNL     1      43.874 -13.672   4.960  1.00  0.00     0.125 HD
ENDBRANCH   5  19
BRANCH   4  22
HETATM   22  C   UNL     1      41.374 -15.789   4.986  1.00  0.00     0.279 C 
HETATM   23  N   UNL     1      42.325 -15.816   3.989  1.00  0.00    -0.319 N 
HETATM   24  H   UNL     1      42.660 -14.915   3.651  1.00  0.00     0.169 HD
HETATM   25  O   UNL     1      40.811 -16.762   5.480  1.00  0.00    -0.265 OA
BRANCH  23  26
HETATM   26  C   UNL     1      42.930 -16.934   3.377  1.00  0.00     0.069 A 
HETATM   27  C   UNL     1      43.011 -16.927   1.969  1.00  0.00     0.095 A 
HETATM   28  C   UNL     1      43.632 -17.988   1.307  1.00  0.00     0.039 A 
HETATM   29  C   UNL     1      44.164 -19.057   2.033  1.00  0.00     0.009 A 
HETATM   30  C   UNL     1      44.071 -19.084   3.427  1.00  0.00    -0.060 A 
HETATM   31  C   UNL     1      44.678 -20.209   4.213  1.00  0.00     0.048 C 
HETATM   32  C   UNL     1      43.461 -18.011   4.093  1.00  0.00     0.039 A 
BRANCH  27  33
HETATM   33  O   UNL     1      42.463 -15.827   1.351  1.00  0.00    -0.354 OA
HETATM   34  C   UNL     1      41.555 -16.073   0.284  1.00  0.00     0.210 C 
ENDBRANCH  27  33
ENDBRANCH  23  26
ENDBRANCH   4  22
TORSDOF 8
ENDMDL
