MODEL 1
REMARK VINA RESULT:      -8.4      0.000      0.000
REMARK  6 active torsions:
REMARK  status: ('A' for Active; 'I' for Inactive)
REMARK    1  A    between atoms: C_3  and  N_4 
REMARK       I    between atoms: N_4  and  C_5 
REMARK    2  A    between atoms: C_5  and  C_6 
REMARK    3  A    between atoms: C_6  and  O_7 
REMARK    4  A    between atoms: O_7  and  C_8 
REMARK    5  A    between atoms: C_10  and  N_11 
REMARK       I    between atoms: N_11  and  C_12 
REMARK    6  A    between atoms: C_12  and  C_13 
ROOT
HETATM    1  C   UNL     1      43.190 -14.808   5.779  1.00  0.00     0.278 C 
ENDROOT
BRANCH   1   2
HETATM    2  C   UNL     1      42.785 -15.995   4.897  1.00  0.00     0.246 C 
HETATM    3  N   UNL     1      43.871 -16.750   4.492  1.00  0.00    -0.323 N 
HETATM    4  H   UNL     1      44.697 -16.563   5.056  1.00  0.00     0.169 HD
HETATM    5  O   UNL     1      41.603 -16.201   4.643  1.00  0.00    -0.271 OA
BRANCH   3   6
HETATM    6  C   UNL     1      43.899 -17.926   3.701  1.00  0.00     0.065 A 
HETATM    7  C   UNL     1      43.628 -17.987   2.323  1.00  0.00    -0.031 A 
HETATM    8  C   UNL     1      43.398 -16.801   1.428  1.00  0.00     0.050 C 
HETATM    9  C   UNL     1      43.607 -19.247   1.697  1.00  0.00     0.035 A 
HETATM   10  C   UNL     1      43.927 -20.390   2.413  1.00  0.00     0.031 A 
HETATM   11  N   UNL     1      44.279 -20.344   3.712  1.00  0.00    -0.256 NA
HETATM   12  C   UNL     1      43.897 -21.733   1.751  1.00  0.00     0.070 C 
HETATM   13  C   UNL     1      44.267 -19.136   4.335  1.00  0.00     0.058 A 
HETATM   14  C   UNL     1      44.656 -19.192   5.788  1.00  0.00     0.073 C 
ENDBRANCH   3   6
ENDBRANCH   1   2
BRANCH   1  15
HETATM   15  O   UNL     1      44.394 -15.048   6.507  1.00  0.00    -0.342 OA
BRANCH  15  16
HETATM   16  C   UNL     1      44.944 -13.969   7.143  1.00  0.00     0.071 A 
HETATM   17  C   UNL     1      44.182 -13.429   8.184  1.00  0.00     0.066 A 
HETATM   18  C   UNL     1      44.659 -12.353   8.933  1.00  0.00     0.037 A 
HETATM   19  C   UNL     1      45.927 -11.836   8.636  1.00  0.00     0.029 A 
HETATM   20  C   UNL     1      46.701 -12.389   7.613  1.00  0.00     0.005 A 
HETATM   21  C   UNL     1      46.214 -13.463   6.868  1.00  0.00     0.037 A 
BRANCH  18  22
HETATM   22  N   UNL     1      43.946 -11.742   9.986  1.00  0.00    -0.327 N 
HETATM   23  C   UNL     1      43.898 -12.137  11.307  1.00  0.00     0.226 C 
HETATM   24  O   UNL     1      44.482 -13.086  11.810  1.00  0.00    -0.273 OA
HETATM   25  H   UNL     1      43.424 -10.917   9.740  1.00  0.00     0.169 HD
BRANCH  23  26
HETATM   26  C   UNL     1      43.046 -11.300  12.209  1.00  0.00     0.078 A 
HETATM   27  C   UNL     1      43.517  -9.918  12.604  1.00  0.00     0.015 A 
HETATM   28  C   UNL     1      42.251 -10.078  11.815  1.00  0.00     0.015 A 
ENDBRANCH  23  26
ENDBRANCH  18  22
ENDBRANCH  15  16
ENDBRANCH   1  15
TORSDOF 6
ENDMDL
MODEL 2
REMARK VINA RESULT:      -8.1      2.119      9.868
REMARK  6 active torsions:
REMARK  status: ('A' for Active; 'I' for Inactive)
REMARK    1  A    between atoms: C_3  and  N_4 
REMARK       I    between atoms: N_4  and  C_5 
REMARK    2  A    between atoms: C_5  and  C_6 
REMARK    3  A    between atoms: C_6  and  O_7 
REMARK    4  A    between atoms: O_7  and  C_8 
REMARK    5  A    between atoms: C_10  and  N_11 
REMARK       I    between atoms: N_11  and  C_12 
REMARK    6  A    between atoms: C_12  and  C_13 
ROOT
HETATM    1  C   UNL     1      44.920 -14.325   6.876  1.00  0.00     0.278 C 
ENDROOT
BRANCH   1   2
HETATM    2  C   UNL     1      45.098 -13.108   7.791  1.00  0.00     0.246 C 
HETATM    3  N   UNL     1      43.942 -12.792   8.483  1.00  0.00    -0.323 N 
HETATM    4  H   UNL     1      43.275 -13.559   8.481  1.00  0.00     0.169 HD
HETATM    5  O   UNL     1      46.184 -12.544   7.867  1.00  0.00    -0.271 OA
BRANCH   3   6
HETATM    6  C   UNL     1      43.720 -11.762   9.432  1.00  0.00     0.065 A 
HETATM    7  C   UNL     1      44.377 -11.640  10.668  1.00  0.00    -0.031 A 
HETATM    8  C   UNL     1      45.522 -12.495  11.135  1.00  0.00     0.050 C 
HETATM    9  C   UNL     1      43.979 -10.612  11.543  1.00  0.00     0.035 A 
HETATM   10  C   UNL     1      43.015  -9.695  11.152  1.00  0.00     0.031 A 
HETATM   11  N   UNL     1      42.437  -9.740   9.936  1.00  0.00    -0.256 NA
HETATM   12  C   UNL     1      42.582  -8.605  12.083  1.00  0.00     0.070 C 
HETATM   13  C   UNL     1      42.789 -10.752   9.099  1.00  0.00     0.058 A 
HETATM   14  C   UNL     1      42.075 -10.725   7.774  1.00  0.00     0.073 C 
ENDBRANCH   3   6
ENDBRANCH   1   2
BRANCH   1  15
HETATM   15  O   UNL     1      43.632 -14.925   7.000  1.00  0.00    -0.342 OA
BRANCH  15  16
HETATM   16  C   UNL     1      43.593 -16.292   6.969  1.00  0.00     0.071 A 
HETATM   17  C   UNL     1      43.744 -16.871   5.704  1.00  0.00     0.066 A 
HETATM   18  C   UNL     1      43.763 -18.258   5.553  1.00  0.00     0.037 A 
HETATM   19  C   UNL     1      43.649 -19.061   6.695  1.00  0.00     0.029 A 
HETATM   20  C   UNL     1      43.523 -18.486   7.962  1.00  0.00     0.005 A 
HETATM   21  C   UNL     1      43.502 -17.099   8.103  1.00  0.00     0.037 A 
BRANCH  18  22
HETATM   22  N   UNL     1      43.894 -18.918   4.313  1.00  0.00    -0.327 N 
HETATM   23  C   UNL     1      44.699 -19.998   4.018  1.00  0.00     0.226 C 
HETATM   24  O   UNL     1      45.439 -20.593   4.789  1.00  0.00    -0.273 OA
HETATM   25  H   UNL     1      43.322 -18.561   3.564  1.00  0.00     0.169 HD
BRANCH  23  26
HETATM   26  C   UNL     1      44.644 -20.489   2.605  1.00  0.00     0.078 A 
HETATM   27  C   UNL     1      44.192 -21.906   2.329  1.00  0.00     0.015 A 
HETATM   28  C   UNL     1      43.398 -20.750   1.793  1.00  0.00     0.015 A 
ENDBRANCH  23  26
ENDBRANCH  18  22
ENDBRANCH  15  16
ENDBRANCH   1  15
TORSDOF 6
ENDMDL
MODEL 3
REMARK VINA RESULT:      -8.1      3.550      7.964
REMARK  6 active torsions:
REMARK  status: ('A' for Active; 'I' for Inactive)
REMARK    1  A    between atoms: C_3  and  N_4 
REMARK       I    between atoms: N_4  and  C_5 
REMARK    2  A    between atoms: C_5  and  C_6 
REMARK    3  A    between atoms: C_6  and  O_7 
REMARK    4  A    between atoms: O_7  and  C_8 
REMARK    5  A    between atoms: C_10  and  N_11 
REMARK       I    between atoms: N_11  and  C_12 
REMARK    6  A    between atoms: C_12  and  C_13 
ROOT
HETATM    1  C   UNL     1      43.875 -14.012   6.560  1.00  0.00     0.278 C 
ENDROOT
BRANCH   1   2
HETATM    2  C   UNL     1      43.249 -13.862   5.169  1.00  0.00     0.246 C 
HETATM    3  N   UNL     1      41.876 -14.032   5.185  1.00  0.00    -0.323 N 
HETATM    4  H   UNL     1      41.492 -13.953   6.123  1.00  0.00     0.169 HD
HETATM    5  O   UNL     1      43.951 -13.595   4.200  1.00  0.00    -0.271 OA
BRANCH   3   6
HETATM    6  C   UNL     1      40.950 -13.945   4.114  1.00  0.00     0.065 A 
HETATM    7  C   UNL     1      40.412 -12.753   3.599  1.00  0.00    -0.031 A 
HETATM    8  C   UNL     1      40.827 -11.365   4.000  1.00  0.00     0.050 C 
HETATM    9  C   UNL     1      39.432 -12.837   2.592  1.00  0.00     0.035 A 
HETATM   10  C   UNL     1      39.071 -14.069   2.069  1.00  0.00     0.031 A 
HETATM   11  N   UNL     1      39.640 -15.216   2.485  1.00  0.00    -0.256 NA
HETATM   12  C   UNL     1      38.022 -14.163   1.004  1.00  0.00     0.070 C 
HETATM   13  C   UNL     1      40.561 -15.148   3.482  1.00  0.00     0.058 A 
HETATM   14  C   UNL     1      41.124 -16.484   3.887  1.00  0.00     0.073 C 
ENDBRANCH   3   6
ENDBRANCH   1   2
BRANCH   1  15
HETATM   15  O   UNL     1      44.828 -15.072   6.625  1.00  0.00    -0.342 OA
BRANCH  15  16
HETATM   16  C   UNL     1      44.321 -16.339   6.713  1.00  0.00     0.071 A 
HETATM   17  C   UNL     1      44.756 -17.232   5.728  1.00  0.00     0.066 A 
HETATM   18  C   UNL     1      44.340 -18.565   5.739  1.00  0.00     0.037 A 
HETATM   19  C   UNL     1      43.495 -18.997   6.769  1.00  0.00     0.029 A 
HETATM   20  C   UNL     1      43.079 -18.113   7.769  1.00  0.00     0.005 A 
HETATM   21  C   UNL     1      43.498 -16.784   7.747  1.00  0.00     0.037 A 
BRANCH  18  22
HETATM   22  N   UNL     1      44.720 -19.521   4.774  1.00  0.00    -0.327 N 
HETATM   23  C   UNL     1      44.137 -19.751   3.545  1.00  0.00     0.226 C 
HETATM   24  O   UNL     1      43.188 -19.151   3.061  1.00  0.00    -0.273 OA
HETATM   25  H   UNL     1      45.516 -20.091   5.012  1.00  0.00     0.169 HD
BRANCH  23  26
HETATM   26  C   UNL     1      44.747 -20.845   2.727  1.00  0.00     0.078 A 
HETATM   27  C   UNL     1      44.429 -22.286   3.058  1.00  0.00     0.015 A 
HETATM   28  C   UNL     1      44.035 -21.721   1.725  1.00  0.00     0.015 A 
ENDBRANCH  23  26
ENDBRANCH  18  22
ENDBRANCH  15  16
ENDBRANCH   1  15
TORSDOF 6
ENDMDL
MODEL 4
REMARK VINA RESULT:      -7.9      4.831      8.040
REMARK  6 active torsions:
REMARK  status: ('A' for Active; 'I' for Inactive)
REMARK    1  A    between atoms: C_3  and  N_4 
REMARK       I    between atoms: N_4  and  C_5 
REMARK    2  A    between atoms: C_5  and  C_6 
REMARK    3  A    between atoms: C_6  and  O_7 
REMARK    4  A    between atoms: O_7  and  C_8 
REMARK    5  A    between atoms: C_10  and  N_11 
REMARK       I    between atoms: N_11  and  C_12 
REMARK    6  A    between atoms: C_12  and  C_13 
ROOT
HETATM    1  C   UNL     1      41.721 -15.248   5.262  1.00  0.00     0.278 C 
ENDROOT
BRANCH   1   2
HETATM    2  C   UNL     1      41.850 -16.754   5.004  1.00  0.00     0.246 C 
HETATM    3  N   UNL     1      42.888 -17.057   4.142  1.00  0.00    -0.323 N 
HETATM    4  H   UNL     1      43.543 -16.285   4.048  1.00  0.00     0.169 HD
HETATM    5  O   UNL     1      41.093 -17.544   5.558  1.00  0.00    -0.271 OA
BRANCH   3   6
HETATM    6  C   UNL     1      43.335 -18.324   3.687  1.00  0.00     0.065 A 
HETATM    7  C   UNL     1      44.193 -19.185   4.392  1.00  0.00    -0.031 A 
HETATM    8  C   UNL     1      44.673 -18.975   5.801  1.00  0.00     0.050 C 
HETATM    9  C   UNL     1      44.619 -20.371   3.766  1.00  0.00     0.035 A 
HETATM   10  C   UNL     1      44.133 -20.714   2.513  1.00  0.00     0.031 A 
HETATM   11  N   UNL     1      43.240 -19.948   1.859  1.00  0.00    -0.256 NA
HETATM   12  C   UNL     1      44.591 -21.971   1.840  1.00  0.00     0.070 C 
HETATM   13  C   UNL     1      42.850 -18.782   2.440  1.00  0.00     0.058 A 
HETATM   14  C   UNL     1      41.866 -17.990   1.623  1.00  0.00     0.073 C 
ENDBRANCH   3   6
ENDBRANCH   1   2
BRANCH   1  15
HETATM   15  O   UNL     1      40.372 -14.789   5.183  1.00  0.00    -0.342 OA
BRANCH  15  16
HETATM   16  C   UNL     1      40.029 -14.109   4.047  1.00  0.00     0.071 A 
HETATM   17  C   UNL     1      40.146 -14.830   2.854  1.00  0.00     0.066 A 
HETATM   18  C   UNL     1      39.784 -14.255   1.635  1.00  0.00     0.037 A 
HETATM   19  C   UNL     1      39.280 -12.948   1.630  1.00  0.00     0.029 A 
HETATM   20  C   UNL     1      39.138 -12.235   2.823  1.00  0.00     0.005 A 
HETATM   21  C   UNL     1      39.505 -12.816   4.036  1.00  0.00     0.037 A 
BRANCH  18  22
HETATM   22  N   UNL     1      39.888 -14.909   0.389  1.00  0.00    -0.327 N 
HETATM   23  C   UNL     1      40.860 -14.732  -0.573  1.00  0.00     0.226 C 
HETATM   24  O   UNL     1      41.824 -13.981  -0.512  1.00  0.00    -0.273 OA
HETATM   25  H   UNL     1      39.173 -15.591   0.191  1.00  0.00     0.169 HD
BRANCH  23  26
HETATM   26  C   UNL     1      40.713 -15.560  -1.811  1.00  0.00     0.078 A 
HETATM   27  C   UNL     1      39.927 -15.012  -2.982  1.00  0.00     0.015 A 
HETATM   28  C   UNL     1      41.387 -15.317  -3.140  1.00  0.00     0.015 A 
ENDBRANCH  23  26
ENDBRANCH  18  22
ENDBRANCH  15  16
ENDBRANCH   1  15
TORSDOF 6
ENDMDL
MODEL 5
REMARK VINA RESULT:      -7.8      4.350      8.002
REMARK  6 active torsions:
REMARK  status: ('A' for Active; 'I' for Inactive)
REMARK    1  A    between atoms: C_3  and  N_4 
REMARK       I    between atoms: N_4  and  C_5 
REMARK    2  A    between atoms: C_5  and  C_6 
REMARK    3  A    between atoms: C_6  and  O_7 
REMARK    4  A    between atoms: O_7  and  C_8 
REMARK    5  A    between atoms: C_10  and  N_11 
REMARK       I    between atoms: N_11  and  C_12 
REMARK    6  A    between atoms: C_12  and  C_13 
ROOT
HETATM    1  C   UNL     1      42.061 -14.744   4.730  1.00  0.00     0.278 C 
ENDROOT
BRANCH   1   2
HETATM    2  C   UNL     1      42.492 -14.443   3.290  1.00  0.00     0.246 C 
HETATM    3  N   UNL     1      41.456 -14.589   2.385  1.00  0.00    -0.323 N 
HETATM    4  H   UNL     1      40.548 -14.599   2.842  1.00  0.00     0.169 HD
HETATM    5  O   UNL     1      43.642 -14.091   3.049  1.00  0.00    -0.271 OA
BRANCH   3   6
HETATM    6  C   UNL     1      41.455 -14.377   0.982  1.00  0.00     0.065 A 
HETATM    7  C   UNL     1      41.556 -13.127   0.349  1.00  0.00    -0.031 A 
HETATM    8  C   UNL     1      41.821 -11.819   1.040  1.00  0.00     0.050 C 
HETATM    9  C   UNL     1      41.447 -13.073  -1.053  1.00  0.00     0.035 A 
HETATM   10  C   UNL     1      41.324 -14.241  -1.791  1.00  0.00     0.031 A 
HETATM   11  N   UNL     1      41.316 -15.456  -1.210  1.00  0.00    -0.256 NA
HETATM   12  C   UNL     1      41.199 -14.187  -3.283  1.00  0.00     0.070 C 
HETATM   13  C   UNL     1      41.384 -15.516   0.146  1.00  0.00     0.058 A 
HETATM   14  C   UNL     1      41.350 -16.915   0.700  1.00  0.00     0.073 C 
ENDBRANCH   3   6
ENDBRANCH   1   2
BRANCH   1  15
HETATM   15  O   UNL     1      43.169 -14.924   5.611  1.00  0.00    -0.342 OA
BRANCH  15  16
HETATM   16  C   UNL     1      43.378 -16.195   6.070  1.00  0.00     0.071 A 
HETATM   17  C   UNL     1      43.831 -17.114   5.117  1.00  0.00     0.066 A 
HETATM   18  C   UNL     1      44.120 -18.431   5.477  1.00  0.00     0.037 A 
HETATM   19  C   UNL     1      43.967 -18.811   6.817  1.00  0.00     0.029 A 
HETATM   20  C   UNL     1      43.539 -17.890   7.776  1.00  0.00     0.005 A 
HETATM   21  C   UNL     1      43.250 -16.577   7.406  1.00  0.00     0.037 A 
BRANCH  18  22
HETATM   22  N   UNL     1      44.564 -19.420   4.575  1.00  0.00    -0.327 N 
HETATM   23  C   UNL     1      43.999 -19.768   3.365  1.00  0.00     0.226 C 
HETATM   24  O   UNL     1      43.012 -19.266   2.847  1.00  0.00    -0.273 OA
HETATM   25  H   UNL     1      45.397 -19.918   4.846  1.00  0.00     0.169 HD
BRANCH  23  26
HETATM   26  C   UNL     1      44.683 -20.868   2.616  1.00  0.00     0.078 A 
HETATM   27  C   UNL     1      44.429 -22.305   3.013  1.00  0.00     0.015 A 
HETATM   28  C   UNL     1      44.040 -21.828   1.644  1.00  0.00     0.015 A 
ENDBRANCH  23  26
ENDBRANCH  18  22
ENDBRANCH  15  16
ENDBRANCH   1  15
TORSDOF 6
ENDMDL
MODEL 6
REMARK VINA RESULT:      -7.8      4.689      8.348
REMARK  6 active torsions:
REMARK  status: ('A' for Active; 'I' for Inactive)
REMARK    1  A    between atoms: C_3  and  N_4 
REMARK       I    between atoms: N_4  and  C_5 
REMARK    2  A    between atoms: C_5  and  C_6 
REMARK    3  A    between atoms: C_6  and  O_7 
REMARK    4  A    between atoms: O_7  and  C_8 
REMARK    5  A    between atoms: C_10  and  N_11 
REMARK       I    between atoms: N_11  and  C_12 
REMARK    6  A    between atoms: C_12  and  C_13 
ROOT
HETATM    1  C   UNL     1      41.846 -13.469   4.001  1.00  0.00     0.278 C 
ENDROOT
BRANCH   1   2
HETATM    2  C   UNL     1      41.928 -13.508   2.471  1.00  0.00     0.246 C 
HETATM    3  N   UNL     1      40.923 -14.275   1.907  1.00  0.00    -0.323 N 
HETATM    4  H   UNL     1      40.163 -14.447   2.559  1.00  0.00     0.169 HD
HETATM    5  O   UNL     1      42.801 -12.882   1.882  1.00  0.00    -0.271 OA
BRANCH   3   6
HETATM    6  C   UNL     1      40.652 -14.528   0.538  1.00  0.00     0.065 A 
HETATM    7  C   UNL     1      41.253 -15.534  -0.238  1.00  0.00    -0.031 A 
HETATM    8  C   UNL     1      42.180 -16.598   0.281  1.00  0.00     0.050 C 
HETATM    9  C   UNL     1      40.945 -15.600  -1.609  1.00  0.00     0.035 A 
HETATM   10  C   UNL     1      40.006 -14.738  -2.157  1.00  0.00     0.031 A 
HETATM   11  N   UNL     1      39.352 -13.827  -1.413  1.00  0.00    -0.256 NA
HETATM   12  C   UNL     1      39.682 -14.799  -3.619  1.00  0.00     0.070 C 
HETATM   13  C   UNL     1      39.669 -13.732  -0.094  1.00  0.00     0.058 A 
HETATM   14  C   UNL     1      38.898 -12.673   0.646  1.00  0.00     0.073 C 
ENDBRANCH   3   6
ENDBRANCH   1   2
BRANCH   1  15
HETATM   15  O   UNL     1      42.919 -14.169   4.629  1.00  0.00    -0.342 OA
BRANCH  15  16
HETATM   16  C   UNL     1      42.662 -15.457   5.012  1.00  0.00     0.071 A 
HETATM   17  C   UNL     1      43.401 -16.442   4.347  1.00  0.00     0.066 A 
HETATM   18  C   UNL     1      43.255 -17.789   4.681  1.00  0.00     0.037 A 
HETATM   19  C   UNL     1      42.371 -18.135   5.710  1.00  0.00     0.029 A 
HETATM   20  C   UNL     1      41.650 -17.152   6.393  1.00  0.00     0.005 A 
HETATM   21  C   UNL     1      41.800 -15.809   6.050  1.00  0.00     0.037 A 
BRANCH  18  22
HETATM   22  N   UNL     1      43.949 -18.842   4.048  1.00  0.00    -0.327 N 
HETATM   23  C   UNL     1      43.580 -19.525   2.908  1.00  0.00     0.226 C 
HETATM   24  O   UNL     1      42.584 -19.329   2.227  1.00  0.00    -0.273 OA
HETATM   25  H   UNL     1      44.820 -19.112   4.477  1.00  0.00     0.169 HD
BRANCH  23  26
HETATM   26  C   UNL     1      44.511 -20.610   2.465  1.00  0.00     0.078 A 
HETATM   27  C   UNL     1      44.444 -21.965   3.134  1.00  0.00     0.015 A 
HETATM   28  C   UNL     1      44.145 -21.839   1.669  1.00  0.00     0.015 A 
ENDBRANCH  23  26
ENDBRANCH  18  22
ENDBRANCH  15  16
ENDBRANCH   1  15
TORSDOF 6
ENDMDL
MODEL 7
REMARK VINA RESULT:      -7.7      1.828      2.538
REMARK  6 active torsions:
REMARK  status: ('A' for Active; 'I' for Inactive)
REMARK    1  A    between atoms: C_3  and  N_4 
REMARK       I    between atoms: N_4  and  C_5 
REMARK    2  A    between atoms: C_5  and  C_6 
REMARK    3  A    between atoms: C_6  and  O_7 
REMARK    4  A    between atoms: O_7  and  C_8 
REMARK    5  A    between atoms: C_10  and  N_11 
REMARK       I    between atoms: N_11  and  C_12 
REMARK    6  A    between atoms: C_12  and  C_13 
ROOT
HETATM    1  C   UNL     1      40.917 -14.003   5.573  1.00  0.00     0.278 C 
ENDROOT
BRANCH   1   2
HETATM    2  C   UNL     1      41.166 -15.502   5.371  1.00  0.00     0.246 C 
HETATM    3  N   UNL     1      41.953 -15.765   4.264  1.00  0.00    -0.323 N 
HETATM    4  H   UNL     1      42.448 -14.937   3.944  1.00  0.00     0.169 HD
HETATM    5  O   UNL     1      40.704 -16.318   6.162  1.00  0.00    -0.271 OA
BRANCH   3   6
HETATM    6  C   UNL     1      42.417 -17.010   3.770  1.00  0.00     0.065 A 
HETATM    7  C   UNL     1      43.390 -17.817   4.385  1.00  0.00    -0.031 A 
HETATM    8  C   UNL     1      44.002 -17.569   5.735  1.00  0.00     0.050 C 
HETATM    9  C   UNL     1      43.811 -18.985   3.722  1.00  0.00     0.035 A 
HETATM   10  C   UNL     1      43.217 -19.365   2.528  1.00  0.00     0.031 A 
HETATM   11  N   UNL     1      42.221 -18.654   1.968  1.00  0.00    -0.256 NA
HETATM   12  C   UNL     1      43.670 -20.602   1.815  1.00  0.00     0.070 C 
HETATM   13  C   UNL     1      41.831 -17.505   2.582  1.00  0.00     0.058 A 
HETATM   14  C   UNL     1      40.726 -16.774   1.870  1.00  0.00     0.073 C 
ENDBRANCH   3   6
ENDBRANCH   1   2
BRANCH   1  15
HETATM   15  O   UNL     1      42.037 -13.203   5.197  1.00  0.00    -0.342 OA
BRANCH  15  16
HETATM   16  C   UNL     1      43.121 -13.247   6.030  1.00  0.00     0.071 A 
HETATM   17  C   UNL     1      42.961 -12.607   7.264  1.00  0.00     0.066 A 
HETATM   18  C   UNL     1      43.983 -12.621   8.213  1.00  0.00     0.037 A 
HETATM   19  C   UNL     1      45.168 -13.308   7.916  1.00  0.00     0.029 A 
HETATM   20  C   UNL     1      45.321 -13.969   6.695  1.00  0.00     0.005 A 
HETATM   21  C   UNL     1      44.295 -13.946   5.751  1.00  0.00     0.037 A 
BRANCH  18  22
HETATM   22  N   UNL     1      43.906 -11.987   9.471  1.00  0.00    -0.327 N 
HETATM   23  C   UNL     1      44.709 -10.975   9.952  1.00  0.00     0.226 C 
HETATM   24  O   UNL     1      45.632 -10.430   9.363  1.00  0.00    -0.273 OA
HETATM   25  H   UNL     1      43.169 -12.308  10.078  1.00  0.00     0.169 HD
BRANCH  23  26
HETATM   26  C   UNL     1      44.401 -10.497  11.336  1.00  0.00     0.078 A 
HETATM   27  C   UNL     1      43.265  -9.522  11.549  1.00  0.00     0.015 A 
HETATM   28  C   UNL     1      43.208 -10.884  12.176  1.00  0.00     0.015 A 
ENDBRANCH  23  26
ENDBRANCH  18  22
ENDBRANCH  15  16
ENDBRANCH   1  15
TORSDOF 6
ENDMDL
MODEL 8
REMARK VINA RESULT:      -7.7      4.283      7.447
REMARK  6 active torsions:
REMARK  status: ('A' for Active; 'I' for Inactive)
REMARK    1  A    between atoms: C_3  and  N_4 
REMARK       I    between atoms: N_4  and  C_5 
REMARK    2  A    between atoms: C_5  and  C_6 
REMARK    3  A    between atoms: C_6  and  O_7 
REMARK    4  A    between atoms: O_7  and  C_8 
REMARK    5  A    between atoms: C_10  and  N_11 
REMARK       I    between atoms: N_11  and  C_12 
REMARK    6  A    between atoms: C_12  and  C_13 
ROOT
HETATM    1  C   UNL     1      42.635 -14.847   5.492  1.00  0.00     0.278 C 
ENDROOT
BRANCH   1   2
HETATM    2  C   UNL     1      42.404 -16.213   4.834  1.00  0.00     0.246 C 
HETATM    3  N   UNL     1      43.554 -16.724   4.259  1.00  0.00    -0.323 N 
HETATM    4  H   UNL     1      44.391 -16.258   4.600  1.00  0.00     0.169 HD
HETATM    5  O   UNL     1      41.299 -16.741   4.877  1.00  0.00    -0.271 OA
BRANCH   3   6
HETATM    6  C   UNL     1      43.747 -17.959   3.588  1.00  0.00     0.065 A 
HETATM    7  C   UNL     1      43.466 -18.200   2.233  1.00  0.00    -0.031 A 
HETATM    8  C   UNL     1      43.047 -17.161   1.231  1.00  0.00     0.050 C 
HETATM    9  C   UNL     1      43.626 -19.507   1.735  1.00  0.00     0.035 A 
HETATM   10  C   UNL     1      44.126 -20.510   2.552  1.00  0.00     0.031 A 
HETATM   11  N   UNL     1      44.486 -20.279   3.828  1.00  0.00    -0.256 NA
HETATM   12  C   UNL     1      44.288 -21.904   2.029  1.00  0.00     0.070 C 
HETATM   13  C   UNL     1      44.302 -19.028   4.328  1.00  0.00     0.058 A 
HETATM   14  C   UNL     1      44.718 -18.877   5.767  1.00  0.00     0.073 C 
ENDBRANCH   3   6
ENDBRANCH   1   2
BRANCH   1  15
HETATM   15  O   UNL     1      43.094 -13.861   4.569  1.00  0.00    -0.342 OA
BRANCH  15  16
HETATM   16  C   UNL     1      42.167 -13.377   3.687  1.00  0.00     0.071 A 
HETATM   17  C   UNL     1      42.473 -13.556   2.333  1.00  0.00     0.066 A 
HETATM   18  C   UNL     1      41.584 -13.141   1.340  1.00  0.00     0.037 A 
HETATM   19  C   UNL     1      40.369 -12.560   1.726  1.00  0.00     0.029 A 
HETATM   20  C   UNL     1      40.050 -12.403   3.077  1.00  0.00     0.005 A 
HETATM   21  C   UNL     1      40.946 -12.818   4.061  1.00  0.00     0.037 A 
BRANCH  18  22
HETATM   22  N   UNL     1      41.825 -13.270  -0.043  1.00  0.00    -0.327 N 
HETATM   23  C   UNL     1      42.486 -12.383  -0.867  1.00  0.00     0.226 C 
HETATM   24  O   UNL     1      42.999 -11.323  -0.540  1.00  0.00    -0.273 OA
HETATM   25  H   UNL     1      41.482 -14.116  -0.470  1.00  0.00     0.169 HD
BRANCH  23  26
HETATM   26  C   UNL     1      42.586 -12.778  -2.307  1.00  0.00     0.078 A 
HETATM   27  C   UNL     1      41.343 -12.763  -3.169  1.00  0.00     0.015 A 
HETATM   28  C   UNL     1      42.492 -11.857  -3.500  1.00  0.00     0.015 A 
ENDBRANCH  23  26
ENDBRANCH  18  22
ENDBRANCH  15  16
ENDBRANCH   1  15
TORSDOF 6
ENDMDL
MODEL 9
REMARK VINA RESULT:      -7.7      4.381      7.767
REMARK  6 active torsions:
REMARK  status: ('A' for Active; 'I' for Inactive)
REMARK    1  A    between atoms: C_3  and  N_4 
REMARK       I    between atoms: N_4  and  C_5 
REMARK    2  A    between atoms: C_5  and  C_6 
REMARK    3  A    between atoms: C_6  and  O_7 
REMARK    4  A    between atoms: O_7  and  C_8 
REMARK    5  A    between atoms: C_10  and  N_11 
REMARK       I    between atoms: N_11  and  C_12 
REMARK    6  A    between atoms: C_12  and  C_13 
ROOT
HETATM    1  C   UNL     1      42.708 -15.063   5.462  1.00  0.00     0.278 C 
ENDROOT
BRANCH   1   2
HETATM    2  C   UNL     1      42.537 -16.499   4.953  1.00  0.00     0.246 C 
HETATM    3  N   UNL     1      43.618 -16.927   4.203  1.00  0.00    -0.323 N 
HETATM    4  H   UNL     1      44.437 -16.341   4.344  1.00  0.00     0.169 HD
HETATM    5  O   UNL     1      41.535 -17.143   5.243  1.00  0.00    -0.271 OA
BRANCH   3   6
HETATM    6  C   UNL     1      43.841 -18.187   3.592  1.00  0.00     0.065 A 
HETATM    7  C   UNL     1      43.604 -18.489   2.240  1.00  0.00    -0.031 A 
HETATM    8  C   UNL     1      43.208 -17.496   1.183  1.00  0.00     0.050 C 
HETATM    9  C   UNL     1      43.789 -19.814   1.804  1.00  0.00     0.035 A 
HETATM   10  C   UNL     1      44.271 -20.777   2.678  1.00  0.00     0.031 A 
HETATM   11  N   UNL     1      44.590 -20.489   3.954  1.00  0.00    -0.256 NA
HETATM   12  C   UNL     1      44.460 -22.191   2.220  1.00  0.00     0.070 C 
HETATM   13  C   UNL     1      44.381 -19.220   4.393  1.00  0.00     0.058 A 
HETATM   14  C   UNL     1      44.751 -19.003   5.836  1.00  0.00     0.073 C 
ENDBRANCH   3   6
ENDBRANCH   1   2
BRANCH   1  15
HETATM   15  O   UNL     1      42.808 -14.111   4.403  1.00  0.00    -0.342 OA
BRANCH  15  16
HETATM   16  C   UNL     1      41.678 -13.906   3.662  1.00  0.00     0.071 A 
HETATM   17  C   UNL     1      41.657 -14.528   2.408  1.00  0.00     0.066 A 
HETATM   18  C   UNL     1      40.539 -14.425   1.579  1.00  0.00     0.037 A 
HETATM   19  C   UNL     1      39.428 -13.704   2.035  1.00  0.00     0.029 A 
HETATM   20  C   UNL     1      39.435 -13.103   3.297  1.00  0.00     0.005 A 
HETATM   21  C   UNL     1      40.559 -13.209   4.116  1.00  0.00     0.037 A 
BRANCH  18  22
HETATM   22  N   UNL     1      40.447 -15.008   0.298  1.00  0.00    -0.327 N 
HETATM   23  C   UNL     1      41.159 -14.666  -0.833  1.00  0.00     0.226 C 
HETATM   24  O   UNL     1      42.016 -13.800  -0.924  1.00  0.00    -0.273 OA
HETATM   25  H   UNL     1      39.791 -15.767   0.209  1.00  0.00     0.169 HD
BRANCH  23  26
HETATM   26  C   UNL     1      40.845 -15.454  -2.066  1.00  0.00     0.078 A 
HETATM   27  C   UNL     1      39.762 -14.967  -3.003  1.00  0.00     0.015 A 
HETATM   28  C   UNL     1      41.179 -15.070  -3.487  1.00  0.00     0.015 A 
ENDBRANCH  23  26
ENDBRANCH  18  22
ENDBRANCH  15  16
ENDBRANCH   1  15
TORSDOF 6
ENDMDL
MODEL 10
REMARK VINA RESULT:      -7.7      4.547      7.572
REMARK  6 active torsions:
REMARK  status: ('A' for Active; 'I' for Inactive)
REMARK    1  A    between atoms: C_3  and  N_4 
REMARK       I    between atoms: N_4  and  C_5 
REMARK    2  A    between atoms: C_5  and  C_6 
REMARK    3  A    between atoms: C_6  and  O_7 
REMARK    4  A    between atoms: O_7  and  C_8 
REMARK    5  A    between atoms: C_10  and  N_11 
REMARK       I    between atoms: N_11  and  C_12 
REMARK    6  A    between atoms: C_12  and  C_13 
ROOT
HETATM    1  C   UNL     1      42.509 -14.660   5.028  1.00  0.00     0.278 C 
ENDROOT
BRANCH   1   2
HETATM    2  C   UNL     1      42.435 -16.184   4.881  1.00  0.00     0.246 C 
HETATM    3  N   UNL     1      43.313 -16.667   3.926  1.00  0.00    -0.323 N 
HETATM    4  H   UNL     1      44.032 -15.988   3.691  1.00  0.00     0.169 HD
HETATM    5  O   UNL     1      41.675 -16.838   5.586  1.00  0.00    -0.271 OA
BRANCH   3   6
HETATM    6  C   UNL     1      43.554 -18.007   3.527  1.00  0.00     0.065 A 
HETATM    7  C   UNL     1      44.349 -18.933   4.223  1.00  0.00    -0.031 A 
HETATM    8  C   UNL     1      44.964 -18.709   5.577  1.00  0.00     0.050 C 
HETATM    9  C   UNL     1      44.565 -20.199   3.649  1.00  0.00     0.035 A 
HETATM   10  C   UNL     1      43.939 -20.545   2.461  1.00  0.00     0.031 A 
HETATM   11  N   UNL     1      43.102 -19.704   1.824  1.00  0.00    -0.256 NA
HETATM   12  C   UNL     1      44.175 -21.888   1.842  1.00  0.00     0.070 C 
HETATM   13  C   UNL     1      42.915 -18.466   2.352  1.00  0.00     0.058 A 
HETATM   14  C   UNL     1      41.978 -17.597   1.557  1.00  0.00     0.073 C 
ENDBRANCH   3   6
ENDBRANCH   1   2
BRANCH   1  15
HETATM   15  O   UNL     1      41.260 -14.020   4.768  1.00  0.00    -0.342 OA
BRANCH  15  16
HETATM   16  C   UNL     1      40.832 -14.030   3.469  1.00  0.00     0.071 A 
HETATM   17  C   UNL     1      41.692 -13.423   2.546  1.00  0.00     0.066 A 
HETATM   18  C   UNL     1      41.382 -13.408   1.185  1.00  0.00     0.037 A 
HETATM   19  C   UNL     1      40.202 -14.032   0.757  1.00  0.00     0.029 A 
HETATM   20  C   UNL     1      39.355 -14.660   1.673  1.00  0.00     0.005 A 
HETATM   21  C   UNL     1      39.671 -14.667   3.031  1.00  0.00     0.037 A 
BRANCH  18  22
HETATM   22  N   UNL     1      42.186 -12.804   0.197  1.00  0.00    -0.327 N 
HETATM   23  C   UNL     1      42.113 -11.507  -0.268  1.00  0.00     0.226 C 
HETATM   24  O   UNL     1      41.342 -10.637   0.109  1.00  0.00    -0.273 OA
HETATM   25  H   UNL     1      42.901 -13.390  -0.204  1.00  0.00     0.169 HD
BRANCH  23  26
HETATM   26  C   UNL     1      43.094 -11.140  -1.337  1.00  0.00     0.078 A 
HETATM   27  C   UNL     1      42.631 -11.064  -2.775  1.00  0.00     0.015 A 
HETATM   28  C   UNL     1      43.153  -9.834  -2.092  1.00  0.00     0.015 A 
ENDBRANCH  23  26
ENDBRANCH  18  22
ENDBRANCH  15  16
ENDBRANCH   1  15
TORSDOF 6
ENDMDL
