MODEL 1
REMARK VINA RESULT:      -8.2      0.000      0.000
REMARK  6 active torsions:
REMARK  status: ('A' for Active; 'I' for Inactive)
REMARK    1  A    between atoms: C_3  and  N_4 
REMARK       I    between atoms: N_4  and  C_5 
REMARK    2  A    between atoms: C_5  and  C_6 
REMARK    3  A    between atoms: C_6  and  N_7 
REMARK    4  A    between atoms: N_7  and  C_9 
REMARK    5  A    between atoms: C_9  and  C_10 
REMARK    6  A    between atoms: C_18  and  O_19 
ROOT
HETATM    1  N   UNL     1      43.506 -15.919   5.858  1.00  0.00    -0.063 N 
HETATM    2  H   UNL     1      43.946 -16.032   4.931  1.00  0.00     0.280 HD
HETATM    3  C   UNL     1      44.348 -14.937   6.613  1.00  0.00     0.270 C 
ENDROOT
BRANCH   1   4
HETATM    4  C   UNL     1      43.569 -17.322   6.474  1.00  0.00     0.337 C 
BRANCH   4   5
HETATM    5  C   UNL     1      43.279 -18.429   5.456  1.00  0.00     0.248 C 
HETATM    6  N   UNL     1      44.411 -18.976   4.877  1.00  0.00    -0.325 N 
HETATM    7  H   UNL     1      45.236 -18.388   4.842  1.00  0.00     0.169 HD
HETATM    8  O   UNL     1      42.113 -18.713   5.191  1.00  0.00    -0.271 OA
BRANCH   6   9
HETATM    9  C   UNL     1      44.363 -19.985   3.877  1.00  0.00     0.046 A 
HETATM   10  C   UNL     1      44.230 -19.574   2.529  1.00  0.00    -0.035 A 
HETATM   11  C   UNL     1      44.138 -18.128   2.120  1.00  0.00     0.050 C 
HETATM   12  C   UNL     1      44.154 -20.545   1.517  1.00  0.00     0.009 A 
HETATM   13  C   UNL     1      44.209 -21.899   1.824  1.00  0.00     0.001 A 
HETATM   14  C   UNL     1      44.379 -22.301   3.144  1.00  0.00     0.009 A 
HETATM   15  C   UNL     1      44.491 -21.358   4.182  1.00  0.00    -0.035 A 
HETATM   16  C   UNL     1      44.795 -21.897   5.553  1.00  0.00     0.050 C 
ENDBRANCH   6   9
ENDBRANCH   4   5
ENDBRANCH   1   4
BRANCH   1  17
HETATM   17  C   UNL     1      42.116 -15.398   5.506  1.00  0.00     0.276 C 
BRANCH  17  18
HETATM   18  C   UNL     1      41.889 -14.919   4.103  1.00  0.00     0.009 A 
HETATM   19  C   UNL     1      41.859 -13.578   3.746  1.00  0.00     0.134 A 
HETATM   20 CL   UNL     1      42.095 -12.304   4.876  1.00  0.00    -0.062 Cl
HETATM   21  N   UNL     1      41.655 -13.122   2.497  1.00  0.00    -0.235 NA
HETATM   22  C   UNL     1      41.515 -14.013   1.503  1.00  0.00     0.071 A 
HETATM   23  C   UNL     1      41.554 -15.401   1.737  1.00  0.00    -0.006 A 
HETATM   24  C   UNL     1      41.338 -13.568   0.201  1.00  0.00     0.069 A 
HETATM   25  C   UNL     1      41.740 -15.840   3.058  1.00  0.00     0.026 A 
HETATM   26  C   UNL     1      41.418 -16.298   0.666  1.00  0.00     0.016 A 
HETATM   27  C   UNL     1      41.248 -15.824  -0.637  1.00  0.00     0.038 A 
HETATM   28  C   UNL     1      41.212 -14.453  -0.875  1.00  0.00     0.070 A 
BRANCH  28  29
HETATM   29  O   UNL     1      41.058 -13.852  -2.091  1.00  0.00    -0.356 OA
HETATM   30  C   UNL     1      41.072 -14.693  -3.239  1.00  0.00     0.210 C 
ENDBRANCH  28  29
ENDBRANCH  17  18
ENDBRANCH   1  17
TORSDOF 6
ENDMDL
MODEL 2
REMARK VINA RESULT:      -8.1      1.941      6.871
REMARK  6 active torsions:
REMARK  status: ('A' for Active; 'I' for Inactive)
REMARK    1  A    between atoms: C_3  and  N_4 
REMARK       I    between atoms: N_4  and  C_5 
REMARK    2  A    between atoms: C_5  and  C_6 
REMARK    3  A    between atoms: C_6  and  N_7 
REMARK    4  A    between atoms: N_7  and  C_9 
REMARK    5  A    between atoms: C_9  and  C_10 
REMARK    6  A    between atoms: C_18  and  O_19 
ROOT
HETATM    1  N   UNL     1      41.404 -14.279   4.167  1.00  0.00    -0.063 N 
HETATM    2  H   UNL     1      41.203 -15.072   3.539  1.00  0.00     0.280 HD
HETATM    3  C   UNL     1      40.301 -14.243   5.180  1.00  0.00     0.270 C 
ENDROOT
BRANCH   1   4
HETATM    4  C   UNL     1      41.375 -13.054   3.244  1.00  0.00     0.337 C 
BRANCH   4   5
HETATM    5  C   UNL     1      40.910 -13.394   1.825  1.00  0.00     0.248 C 
HETATM    6  N   UNL     1      41.926 -13.801   0.978  1.00  0.00    -0.325 N 
HETATM    7  H   UNL     1      42.861 -13.473   1.196  1.00  0.00     0.169 HD
HETATM    8  O   UNL     1      39.728 -13.240   1.526  1.00  0.00    -0.271 OA
BRANCH   6   9
HETATM    9  C   UNL     1      41.717 -14.121  -0.391  1.00  0.00     0.046 A 
HETATM   10  C   UNL     1      41.981 -13.116  -1.352  1.00  0.00    -0.035 A 
HETATM   11  C   UNL     1      42.470 -11.740  -0.984  1.00  0.00     0.050 C 
HETATM   12  C   UNL     1      41.762 -13.389  -2.713  1.00  0.00     0.009 A 
HETATM   13  C   UNL     1      41.291 -14.630  -3.122  1.00  0.00     0.001 A 
HETATM   14  C   UNL     1      41.068 -15.629  -2.181  1.00  0.00     0.009 A 
HETATM   15  C   UNL     1      41.307 -15.404  -0.813  1.00  0.00    -0.035 A 
HETATM   16  C   UNL     1      41.151 -16.587   0.102  1.00  0.00     0.050 C 
ENDBRANCH   6   9
ENDBRANCH   4   5
ENDBRANCH   1   4
BRANCH   1  17
HETATM   17  C   UNL     1      42.764 -14.653   4.750  1.00  0.00     0.276 C 
BRANCH  17  18
HETATM   18  C   UNL     1      43.212 -16.076   4.607  1.00  0.00     0.009 A 
HETATM   19  C   UNL     1      43.655 -16.851   5.670  1.00  0.00     0.134 A 
HETATM   20 CL   UNL     1      43.728 -16.267   7.287  1.00  0.00    -0.062 Cl
HETATM   21  N   UNL     1      44.064 -18.128   5.570  1.00  0.00    -0.235 NA
HETATM   22  C   UNL     1      44.003 -18.730   4.372  1.00  0.00     0.071 A 
HETATM   23  C   UNL     1      43.546 -18.056   3.224  1.00  0.00    -0.006 A 
HETATM   24  C   UNL     1      44.387 -20.057   4.250  1.00  0.00     0.069 A 
HETATM   25  C   UNL     1      43.154 -16.715   3.361  1.00  0.00     0.026 A 
HETATM   26  C   UNL     1      43.484 -18.728   1.993  1.00  0.00     0.016 A 
HETATM   27  C   UNL     1      43.869 -20.067   1.897  1.00  0.00     0.038 A 
HETATM   28  C   UNL     1      44.319 -20.740   3.030  1.00  0.00     0.070 A 
BRANCH  28  29
HETATM   29  O   UNL     1      44.721 -22.044   3.084  1.00  0.00    -0.356 OA
HETATM   30  C   UNL     1      44.721 -22.671   4.362  1.00  0.00     0.210 C 
ENDBRANCH  28  29
ENDBRANCH  17  18
ENDBRANCH   1  17
TORSDOF 6
ENDMDL
MODEL 3
REMARK VINA RESULT:      -8.1      1.676      2.626
REMARK  6 active torsions:
REMARK  status: ('A' for Active; 'I' for Inactive)
REMARK    1  A    between atoms: C_3  and  N_4 
REMARK       I    between atoms: N_4  and  C_5 
REMARK    2  A    between atoms: C_5  and  C_6 
REMARK    3  A    between atoms: C_6  and  N_7 
REMARK    4  A    between atoms: N_7  and  C_9 
REMARK    5  A    between atoms: C_9  and  C_10 
REMARK    6  A    between atoms: C_18  and  O_19 
ROOT
HETATM    1  N   UNL     1      43.868 -15.301   6.304  1.00  0.00    -0.063 N 
HETATM    2  H   UNL     1      44.298 -15.561   5.403  1.00  0.00     0.280 HD
HETATM    3  C   UNL     1      44.740 -14.241   6.904  1.00  0.00     0.270 C 
ENDROOT
BRANCH   1   4
HETATM    4  C   UNL     1      43.900 -16.600   7.120  1.00  0.00     0.337 C 
BRANCH   4   5
HETATM    5  C   UNL     1      44.540 -17.763   6.357  1.00  0.00     0.248 C 
HETATM    6  N   UNL     1      43.629 -18.629   5.778  1.00  0.00    -0.325 N 
HETATM    7  H   UNL     1      42.712 -18.680   6.205  1.00  0.00     0.169 HD
HETATM    8  O   UNL     1      45.764 -17.879   6.353  1.00  0.00    -0.271 OA
BRANCH   6   9
HETATM    9  C   UNL     1      44.012 -19.796   5.063  1.00  0.00     0.046 A 
HETATM   10  C   UNL     1      44.124 -21.008   5.786  1.00  0.00    -0.035 A 
HETATM   11  C   UNL     1      43.855 -21.106   7.264  1.00  0.00     0.050 C 
HETATM   12  C   UNL     1      44.524 -22.176   5.116  1.00  0.00     0.009 A 
HETATM   13  C   UNL     1      44.809 -22.153   3.756  1.00  0.00     0.001 A 
HETATM   14  C   UNL     1      44.662 -20.972   3.039  1.00  0.00     0.009 A 
HETATM   15  C   UNL     1      44.233 -19.789   3.668  1.00  0.00    -0.035 A 
HETATM   16  C   UNL     1      43.990 -18.601   2.778  1.00  0.00     0.050 C 
ENDBRANCH   6   9
ENDBRANCH   4   5
ENDBRANCH   1   4
BRANCH   1  17
HETATM   17  C   UNL     1      42.489 -14.801   5.884  1.00  0.00     0.276 C 
BRANCH  17  18
HETATM   18  C   UNL     1      42.063 -15.050   4.469  1.00  0.00     0.009 A 
HETATM   19  C   UNL     1      41.381 -16.189   4.062  1.00  0.00     0.134 A 
HETATM   20 CL   UNL     1      40.932 -17.446   5.145  1.00  0.00    -0.062 Cl
HETATM   21  N   UNL     1      40.990 -16.438   2.800  1.00  0.00    -0.235 NA
HETATM   22  C   UNL     1      41.225 -15.510   1.859  1.00  0.00     0.071 A 
HETATM   23  C   UNL     1      41.885 -14.302   2.155  1.00  0.00    -0.006 A 
HETATM   24  C   UNL     1      40.800 -15.728   0.557  1.00  0.00     0.069 A 
HETATM   25  C   UNL     1      42.305 -14.089   3.478  1.00  0.00     0.026 A 
HETATM   26  C   UNL     1      42.097 -13.351   1.144  1.00  0.00     0.016 A 
HETATM   27  C   UNL     1      41.653 -13.592  -0.159  1.00  0.00     0.038 A 
HETATM   28  C   UNL     1      40.997 -14.783  -0.456  1.00  0.00     0.070 A 
BRANCH  28  29
HETATM   29  O   UNL     1      40.506 -15.148  -1.677  1.00  0.00    -0.356 OA
HETATM   30  C   UNL     1      41.315 -14.864  -2.813  1.00  0.00     0.210 C 
ENDBRANCH  28  29
ENDBRANCH  17  18
ENDBRANCH   1  17
TORSDOF 6
ENDMDL
MODEL 4
REMARK VINA RESULT:      -8.1      1.894      7.362
REMARK  6 active torsions:
REMARK  status: ('A' for Active; 'I' for Inactive)
REMARK    1  A    between atoms: C_3  and  N_4 
REMARK       I    between atoms: N_4  and  C_5 
REMARK    2  A    between atoms: C_5  and  C_6 
REMARK    3  A    between atoms: C_6  and  N_7 
REMARK    4  A    between atoms: N_7  and  C_9 
REMARK    5  A    between atoms: C_9  and  C_10 
REMARK    6  A    between atoms: C_18  and  O_19 
ROOT
HETATM    1  N   UNL     1      41.458 -14.172   3.590  1.00  0.00    -0.063 N 
HETATM    2  H   UNL     1      41.435 -14.871   2.832  1.00  0.00     0.280 HD
HETATM    3  C   UNL     1      40.261 -14.435   4.452  1.00  0.00     0.270 C 
ENDROOT
BRANCH   1   4
HETATM    4  C   UNL     1      41.354 -12.827   2.860  1.00  0.00     0.337 C 
BRANCH   4   5
HETATM    5  C   UNL     1      41.501 -12.964   1.342  1.00  0.00     0.248 C 
HETATM    6  N   UNL     1      40.512 -13.727   0.745  1.00  0.00    -0.325 N 
HETATM    7  H   UNL     1      40.057 -14.421   1.327  1.00  0.00     0.169 HD
HETATM    8  O   UNL     1      42.470 -12.457   0.782  1.00  0.00    -0.271 OA
BRANCH   6   9
HETATM    9  C   UNL     1      40.486 -14.014  -0.647  1.00  0.00     0.046 A 
HETATM   10  C   UNL     1      40.978 -15.272  -1.072  1.00  0.00    -0.035 A 
HETATM   11  C   UNL     1      41.521 -16.302  -0.117  1.00  0.00     0.050 C 
HETATM   12  C   UNL     1      40.990 -15.580  -2.442  1.00  0.00     0.009 A 
HETATM   13  C   UNL     1      40.525 -14.667  -3.380  1.00  0.00     0.001 A 
HETATM   14  C   UNL     1      40.006 -13.448  -2.960  1.00  0.00     0.009 A 
HETATM   15  C   UNL     1      39.947 -13.116  -1.594  1.00  0.00    -0.035 A 
HETATM   16  C   UNL     1      39.257 -11.827  -1.242  1.00  0.00     0.050 C 
ENDBRANCH   6   9
ENDBRANCH   4   5
ENDBRANCH   1   4
BRANCH   1  17
HETATM   17  C   UNL     1      42.789 -14.468   4.275  1.00  0.00     0.276 C 
BRANCH  17  18
HETATM   18  C   UNL     1      43.232 -15.898   4.341  1.00  0.00     0.009 A 
HETATM   19  C   UNL     1      43.625 -16.526   5.515  1.00  0.00     0.134 A 
HETATM   20 CL   UNL     1      43.635 -15.734   7.041  1.00  0.00    -0.062 Cl
HETATM   21  N   UNL     1      44.030 -17.806   5.602  1.00  0.00    -0.235 NA
HETATM   22  C   UNL     1      44.015 -18.560   4.491  1.00  0.00     0.071 A 
HETATM   23  C   UNL     1      43.610 -18.043   3.246  1.00  0.00    -0.006 A 
HETATM   24  C   UNL     1      44.395 -19.893   4.562  1.00  0.00     0.069 A 
HETATM   25  C   UNL     1      43.222 -16.696   3.188  1.00  0.00     0.026 A 
HETATM   26  C   UNL     1      43.595 -18.872   2.113  1.00  0.00     0.016 A 
HETATM   27  C   UNL     1      43.975 -20.213   2.212  1.00  0.00     0.038 A 
HETATM   28  C   UNL     1      44.373 -20.730   3.441  1.00  0.00     0.070 A 
BRANCH  28  29
HETATM   29  O   UNL     1      44.763 -22.016   3.684  1.00  0.00    -0.356 OA
HETATM   30  C   UNL     1      45.105 -22.349   5.025  1.00  0.00     0.210 C 
ENDBRANCH  28  29
ENDBRANCH  17  18
ENDBRANCH   1  17
TORSDOF 6
ENDMDL
MODEL 5
REMARK VINA RESULT:      -8.0      1.804      2.263
REMARK  6 active torsions:
REMARK  status: ('A' for Active; 'I' for Inactive)
REMARK    1  A    between atoms: C_3  and  N_4 
REMARK       I    between atoms: N_4  and  C_5 
REMARK    2  A    between atoms: C_5  and  C_6 
REMARK    3  A    between atoms: C_6  and  N_7 
REMARK    4  A    between atoms: N_7  and  C_9 
REMARK    5  A    between atoms: C_9  and  C_10 
REMARK    6  A    between atoms: C_18  and  O_19 
ROOT
HETATM    1  N   UNL     1      41.960 -14.604   4.369  1.00  0.00    -0.063 N 
HETATM    2  H   UNL     1      42.211 -15.171   3.545  1.00  0.00     0.280 HD
HETATM    3  C   UNL     1      43.088 -13.643   4.588  1.00  0.00     0.270 C 
ENDROOT
BRANCH   1   4
HETATM    4  C   UNL     1      41.850 -15.628   5.506  1.00  0.00     0.337 C 
BRANCH   4   5
HETATM    5  C   UNL     1      42.105 -17.063   5.037  1.00  0.00     0.248 C 
HETATM    6  N   UNL     1      43.389 -17.287   4.573  1.00  0.00    -0.325 N 
HETATM    7  H   UNL     1      43.890 -16.484   4.210  1.00  0.00     0.169 HD
HETATM    8  O   UNL     1      41.181 -17.874   5.052  1.00  0.00    -0.271 OA
BRANCH   6   9
HETATM    9  C   UNL     1      43.821 -18.537   4.051  1.00  0.00     0.046 A 
HETATM   10  C   UNL     1      43.888 -18.679   2.644  1.00  0.00    -0.035 A 
HETATM   11  C   UNL     1      43.526 -17.569   1.692  1.00  0.00     0.050 C 
HETATM   12  C   UNL     1      44.287 -19.908   2.093  1.00  0.00     0.009 A 
HETATM   13  C   UNL     1      44.614 -20.981   2.912  1.00  0.00     0.001 A 
HETATM   14  C   UNL     1      44.585 -20.830   4.294  1.00  0.00     0.009 A 
HETATM   15  C   UNL     1      44.222 -19.605   4.883  1.00  0.00    -0.035 A 
HETATM   16  C   UNL     1      44.342 -19.515   6.379  1.00  0.00     0.050 C 
ENDBRANCH   6   9
ENDBRANCH   4   5
ENDBRANCH   1   4
BRANCH   1  17
HETATM   17  C   UNL     1      40.659 -13.938   3.932  1.00  0.00     0.276 C 
BRANCH  17  18
HETATM   18  C   UNL     1      40.305 -13.996   2.477  1.00  0.00     0.009 A 
HETATM   19  C   UNL     1      39.355 -13.174   1.885  1.00  0.00     0.134 A 
HETATM   20 CL   UNL     1      38.480 -11.978   2.757  1.00  0.00    -0.062 Cl
HETATM   21  N   UNL     1      39.017 -13.207   0.584  1.00  0.00    -0.235 NA
HETATM   22  C   UNL     1      39.667 -14.056  -0.227  1.00  0.00     0.071 A 
HETATM   23  C   UNL     1      40.669 -14.921   0.251  1.00  0.00    -0.006 A 
HETATM   24  C   UNL     1      39.360 -14.084  -1.580  1.00  0.00     0.069 A 
HETATM   25  C   UNL     1      40.976 -14.879   1.620  1.00  0.00     0.026 A 
HETATM   26  C   UNL     1      41.334 -15.783  -0.635  1.00  0.00     0.016 A 
HETATM   27  C   UNL     1      41.012 -15.787  -1.995  1.00  0.00     0.038 A 
HETATM   28  C   UNL     1      40.025 -14.931  -2.473  1.00  0.00     0.070 A 
BRANCH  28  29
HETATM   29  O   UNL     1      39.613 -14.825  -3.771  1.00  0.00    -0.356 OA
HETATM   30  C   UNL     1      38.815 -15.884  -4.289  1.00  0.00     0.210 C 
ENDBRANCH  28  29
ENDBRANCH  17  18
ENDBRANCH   1  17
TORSDOF 6
ENDMDL
MODEL 6
REMARK VINA RESULT:      -8.0      2.718      8.509
REMARK  6 active torsions:
REMARK  status: ('A' for Active; 'I' for Inactive)
REMARK    1  A    between atoms: C_3  and  N_4 
REMARK       I    between atoms: N_4  and  C_5 
REMARK    2  A    between atoms: C_5  and  C_6 
REMARK    3  A    between atoms: C_6  and  N_7 
REMARK    4  A    between atoms: N_7  and  C_9 
REMARK    5  A    between atoms: C_9  and  C_10 
REMARK    6  A    between atoms: C_18  and  O_19 
ROOT
HETATM    1  N   UNL     1      40.832 -14.756   0.968  1.00  0.00    -0.063 N 
HETATM    2  H   UNL     1      39.989 -14.196   0.766  1.00  0.00     0.280 HD
HETATM    3  C   UNL     1      41.757 -13.872   1.746  1.00  0.00     0.270 C 
ENDROOT
BRANCH   1   4
HETATM    4  C   UNL     1      41.394 -15.096  -0.419  1.00  0.00     0.337 C 
BRANCH   4   5
HETATM    5  C   UNL     1      40.590 -14.459  -1.556  1.00  0.00     0.248 C 
HETATM    6  N   UNL     1      39.220 -14.612  -1.435  1.00  0.00    -0.325 N 
HETATM    7  H   UNL     1      38.895 -15.409  -0.900  1.00  0.00     0.169 HD
HETATM    8  O   UNL     1      41.186 -13.924  -2.489  1.00  0.00    -0.271 OA
BRANCH   6   9
HETATM    9  C   UNL     1      38.295 -14.135  -2.403  1.00  0.00     0.046 A 
HETATM   10  C   UNL     1      37.727 -12.854  -2.201  1.00  0.00    -0.035 A 
HETATM   11  C   UNL     1      38.060 -11.990  -1.013  1.00  0.00     0.050 C 
HETATM   12  C   UNL     1      36.790 -12.362  -3.124  1.00  0.00     0.009 A 
HETATM   13  C   UNL     1      36.419 -13.115  -4.231  1.00  0.00     0.001 A 
HETATM   14  C   UNL     1      37.007 -14.356  -4.451  1.00  0.00     0.009 A 
HETATM   15  C   UNL     1      37.972 -14.869  -3.565  1.00  0.00    -0.035 A 
HETATM   16  C   UNL     1      38.631 -16.162  -3.962  1.00  0.00     0.050 C 
ENDBRANCH   6   9
ENDBRANCH   4   5
ENDBRANCH   1   4
BRANCH   1  17
HETATM   17  C   UNL     1      40.270 -15.924   1.773  1.00  0.00     0.276 C 
BRANCH  17  18
HETATM   18  C   UNL     1      41.247 -16.797   2.501  1.00  0.00     0.009 A 
HETATM   19  C   UNL     1      41.506 -16.691   3.860  1.00  0.00     0.134 A 
HETATM   20 CL   UNL     1      40.720 -15.547   4.876  1.00  0.00    -0.062 Cl
HETATM   21  N   UNL     1      42.378 -17.459   4.537  1.00  0.00    -0.235 NA
HETATM   22  C   UNL     1      43.020 -18.436   3.877  1.00  0.00     0.071 A 
HETATM   23  C   UNL     1      42.820 -18.659   2.501  1.00  0.00    -0.006 A 
HETATM   24  C   UNL     1      43.899 -19.264   4.560  1.00  0.00     0.069 A 
HETATM   25  C   UNL     1      41.924 -17.819   1.822  1.00  0.00     0.026 A 
HETATM   26  C   UNL     1      43.501 -19.702   1.853  1.00  0.00     0.016 A 
HETATM   27  C   UNL     1      44.375 -20.527   2.565  1.00  0.00     0.038 A 
HETATM   28  C   UNL     1      44.574 -20.313   3.926  1.00  0.00     0.070 A 
BRANCH  28  29
HETATM   29  O   UNL     1      45.390 -21.041   4.744  1.00  0.00    -0.356 OA
HETATM   30  C   UNL     1      44.935 -22.331   5.135  1.00  0.00     0.210 C 
ENDBRANCH  28  29
ENDBRANCH  17  18
ENDBRANCH   1  17
TORSDOF 6
ENDMDL
MODEL 7
REMARK VINA RESULT:      -7.8      2.373      3.537
REMARK  6 active torsions:
REMARK  status: ('A' for Active; 'I' for Inactive)
REMARK    1  A    between atoms: C_3  and  N_4 
REMARK       I    between atoms: N_4  and  C_5 
REMARK    2  A    between atoms: C_5  and  C_6 
REMARK    3  A    between atoms: C_6  and  N_7 
REMARK    4  A    between atoms: N_7  and  C_9 
REMARK    5  A    between atoms: C_9  and  C_10 
REMARK    6  A    between atoms: C_18  and  O_19 
ROOT
HETATM    1  N   UNL     1      42.567 -14.711   3.695  1.00  0.00    -0.063 N 
HETATM    2  H   UNL     1      42.870 -15.404   2.993  1.00  0.00     0.280 HD
HETATM    3  C   UNL     1      43.767 -13.875   4.017  1.00  0.00     0.270 C 
ENDROOT
BRANCH   1   4
HETATM    4  C   UNL     1      42.123 -15.563   4.891  1.00  0.00     0.337 C 
BRANCH   4   5
HETATM    5  C   UNL     1      42.306 -17.064   4.649  1.00  0.00     0.248 C 
HETATM    6  N   UNL     1      43.614 -17.444   4.410  1.00  0.00    -0.325 N 
HETATM    7  H   UNL     1      44.232 -16.738   4.025  1.00  0.00     0.169 HD
HETATM    8  O   UNL     1      41.318 -17.795   4.631  1.00  0.00    -0.271 OA
BRANCH   6   9
HETATM    9  C   UNL     1      43.995 -18.782   4.119  1.00  0.00     0.046 A 
HETATM   10  C   UNL     1      44.317 -19.630   5.206  1.00  0.00    -0.035 A 
HETATM   11  C   UNL     1      44.271 -19.173   6.640  1.00  0.00     0.050 C 
HETATM   12  C   UNL     1      44.722 -20.951   4.954  1.00  0.00     0.009 A 
HETATM   13  C   UNL     1      44.808 -21.432   3.654  1.00  0.00     0.001 A 
HETATM   14  C   UNL     1      44.455 -20.612   2.589  1.00  0.00     0.009 A 
HETATM   15  C   UNL     1      44.014 -19.293   2.803  1.00  0.00    -0.035 A 
HETATM   16  C   UNL     1      43.542 -18.535   1.593  1.00  0.00     0.050 C 
ENDBRANCH   6   9
ENDBRANCH   4   5
ENDBRANCH   1   4
BRANCH   1  17
HETATM   17  C   UNL     1      41.465 -13.953   2.961  1.00  0.00     0.276 C 
BRANCH  17  18
HETATM   18  C   UNL     1      41.662 -13.686   1.499  1.00  0.00     0.009 A 
HETATM   19  C   UNL     1      41.433 -14.631   0.509  1.00  0.00     0.134 A 
HETATM   20 CL   UNL     1      40.880 -16.224   0.847  1.00  0.00    -0.062 Cl
HETATM   21  N   UNL     1      41.605 -14.419  -0.808  1.00  0.00    -0.235 NA
HETATM   22  C   UNL     1      41.978 -13.197  -1.218  1.00  0.00     0.071 A 
HETATM   23  C   UNL     1      42.214 -12.148  -0.310  1.00  0.00    -0.006 A 
HETATM   24  C   UNL     1      42.128 -12.944  -2.574  1.00  0.00     0.069 A 
HETATM   25  C   UNL     1      42.053 -12.414   1.059  1.00  0.00     0.026 A 
HETATM   26  C   UNL     1      42.589 -10.880  -0.784  1.00  0.00     0.016 A 
HETATM   27  C   UNL     1      42.726 -10.649  -2.155  1.00  0.00     0.038 A 
HETATM   28  C   UNL     1      42.490 -11.681  -3.057  1.00  0.00     0.070 A 
BRANCH  28  29
HETATM   29  O   UNL     1      42.581 -11.597  -4.417  1.00  0.00    -0.356 OA
HETATM   30  C   UNL     1      41.758 -10.633  -5.064  1.00  0.00     0.210 C 
ENDBRANCH  28  29
ENDBRANCH  17  18
ENDBRANCH   1  17
TORSDOF 6
ENDMDL
MODEL 8
REMARK VINA RESULT:      -7.8      1.981      2.586
REMARK  6 active torsions:
REMARK  status: ('A' for Active; 'I' for Inactive)
REMARK    1  A    between atoms: C_3  and  N_4 
REMARK       I    between atoms: N_4  and  C_5 
REMARK    2  A    between atoms: C_5  and  C_6 
REMARK    3  A    between atoms: C_6  and  N_7 
REMARK    4  A    between atoms: N_7  and  C_9 
REMARK    5  A    between atoms: C_9  and  C_10 
REMARK    6  A    between atoms: C_18  and  O_19 
ROOT
HETATM    1  N   UNL     1      42.236 -14.726   4.700  1.00  0.00    -0.063 N 
HETATM    2  H   UNL     1      42.915 -15.068   4.002  1.00  0.00     0.280 HD
HETATM    3  C   UNL     1      42.822 -13.482   5.293  1.00  0.00     0.270 C 
ENDROOT
BRANCH   1   4
HETATM    4  C   UNL     1      42.148 -15.864   5.724  1.00  0.00     0.337 C 
BRANCH   4   5
HETATM    5  C   UNL     1      42.301 -17.248   5.087  1.00  0.00     0.248 C 
HETATM    6  N   UNL     1      43.563 -17.500   4.577  1.00  0.00    -0.325 N 
HETATM    7  H   UNL     1      44.113 -16.694   4.300  1.00  0.00     0.169 HD
HETATM    8  O   UNL     1      41.326 -17.993   5.024  1.00  0.00    -0.271 OA
BRANCH   6   9
HETATM    9  C   UNL     1      43.904 -18.705   3.906  1.00  0.00     0.046 A 
HETATM   10  C   UNL     1      43.979 -18.677   2.492  1.00  0.00    -0.035 A 
HETATM   11  C   UNL     1      43.716 -17.434   1.684  1.00  0.00     0.050 C 
HETATM   12  C   UNL     1      44.290 -19.856   1.795  1.00  0.00     0.009 A 
HETATM   13  C   UNL     1      44.523 -21.044   2.475  1.00  0.00     0.001 A 
HETATM   14  C   UNL     1      44.487 -21.063   3.865  1.00  0.00     0.009 A 
HETATM   15  C   UNL     1      44.211 -19.896   4.600  1.00  0.00    -0.035 A 
HETATM   16  C   UNL     1      44.317 -20.000   6.096  1.00  0.00     0.050 C 
ENDBRANCH   6   9
ENDBRANCH   4   5
ENDBRANCH   1   4
BRANCH   1  17
HETATM   17  C   UNL     1      40.989 -14.478   3.856  1.00  0.00     0.276 C 
BRANCH  17  18
HETATM   18  C   UNL     1      41.172 -14.318   2.377  1.00  0.00     0.009 A 
HETATM   19  C   UNL     1      40.836 -15.297   1.453  1.00  0.00     0.134 A 
HETATM   20 CL   UNL     1      40.152 -16.811   1.900  1.00  0.00    -0.062 Cl
HETATM   21  N   UNL     1      40.992 -15.181   0.122  1.00  0.00    -0.235 NA
HETATM   22  C   UNL     1      41.462 -14.024  -0.370  1.00  0.00     0.071 A 
HETATM   23  C   UNL     1      41.812 -12.948   0.466  1.00  0.00    -0.006 A 
HETATM   24  C   UNL     1      41.599 -13.867  -1.742  1.00  0.00     0.069 A 
HETATM   25  C   UNL     1      41.663 -13.116   1.852  1.00  0.00     0.026 A 
HETATM   26  C   UNL     1      42.286 -11.750  -0.093  1.00  0.00     0.016 A 
HETATM   27  C   UNL     1      42.408 -11.614  -1.478  1.00  0.00     0.038 A 
HETATM   28  C   UNL     1      42.059 -12.674  -2.309  1.00  0.00     0.070 A 
BRANCH  28  29
HETATM   29  O   UNL     1      42.123 -12.680  -3.674  1.00  0.00    -0.356 OA
HETATM   30  C   UNL     1      42.264 -11.421  -4.323  1.00  0.00     0.210 C 
ENDBRANCH  28  29
ENDBRANCH  17  18
ENDBRANCH   1  17
TORSDOF 6
ENDMDL
MODEL 9
REMARK VINA RESULT:      -7.7      1.996      7.635
REMARK  6 active torsions:
REMARK  status: ('A' for Active; 'I' for Inactive)
REMARK    1  A    between atoms: C_3  and  N_4 
REMARK       I    between atoms: N_4  and  C_5 
REMARK    2  A    between atoms: C_5  and  C_6 
REMARK    3  A    between atoms: C_6  and  N_7 
REMARK    4  A    between atoms: N_7  and  C_9 
REMARK    5  A    between atoms: C_9  and  C_10 
REMARK    6  A    between atoms: C_18  and  O_19 
ROOT
HETATM    1  N   UNL     1      40.990 -14.807   3.052  1.00  0.00    -0.063 N 
HETATM    2  H   UNL     1      40.718 -15.377   3.868  1.00  0.00     0.280 HD
HETATM    3  C   UNL     1      40.607 -13.394   3.368  1.00  0.00     0.270 C 
ENDROOT
BRANCH   1   4
HETATM    4  C   UNL     1      40.156 -15.384   1.901  1.00  0.00     0.337 C 
BRANCH   4   5
HETATM    5  C   UNL     1      40.160 -14.487   0.660  1.00  0.00     0.248 C 
HETATM    6  N   UNL     1      41.358 -14.484  -0.034  1.00  0.00    -0.325 N 
HETATM    7  H   UNL     1      42.193 -14.707   0.497  1.00  0.00     0.169 HD
HETATM    8  O   UNL     1      39.164 -13.816   0.399  1.00  0.00    -0.271 OA
BRANCH   6   9
HETATM    9  C   UNL     1      41.587 -13.687  -1.187  1.00  0.00     0.046 A 
HETATM   10  C   UNL     1      41.327 -14.265  -2.453  1.00  0.00    -0.035 A 
HETATM   11  C   UNL     1      40.824 -15.675  -2.620  1.00  0.00     0.050 C 
HETATM   12  C   UNL     1      41.566 -13.515  -3.616  1.00  0.00     0.009 A 
HETATM   13  C   UNL     1      42.052 -12.216  -3.537  1.00  0.00     0.001 A 
HETATM   14  C   UNL     1      42.270 -11.635  -2.293  1.00  0.00     0.009 A 
HETATM   15  C   UNL     1      42.012 -12.343  -1.105  1.00  0.00    -0.035 A 
HETATM   16  C   UNL     1      42.166 -11.580   0.182  1.00  0.00     0.050 C 
ENDBRANCH   6   9
ENDBRANCH   4   5
ENDBRANCH   1   4
BRANCH   1  17
HETATM   17  C   UNL     1      42.497 -15.035   2.975  1.00  0.00     0.276 C 
BRANCH  17  18
HETATM   18  C   UNL     1      43.010 -16.400   3.320  1.00  0.00     0.009 A 
HETATM   19  C   UNL     1      43.383 -16.778   4.602  1.00  0.00     0.134 A 
HETATM   20 CL   UNL     1      43.285 -15.720   5.955  1.00  0.00    -0.062 Cl
HETATM   21  N   UNL     1      43.849 -17.994   4.939  1.00  0.00    -0.235 NA
HETATM   22  C   UNL     1      43.922 -18.939   3.988  1.00  0.00     0.071 A 
HETATM   23  C   UNL     1      43.547 -18.684   2.656  1.00  0.00    -0.006 A 
HETATM   24  C   UNL     1      44.367 -20.211   4.317  1.00  0.00     0.069 A 
HETATM   25  C   UNL     1      43.092 -17.395   2.335  1.00  0.00     0.026 A 
HETATM   26  C   UNL     1      43.624 -19.706   1.696  1.00  0.00     0.016 A 
HETATM   27  C   UNL     1      44.068 -20.981   2.054  1.00  0.00     0.038 A 
HETATM   28  C   UNL     1      44.437 -21.240   3.371  1.00  0.00     0.070 A 
BRANCH  28  29
HETATM   29  O   UNL     1      44.883 -22.434   3.861  1.00  0.00    -0.356 OA
HETATM   30  C   UNL     1      45.191 -22.492   5.249  1.00  0.00     0.210 C 
ENDBRANCH  28  29
ENDBRANCH  17  18
ENDBRANCH   1  17
TORSDOF 6
ENDMDL
MODEL 10
REMARK VINA RESULT:      -7.6      1.805      2.695
REMARK  6 active torsions:
REMARK  status: ('A' for Active; 'I' for Inactive)
REMARK    1  A    between atoms: C_3  and  N_4 
REMARK       I    between atoms: N_4  and  C_5 
REMARK    2  A    between atoms: C_5  and  C_6 
REMARK    3  A    between atoms: C_6  and  N_7 
REMARK    4  A    between atoms: N_7  and  C_9 
REMARK    5  A    between atoms: C_9  and  C_10 
REMARK    6  A    between atoms: C_18  and  O_19 
ROOT
HETATM    1  N   UNL     1      42.050 -14.717   5.400  1.00  0.00    -0.063 N 
HETATM    2  H   UNL     1      42.553 -15.115   4.593  1.00  0.00     0.280 HD
HETATM    3  C   UNL     1      43.083 -14.075   6.275  1.00  0.00     0.270 C 
ENDROOT
BRANCH   1   4
HETATM    4  C   UNL     1      41.404 -15.934   6.075  1.00  0.00     0.337 C 
BRANCH   4   5
HETATM    5  C   UNL     1      41.682 -17.242   5.328  1.00  0.00     0.248 C 
HETATM    6  N   UNL     1      42.897 -17.267   4.665  1.00  0.00    -0.325 N 
HETATM    7  H   UNL     1      43.284 -16.372   4.387  1.00  0.00     0.169 HD
HETATM    8  O   UNL     1      40.828 -18.125   5.322  1.00  0.00    -0.271 OA
BRANCH   6   9
HETATM    9  C   UNL     1      43.330 -18.368   3.877  1.00  0.00     0.046 A 
HETATM   10  C   UNL     1      44.202 -19.308   4.477  1.00  0.00    -0.035 A 
HETATM   11  C   UNL     1      44.680 -19.187   5.900  1.00  0.00     0.050 C 
HETATM   12  C   UNL     1      44.670 -20.395   3.720  1.00  0.00     0.009 A 
HETATM   13  C   UNL     1      44.286 -20.556   2.395  1.00  0.00     0.001 A 
HETATM   14  C   UNL     1      43.400 -19.654   1.818  1.00  0.00     0.009 A 
HETATM   15  C   UNL     1      42.884 -18.571   2.553  1.00  0.00    -0.035 A 
HETATM   16  C   UNL     1      41.841 -17.729   1.871  1.00  0.00     0.050 C 
ENDBRANCH   6   9
ENDBRANCH   4   5
ENDBRANCH   1   4
BRANCH   1  17
HETATM   17  C   UNL     1      41.097 -13.724   4.742  1.00  0.00     0.276 C 
BRANCH  17  18
HETATM   18  C   UNL     1      40.904 -13.826   3.259  1.00  0.00     0.009 A 
HETATM   19  C   UNL     1      41.937 -14.083   2.368  1.00  0.00     0.134 A 
HETATM   20 CL   UNL     1      43.564 -14.329   2.867  1.00  0.00    -0.062 Cl
HETATM   21  N   UNL     1      41.792 -14.177   1.034  1.00  0.00    -0.235 NA
HETATM   22  C   UNL     1      40.561 -14.064   0.512  1.00  0.00     0.071 A 
HETATM   23  C   UNL     1      39.431 -13.830   1.318  1.00  0.00    -0.006 A 
HETATM   24  C   UNL     1      40.381 -14.192  -0.858  1.00  0.00     0.069 A 
HETATM   25  C   UNL     1      39.623 -13.708   2.703  1.00  0.00     0.026 A 
HETATM   26  C   UNL     1      38.158 -13.733   0.731  1.00  0.00     0.016 A 
HETATM   27  C   UNL     1      38.003 -13.873  -0.650  1.00  0.00     0.038 A 
HETATM   28  C   UNL     1      39.116 -14.108  -1.451  1.00  0.00     0.070 A 
BRANCH  28  29
HETATM   29  O   UNL     1      39.112 -14.270  -2.807  1.00  0.00    -0.356 OA
HETATM   30  C   UNL     1      40.231 -13.762  -3.525  1.00  0.00     0.210 C 
ENDBRANCH  28  29
ENDBRANCH  17  18
ENDBRANCH   1  17
TORSDOF 6
ENDMDL
