MODEL 1
REMARK VINA RESULT:      -8.9      0.000      0.000
REMARK  11 active torsions:
REMARK  status: ('A' for Active; 'I' for Inactive)
REMARK    1  A    between atoms: O_2  and  C_3 
REMARK    2  A    between atoms: C_6  and  C_7 
REMARK    3  A    between atoms: C_7  and  N_8 
REMARK    4  A    between atoms: N_8  and  C_9 
REMARK    5  A    between atoms: N_8  and  C_22 
REMARK    6  A    between atoms: C_9  and  N_10 
REMARK    7  A    between atoms: N_10  and  C_11 
REMARK    8  A    between atoms: C_11  and  C_12 
REMARK    9  A    between atoms: C_12  and  C_13 
REMARK   10  A    between atoms: C_13  and  N_14 
REMARK   11  A    between atoms: C_22  and  C_23 
ROOT
HETATM    1  N   UNL     1      42.058 -14.333   3.181  1.00  0.00    -0.350 N 
ENDROOT
BRANCH   1   2
HETATM    2  C   UNL     1      42.202 -13.799   4.555  1.00  0.00     0.164 C 
BRANCH   2   3
HETATM    3  C   UNL     1      42.458 -14.807   5.650  1.00  0.00    -0.040 A 
HETATM    4  C   UNL     1      41.525 -15.795   5.986  1.00  0.00     0.011 A 
HETATM    5  C   UNL     1      41.839 -16.763   6.948  1.00  0.00     0.037 A 
HETATM    6  C   UNL     1      43.089 -16.752   7.569  1.00  0.00     0.068 A 
HETATM    7  C   UNL     1      44.013 -15.760   7.260  1.00  0.00     0.037 A 
HETATM    8  C   UNL     1      43.708 -14.805   6.294  1.00  0.00     0.011 A 
BRANCH   6   9
HETATM    9  O   UNL     1      43.467 -17.650   8.527  1.00  0.00    -0.356 OA
HETATM   10  C   UNL     1      44.240 -18.733   8.013  1.00  0.00     0.210 C 
ENDBRANCH   6   9
ENDBRANCH   2   3
ENDBRANCH   1   2
BRANCH   1  11
HETATM   11  C   UNL     1      41.256 -13.668   2.230  1.00  0.00     0.170 C 
HETATM   12  S   UNL     1      41.800 -12.542   1.106  1.00  0.00    -0.041 SA
BRANCH  11  13
HETATM   13  N   UNL     1      39.918 -14.014   2.349  1.00  0.00    -0.367 N 
HETATM   14  H   UNL     1      39.527 -13.903   3.276  1.00  0.00     0.161 HD
BRANCH  13  15
HETATM   15  C   UNL     1      39.161 -14.877   1.453  1.00  0.00     0.123 C 
BRANCH  15  16
HETATM   16  C   UNL     1      38.022 -14.141   0.755  1.00  0.00     0.047 C 
BRANCH  16  17
HETATM   17  C   UNL     1      38.335 -13.592  -0.635  1.00  0.00     0.236 C 
BRANCH  17  18
HETATM   18  N   UNL     1      38.718 -14.642  -1.644  1.00  0.00    -0.067 N 
HETATM   19  H   UNL     1      38.559 -15.567  -1.205  1.00  0.00     0.280 HD
HETATM   20  C   UNL     1      37.929 -14.593  -2.944  1.00  0.00     0.261 C 
HETATM   21  C   UNL     1      38.435 -15.673  -3.907  1.00  0.00     0.195 C 
HETATM   22  O   UNL     1      39.835 -15.518  -4.161  1.00  0.00    -0.388 OA
HETATM   23  C   UNL     1      40.599 -15.666  -2.959  1.00  0.00     0.195 C 
HETATM   24  C   UNL     1      40.220 -14.589  -1.937  1.00  0.00     0.261 C 
ENDBRANCH  17  18
ENDBRANCH  16  17
ENDBRANCH  15  16
ENDBRANCH  13  15
ENDBRANCH  11  13
ENDBRANCH   1  11
BRANCH   1  25
HETATM   25  C   UNL     1      43.307 -14.962   2.661  1.00  0.00     0.169 C 
BRANCH  25  26
HETATM   26  C   UNL     1      43.127 -16.458   2.608  1.00  0.00     0.029 C 
HETATM   27  C   UNL     1      42.675 -17.046   1.309  1.00  0.00     0.253 C 
HETATM   28  O   UNL     1      42.240 -16.343   0.400  1.00  0.00    -0.268 OA
HETATM   29  N   UNL     1      42.810 -18.400   1.161  1.00  0.00    -0.322 N 
HETATM   30  C   UNL     1      43.317 -19.242   2.158  1.00  0.00     0.048 A 
HETATM   31  H   UNL     1      42.556 -18.779   0.259  1.00  0.00     0.169 HD
HETATM   32  C   UNL     1      43.607 -18.700   3.429  1.00  0.00    -0.006 A 
HETATM   33  C   UNL     1      43.580 -20.581   1.867  1.00  0.00     0.070 A 
HETATM   34  C   UNL     1      44.177 -19.503   4.423  1.00  0.00     0.053 A 
HETATM   35  C   UNL     1      43.438 -17.263   3.640  1.00  0.00     0.028 C 
HETATM   36  C   UNL     1      44.466 -20.809   4.097  1.00  0.00     0.106 A 
HETATM   37  C   UNL     1      44.179 -21.331   2.856  1.00  0.00     0.107 A 
HETATM   38  O   UNL     1      45.092 -21.704   4.905  1.00  0.00    -0.323 OA
HETATM   39  O   UNL     1      44.589 -22.622   2.733  1.00  0.00    -0.323 OA
HETATM   40  C   UNL     1      45.224 -22.832   4.014  1.00  0.00     0.352 A 
ENDBRANCH  25  26
ENDBRANCH   1  25
TORSDOF 11
ENDMDL
MODEL 2
REMARK VINA RESULT:      -8.5      3.196      7.891
REMARK  11 active torsions:
REMARK  status: ('A' for Active; 'I' for Inactive)
REMARK    1  A    between atoms: O_2  and  C_3 
REMARK    2  A    between atoms: C_6  and  C_7 
REMARK    3  A    between atoms: C_7  and  N_8 
REMARK    4  A    between atoms: N_8  and  C_9 
REMARK    5  A    between atoms: N_8  and  C_22 
REMARK    6  A    between atoms: C_9  and  N_10 
REMARK    7  A    between atoms: N_10  and  C_11 
REMARK    8  A    between atoms: C_11  and  C_12 
REMARK    9  A    between atoms: C_12  and  C_13 
REMARK   10  A    between atoms: C_13  and  N_14 
REMARK   11  A    between atoms: C_22  and  C_23 
ROOT
HETATM    1  N   UNL     1      42.280 -15.138   5.537  1.00  0.00    -0.350 N 
ENDROOT
BRANCH   1   2
HETATM    2  C   UNL     1      40.986 -15.312   4.837  1.00  0.00     0.164 C 
BRANCH   2   3
HETATM    3  C   UNL     1      41.041 -15.460   3.336  1.00  0.00    -0.040 A 
HETATM    4  C   UNL     1      41.484 -14.426   2.502  1.00  0.00     0.011 A 
HETATM    5  C   UNL     1      41.602 -14.636   1.122  1.00  0.00     0.037 A 
HETATM    6  C   UNL     1      41.288 -15.880   0.574  1.00  0.00     0.068 A 
HETATM    7  C   UNL     1      40.825 -16.906   1.391  1.00  0.00     0.037 A 
HETATM    8  C   UNL     1      40.720 -16.703   2.765  1.00  0.00     0.011 A 
BRANCH   6   9
HETATM    9  O   UNL     1      41.362 -16.161  -0.761  1.00  0.00    -0.356 OA
HETATM   10  C   UNL     1      40.806 -15.138  -1.585  1.00  0.00     0.210 C 
ENDBRANCH   6   9
ENDBRANCH   2   3
ENDBRANCH   1   2
BRANCH   1  11
HETATM   11  C   UNL     1      42.830 -13.853   5.725  1.00  0.00     0.170 C 
HETATM   12  S   UNL     1      41.955 -12.443   6.002  1.00  0.00    -0.041 SA
BRANCH  11  13
HETATM   13  N   UNL     1      44.212 -13.860   5.611  1.00  0.00    -0.367 N 
HETATM   14  H   UNL     1      44.566 -14.153   4.709  1.00  0.00     0.161 HD
BRANCH  13  15
HETATM   15  C   UNL     1      45.174 -13.908   6.704  1.00  0.00     0.123 C 
BRANCH  15  16
HETATM   16  C   UNL     1      44.583 -13.429   8.025  1.00  0.00     0.047 C 
BRANCH  16  17
HETATM   17  C   UNL     1      45.328 -12.291   8.717  1.00  0.00     0.236 C 
BRANCH  17  18
HETATM   18  N   UNL     1      44.509 -11.543   9.737  1.00  0.00    -0.067 N 
HETATM   19  H   UNL     1      45.088 -10.756  10.082  1.00  0.00     0.280 HD
HETATM   20  C   UNL     1      43.202 -10.974   9.208  1.00  0.00     0.261 C 
HETATM   21  C   UNL     1      42.436 -10.279  10.339  1.00  0.00     0.195 C 
HETATM   22  O   UNL     1      42.191 -11.182  11.422  1.00  0.00    -0.388 OA
HETATM   23  C   UNL     1      43.417 -11.646  11.998  1.00  0.00     0.195 C 
HETATM   24  C   UNL     1      44.245 -12.418  10.965  1.00  0.00     0.261 C 
ENDBRANCH  17  18
ENDBRANCH  16  17
ENDBRANCH  15  16
ENDBRANCH  13  15
ENDBRANCH  11  13
ENDBRANCH   1  11
BRANCH   1  25
HETATM   25  C   UNL     1      42.479 -16.107   6.655  1.00  0.00     0.169 C 
BRANCH  25  26
HETATM   26  C   UNL     1      43.295 -17.275   6.161  1.00  0.00     0.029 C 
HETATM   27  C   UNL     1      43.787 -18.245   7.187  1.00  0.00     0.253 C 
HETATM   28  O   UNL     1      43.745 -17.991   8.389  1.00  0.00    -0.268 OA
HETATM   29  N   UNL     1      44.248 -19.450   6.730  1.00  0.00    -0.322 N 
HETATM   30  C   UNL     1      44.301 -19.796   5.374  1.00  0.00     0.048 A 
HETATM   31  H   UNL     1      44.525 -20.120   7.435  1.00  0.00     0.169 HD
HETATM   32  C   UNL     1      43.969 -18.823   4.407  1.00  0.00    -0.006 A 
HETATM   33  C   UNL     1      44.623 -21.102   5.004  1.00  0.00     0.070 A 
HETATM   34  C   UNL     1      43.947 -19.160   3.048  1.00  0.00     0.053 A 
HETATM   35  C   UNL     1      43.509 -17.509   4.854  1.00  0.00     0.028 C 
HETATM   36  C   UNL     1      44.227 -20.467   2.713  1.00  0.00     0.106 A 
HETATM   37  C   UNL     1      44.552 -21.409   3.662  1.00  0.00     0.107 A 
HETATM   38  O   UNL     1      44.173 -20.988   1.460  1.00  0.00    -0.323 OA
HETATM   39  O   UNL     1      44.744 -22.641   3.119  1.00  0.00    -0.323 OA
HETATM   40  C   UNL     1      44.440 -22.380   1.731  1.00  0.00     0.352 A 
ENDBRANCH  25  26
ENDBRANCH   1  25
TORSDOF 11
ENDMDL
MODEL 3
REMARK VINA RESULT:      -8.2      3.599      8.752
REMARK  11 active torsions:
REMARK  status: ('A' for Active; 'I' for Inactive)
REMARK    1  A    between atoms: O_2  and  C_3 
REMARK    2  A    between atoms: C_6  and  C_7 
REMARK    3  A    between atoms: C_7  and  N_8 
REMARK    4  A    between atoms: N_8  and  C_9 
REMARK    5  A    between atoms: N_8  and  C_22 
REMARK    6  A    between atoms: C_9  and  N_10 
REMARK    7  A    between atoms: N_10  and  C_11 
REMARK    8  A    between atoms: C_11  and  C_12 
REMARK    9  A    between atoms: C_12  and  C_13 
REMARK   10  A    between atoms: C_13  and  N_14 
REMARK   11  A    between atoms: C_22  and  C_23 
ROOT
HETATM    1  N   UNL     1      42.446 -16.318   5.861  1.00  0.00    -0.350 N 
ENDROOT
BRANCH   1   2
HETATM    2  C   UNL     1      43.175 -16.336   4.572  1.00  0.00     0.164 C 
BRANCH   2   3
HETATM    3  C   UNL     1      43.500 -17.693   3.995  1.00  0.00    -0.040 A 
HETATM    4  C   UNL     1      43.146 -18.051   2.688  1.00  0.00     0.011 A 
HETATM    5  C   UNL     1      43.543 -19.287   2.164  1.00  0.00     0.037 A 
HETATM    6  C   UNL     1      44.303 -20.164   2.940  1.00  0.00     0.068 A 
HETATM    7  C   UNL     1      44.639 -19.828   4.247  1.00  0.00     0.037 A 
HETATM    8  C   UNL     1      44.256 -18.593   4.765  1.00  0.00     0.011 A 
BRANCH   6   9
HETATM    9  O   UNL     1      44.717 -21.393   2.509  1.00  0.00    -0.356 OA
HETATM   10  C   UNL     1      43.944 -21.900   1.422  1.00  0.00     0.210 C 
ENDBRANCH   6   9
ENDBRANCH   2   3
ENDBRANCH   1   2
BRANCH   1  11
HETATM   11  C   UNL     1      43.140 -16.152   7.078  1.00  0.00     0.170 C 
HETATM   12  S   UNL     1      43.477 -17.371   8.188  1.00  0.00    -0.041 SA
BRANCH  11  13
HETATM   13  N   UNL     1      43.489 -14.828   7.299  1.00  0.00    -0.367 N 
HETATM   14  H   UNL     1      42.732 -14.163   7.201  1.00  0.00     0.161 HD
BRANCH  13  15
HETATM   15  C   UNL     1      44.829 -14.261   7.234  1.00  0.00     0.123 C 
BRANCH  15  16
HETATM   16  C   UNL     1      44.910 -12.879   7.874  1.00  0.00     0.047 C 
BRANCH  16  17
HETATM   17  C   UNL     1      44.890 -12.848   9.401  1.00  0.00     0.236 C 
BRANCH  17  18
HETATM   18  N   UNL     1      43.652 -12.228   9.991  1.00  0.00    -0.067 N 
HETATM   19  H   UNL     1      42.878 -12.908   9.873  1.00  0.00     0.280 HD
HETATM   20  C   UNL     1      43.757 -11.881  11.469  1.00  0.00     0.261 C 
HETATM   21  C   UNL     1      42.460 -11.218  11.946  1.00  0.00     0.195 C 
HETATM   22  O   UNL     1      42.168 -10.049  11.174  1.00  0.00    -0.388 OA
HETATM   23  C   UNL     1      41.964 -10.377   9.795  1.00  0.00     0.195 C 
HETATM   24  C   UNL     1      43.228 -10.995   9.189  1.00  0.00     0.261 C 
ENDBRANCH  17  18
ENDBRANCH  16  17
ENDBRANCH  15  16
ENDBRANCH  13  15
ENDBRANCH  11  13
ENDBRANCH   1  11
BRANCH   1  25
HETATM   25  C   UNL     1      41.110 -15.659   5.773  1.00  0.00     0.169 C 
BRANCH  25  26
HETATM   26  C   UNL     1      41.046 -14.833   4.513  1.00  0.00     0.029 C 
HETATM   27  C   UNL     1      41.663 -13.471   4.557  1.00  0.00     0.253 C 
HETATM   28  O   UNL     1      41.993 -12.947   5.618  1.00  0.00    -0.268 OA
HETATM   29  N   UNL     1      41.884 -12.852   3.357  1.00  0.00    -0.322 N 
HETATM   30  C   UNL     1      41.544 -13.413   2.120  1.00  0.00     0.048 A 
HETATM   31  H   UNL     1      42.354 -11.957   3.395  1.00  0.00     0.169 HD
HETATM   32  C   UNL     1      40.834 -14.633   2.095  1.00  0.00    -0.006 A 
HETATM   33  C   UNL     1      41.958 -12.793   0.941  1.00  0.00     0.070 A 
HETATM   34  C   UNL     1      40.540 -15.251   0.874  1.00  0.00     0.053 A 
HETATM   35  C   UNL     1      40.542 -15.307   3.359  1.00  0.00     0.028 C 
HETATM   36  C   UNL     1      40.996 -14.640  -0.273  1.00  0.00     0.106 A 
HETATM   37  C   UNL     1      41.686 -13.450  -0.241  1.00  0.00     0.107 A 
HETATM   38  O   UNL     1      40.875 -15.136  -1.532  1.00  0.00    -0.323 OA
HETATM   39  O   UNL     1      42.082 -13.051  -1.479  1.00  0.00    -0.323 OA
HETATM   40  C   UNL     1      41.620 -14.156  -2.285  1.00  0.00     0.352 A 
ENDBRANCH  25  26
ENDBRANCH   1  25
TORSDOF 11
ENDMDL
MODEL 4
REMARK VINA RESULT:      -7.9      2.635      4.240
REMARK  11 active torsions:
REMARK  status: ('A' for Active; 'I' for Inactive)
REMARK    1  A    between atoms: O_2  and  C_3 
REMARK    2  A    between atoms: C_6  and  C_7 
REMARK    3  A    between atoms: C_7  and  N_8 
REMARK    4  A    between atoms: N_8  and  C_9 
REMARK    5  A    between atoms: N_8  and  C_22 
REMARK    6  A    between atoms: C_9  and  N_10 
REMARK    7  A    between atoms: N_10  and  C_11 
REMARK    8  A    between atoms: C_11  and  C_12 
REMARK    9  A    between atoms: C_12  and  C_13 
REMARK   10  A    between atoms: C_13  and  N_14 
REMARK   11  A    between atoms: C_22  and  C_23 
ROOT
HETATM    1  N   UNL     1      40.780 -14.940   1.028  1.00  0.00    -0.350 N 
ENDROOT
BRANCH   1   2
HETATM    2  C   UNL     1      41.924 -14.054   1.340  1.00  0.00     0.164 C 
BRANCH   2   3
HETATM    3  C   UNL     1      42.343 -13.971   2.788  1.00  0.00    -0.040 A 
HETATM    4  C   UNL     1      43.655 -14.234   3.201  1.00  0.00     0.011 A 
HETATM    5  C   UNL     1      44.020 -14.061   4.542  1.00  0.00     0.037 A 
HETATM    6  C   UNL     1      43.079 -13.615   5.471  1.00  0.00     0.068 A 
HETATM    7  C   UNL     1      41.767 -13.375   5.076  1.00  0.00     0.037 A 
HETATM    8  C   UNL     1      41.406 -13.534   3.741  1.00  0.00     0.011 A 
BRANCH   6   9
HETATM    9  O   UNL     1      43.351 -13.436   6.798  1.00  0.00    -0.356 OA
HETATM   10  C   UNL     1      44.563 -14.061   7.216  1.00  0.00     0.210 C 
ENDBRANCH   6   9
ENDBRANCH   2   3
ENDBRANCH   1   2
BRANCH   1  11
HETATM   11  C   UNL     1      39.609 -14.424   0.434  1.00  0.00     0.170 C 
HETATM   12  S   UNL     1      38.391 -13.587   1.235  1.00  0.00    -0.041 SA
BRANCH  11  13
HETATM   13  N   UNL     1      39.539 -14.725  -0.918  1.00  0.00    -0.367 N 
HETATM   14  H   UNL     1      39.937 -15.619  -1.179  1.00  0.00     0.161 HD
BRANCH  13  15
HETATM   15  C   UNL     1      39.362 -13.779  -2.011  1.00  0.00     0.123 C 
BRANCH  15  16
HETATM   16  C   UNL     1      40.549 -13.762  -2.969  1.00  0.00     0.047 C 
BRANCH  16  17
HETATM   17  C   UNL     1      41.922 -13.575  -2.326  1.00  0.00     0.236 C 
BRANCH  17  18
HETATM   18  N   UNL     1      42.567 -12.247  -2.620  1.00  0.00    -0.067 N 
HETATM   19  H   UNL     1      43.511 -12.438  -3.001  1.00  0.00     0.280 HD
HETATM   20  C   UNL     1      41.817 -11.383  -3.622  1.00  0.00     0.261 C 
HETATM   21  C   UNL     1      42.539 -10.043  -3.806  1.00  0.00     0.195 C 
HETATM   22  O   UNL     1      42.677  -9.360  -2.556  1.00  0.00    -0.388 OA
HETATM   23  C   UNL     1      43.470 -10.118  -1.636  1.00  0.00     0.195 C 
HETATM   24  C   UNL     1      42.808 -11.464  -1.326  1.00  0.00     0.261 C 
ENDBRANCH  17  18
ENDBRANCH  16  17
ENDBRANCH  15  16
ENDBRANCH  13  15
ENDBRANCH  11  13
ENDBRANCH   1  11
BRANCH   1  25
HETATM   25  C   UNL     1      41.196 -16.302   0.582  1.00  0.00     0.169 C 
BRANCH  25  26
HETATM   26  C   UNL     1      41.846 -17.027   1.733  1.00  0.00     0.029 C 
HETATM   27  C   UNL     1      43.209 -17.596   1.500  1.00  0.00     0.253 C 
HETATM   28  O   UNL     1      43.685 -17.687   0.371  1.00  0.00    -0.268 OA
HETATM   29  N   UNL     1      43.922 -17.970   2.606  1.00  0.00    -0.322 N 
HETATM   30  C   UNL     1      43.434 -17.869   3.915  1.00  0.00     0.048 A 
HETATM   31  H   UNL     1      44.864 -18.299   2.441  1.00  0.00     0.169 HD
HETATM   32  C   UNL     1      42.096 -17.466   4.116  1.00  0.00    -0.006 A 
HETATM   33  C   UNL     1      44.285 -18.112   4.993  1.00  0.00     0.070 A 
HETATM   34  C   UNL     1      41.601 -17.291   5.413  1.00  0.00     0.053 A 
HETATM   35  C   UNL     1      41.287 -17.095   2.955  1.00  0.00     0.028 C 
HETATM   36  C   UNL     1      42.474 -17.496   6.459  1.00  0.00     0.106 A 
HETATM   37  C   UNL     1      43.776 -17.891   6.255  1.00  0.00     0.107 A 
HETATM   38  O   UNL     1      42.192 -17.294   7.773  1.00  0.00    -0.323 OA
HETATM   39  O   UNL     1      44.473 -17.988   7.419  1.00  0.00    -0.323 OA
HETATM   40  C   UNL     1      43.480 -17.547   8.371  1.00  0.00     0.352 A 
ENDBRANCH  25  26
ENDBRANCH   1  25
TORSDOF 11
ENDMDL
MODEL 5
REMARK VINA RESULT:      -7.9      2.973      8.611
REMARK  11 active torsions:
REMARK  status: ('A' for Active; 'I' for Inactive)
REMARK    1  A    between atoms: O_2  and  C_3 
REMARK    2  A    between atoms: C_6  and  C_7 
REMARK    3  A    between atoms: C_7  and  N_8 
REMARK    4  A    between atoms: N_8  and  C_9 
REMARK    5  A    between atoms: N_8  and  C_22 
REMARK    6  A    between atoms: C_9  and  N_10 
REMARK    7  A    between atoms: N_10  and  C_11 
REMARK    8  A    between atoms: C_11  and  C_12 
REMARK    9  A    between atoms: C_12  and  C_13 
REMARK   10  A    between atoms: C_13  and  N_14 
REMARK   11  A    between atoms: C_22  and  C_23 
ROOT
HETATM    1  N   UNL     1      42.918 -16.489   4.073  1.00  0.00    -0.350 N 
ENDROOT
BRANCH   1   2
HETATM    2  C   UNL     1      43.637 -17.082   2.922  1.00  0.00     0.164 C 
BRANCH   2   3
HETATM    3  C   UNL     1      43.795 -18.583   2.922  1.00  0.00    -0.040 A 
HETATM    4  C   UNL     1      43.384 -19.375   1.842  1.00  0.00     0.011 A 
HETATM    5  C   UNL     1      43.629 -20.754   1.847  1.00  0.00     0.037 A 
HETATM    6  C   UNL     1      44.293 -21.343   2.925  1.00  0.00     0.068 A 
HETATM    7  C   UNL     1      44.684 -20.569   4.012  1.00  0.00     0.037 A 
HETATM    8  C   UNL     1      44.453 -19.195   4.003  1.00  0.00     0.011 A 
BRANCH   6   9
HETATM    9  O   UNL     1      44.557 -22.681   3.012  1.00  0.00    -0.356 OA
HETATM   10  C   UNL     1      44.825 -23.118   4.344  1.00  0.00     0.210 C 
ENDBRANCH   6   9
ENDBRANCH   2   3
ENDBRANCH   1   2
BRANCH   1  11
HETATM   11  C   UNL     1      43.300 -15.234   4.593  1.00  0.00     0.170 C 
HETATM   12  S   UNL     1      43.540 -13.833   3.695  1.00  0.00    -0.041 SA
BRANCH  11  13
HETATM   13  N   UNL     1      43.509 -15.285   5.963  1.00  0.00    -0.367 N 
HETATM   14  H   UNL     1      42.669 -15.367   6.522  1.00  0.00     0.161 HD
BRANCH  13  15
HETATM   15  C   UNL     1      44.691 -14.826   6.679  1.00  0.00     0.123 C 
BRANCH  15  16
HETATM   16  C   UNL     1      44.344 -14.037   7.937  1.00  0.00     0.047 C 
BRANCH  16  17
HETATM   17  C   UNL     1      45.033 -12.683   8.088  1.00  0.00     0.236 C 
BRANCH  17  18
HETATM   18  N   UNL     1      44.414 -11.785   9.127  1.00  0.00    -0.067 N 
HETATM   19  H   UNL     1      45.093 -11.028   9.326  1.00  0.00     0.280 HD
HETATM   20  C   UNL     1      43.098 -11.145   8.712  1.00  0.00     0.261 C 
HETATM   21  C   UNL     1      42.542 -10.295   9.859  1.00  0.00     0.195 C 
HETATM   22  O   UNL     1      42.369 -11.082  11.043  1.00  0.00    -0.388 OA
HETATM   23  C   UNL     1      43.619 -11.606  11.504  1.00  0.00     0.195 C 
HETATM   24  C   UNL     1      44.243 -12.530  10.454  1.00  0.00     0.261 C 
ENDBRANCH  17  18
ENDBRANCH  16  17
ENDBRANCH  15  16
ENDBRANCH  13  15
ENDBRANCH  11  13
ENDBRANCH   1  11
BRANCH   1  25
HETATM   25  C   UNL     1      41.453 -16.775   4.061  1.00  0.00     0.169 C 
BRANCH  25  26
HETATM   26  C   UNL     1      40.817 -16.069   2.890  1.00  0.00     0.029 C 
HETATM   27  C   UNL     1      40.070 -14.805   3.178  1.00  0.00     0.253 C 
HETATM   28  O   UNL     1      39.776 -14.477   4.324  1.00  0.00    -0.268 OA
HETATM   29  N   UNL     1      39.766 -14.008   2.108  1.00  0.00    -0.322 N 
HETATM   30  C   UNL     1      40.094 -14.327   0.784  1.00  0.00     0.048 A 
HETATM   31  H   UNL     1      39.312 -13.129   2.319  1.00  0.00     0.169 HD
HETATM   32  C   UNL     1      40.671 -15.585   0.507  1.00  0.00    -0.006 A 
HETATM   33  C   UNL     1      39.900 -13.382  -0.225  1.00  0.00     0.070 A 
HETATM   34  C   UNL     1      41.071 -15.904  -0.796  1.00  0.00     0.053 A 
HETATM   35  C   UNL     1      40.975 -16.484   1.619  1.00  0.00     0.028 C 
HETATM   36  C   UNL     1      40.908 -14.939  -1.765  1.00  0.00     0.106 A 
HETATM   37  C   UNL     1      40.343 -13.715  -1.487  1.00  0.00     0.107 A 
HETATM   38  O   UNL     1      41.312 -15.043  -3.058  1.00  0.00    -0.323 OA
HETATM   39  O   UNL     1      40.321 -12.900  -2.575  1.00  0.00    -0.323 OA
HETATM   40  C   UNL     1      40.995 -13.725  -3.551  1.00  0.00     0.352 A 
ENDBRANCH  25  26
ENDBRANCH   1  25
TORSDOF 11
ENDMDL
MODEL 6
REMARK VINA RESULT:      -7.9      2.092      3.065
REMARK  11 active torsions:
REMARK  status: ('A' for Active; 'I' for Inactive)
REMARK    1  A    between atoms: O_2  and  C_3 
REMARK    2  A    between atoms: C_6  and  C_7 
REMARK    3  A    between atoms: C_7  and  N_8 
REMARK    4  A    between atoms: N_8  and  C_9 
REMARK    5  A    between atoms: N_8  and  C_22 
REMARK    6  A    between atoms: C_9  and  N_10 
REMARK    7  A    between atoms: N_10  and  C_11 
REMARK    8  A    between atoms: C_11  and  C_12 
REMARK    9  A    between atoms: C_12  and  C_13 
REMARK   10  A    between atoms: C_13  and  N_14 
REMARK   11  A    between atoms: C_22  and  C_23 
ROOT
HETATM    1  N   UNL     1      39.769 -13.818   2.199  1.00  0.00    -0.350 N 
ENDROOT
BRANCH   1   2
HETATM    2  C   UNL     1      41.184 -13.386   2.139  1.00  0.00     0.164 C 
BRANCH   2   3
HETATM    3  C   UNL     1      42.019 -13.626   3.374  1.00  0.00    -0.040 A 
HETATM    4  C   UNL     1      41.487 -13.522   4.665  1.00  0.00     0.011 A 
HETATM    5  C   UNL     1      42.274 -13.838   5.779  1.00  0.00     0.037 A 
HETATM    6  C   UNL     1      43.590 -14.269   5.606  1.00  0.00     0.068 A 
HETATM    7  C   UNL     1      44.135 -14.353   4.330  1.00  0.00     0.037 A 
HETATM    8  C   UNL     1      43.350 -14.052   3.220  1.00  0.00     0.011 A 
BRANCH   6   9
HETATM    9  O   UNL     1      44.427 -14.582   6.640  1.00  0.00    -0.356 OA
HETATM   10  C   UNL     1      44.632 -13.501   7.548  1.00  0.00     0.210 C 
ENDBRANCH   6   9
ENDBRANCH   2   3
ENDBRANCH   1   2
BRANCH   1  11
HETATM   11  C   UNL     1      38.724 -12.870   2.185  1.00  0.00     0.170 C 
HETATM   12  S   UNL     1      38.650 -11.481   3.131  1.00  0.00    -0.041 SA
BRANCH  11  13
HETATM   13  N   UNL     1      37.707 -13.233   1.316  1.00  0.00    -0.367 N 
HETATM   14  H   UNL     1      37.597 -14.230   1.177  1.00  0.00     0.161 HD
BRANCH  13  15
HETATM   15  C   UNL     1      37.090 -12.391   0.300  1.00  0.00     0.123 C 
BRANCH  15  16
HETATM   16  C   UNL     1      37.868 -12.390  -1.011  1.00  0.00     0.047 C 
BRANCH  16  17
HETATM   17  C   UNL     1      38.146 -13.761  -1.624  1.00  0.00     0.236 C 
BRANCH  17  18
HETATM   18  N   UNL     1      39.607 -14.058  -1.839  1.00  0.00    -0.067 N 
HETATM   19  H   UNL     1      39.869 -14.815  -1.182  1.00  0.00     0.280 HD
HETATM   20  C   UNL     1      39.963 -14.508  -3.248  1.00  0.00     0.261 C 
HETATM   21  C   UNL     1      41.474 -14.736  -3.361  1.00  0.00     0.195 C 
HETATM   22  O   UNL     1      42.198 -13.551  -3.012  1.00  0.00    -0.388 OA
HETATM   23  C   UNL     1      41.952 -13.175  -1.652  1.00  0.00     0.195 C 
HETATM   24  C   UNL     1      40.469 -12.859  -1.435  1.00  0.00     0.261 C 
ENDBRANCH  17  18
ENDBRANCH  16  17
ENDBRANCH  15  16
ENDBRANCH  13  15
ENDBRANCH  11  13
ENDBRANCH   1  11
BRANCH   1  25
HETATM   25  C   UNL     1      39.511 -15.089   1.460  1.00  0.00     0.169 C 
BRANCH  25  26
HETATM   26  C   UNL     1      40.470 -16.148   1.941  1.00  0.00     0.029 C 
HETATM   27  C   UNL     1      41.515 -16.612   0.977  1.00  0.00     0.253 C 
HETATM   28  O   UNL     1      41.459 -16.332  -0.218  1.00  0.00    -0.268 OA
HETATM   29  N   UNL     1      42.562 -17.325   1.494  1.00  0.00    -0.322 N 
HETATM   30  C   UNL     1      42.682 -17.655   2.850  1.00  0.00     0.048 A 
HETATM   31  H   UNL     1      43.292 -17.584   0.843  1.00  0.00     0.169 HD
HETATM   32  C   UNL     1      41.622 -17.337   3.727  1.00  0.00    -0.006 A 
HETATM   33  C   UNL     1      43.861 -18.235   3.320  1.00  0.00     0.070 A 
HETATM   34  C   UNL     1      41.743 -17.593   5.097  1.00  0.00     0.053 A 
HETATM   35  C   UNL     1      40.467 -16.609   3.205  1.00  0.00     0.028 C 
HETATM   36  C   UNL     1      42.933 -18.126   5.542  1.00  0.00     0.106 A 
HETATM   37  C   UNL     1      43.960 -18.435   4.680  1.00  0.00     0.107 A 
HETATM   38  O   UNL     1      43.255 -18.362   6.841  1.00  0.00    -0.323 OA
HETATM   39  O   UNL     1      45.056 -18.906   5.334  1.00  0.00    -0.323 OA
HETATM   40  C   UNL     1      44.624 -18.797   6.708  1.00  0.00     0.352 A 
ENDBRANCH  25  26
ENDBRANCH   1  25
TORSDOF 11
ENDMDL
MODEL 7
REMARK VINA RESULT:      -7.8      2.567      4.926
REMARK  11 active torsions:
REMARK  status: ('A' for Active; 'I' for Inactive)
REMARK    1  A    between atoms: O_2  and  C_3 
REMARK    2  A    between atoms: C_6  and  C_7 
REMARK    3  A    between atoms: C_7  and  N_8 
REMARK    4  A    between atoms: N_8  and  C_9 
REMARK    5  A    between atoms: N_8  and  C_22 
REMARK    6  A    between atoms: C_9  and  N_10 
REMARK    7  A    between atoms: N_10  and  C_11 
REMARK    8  A    between atoms: C_11  and  C_12 
REMARK    9  A    between atoms: C_12  and  C_13 
REMARK   10  A    between atoms: C_13  and  N_14 
REMARK   11  A    between atoms: C_22  and  C_23 
ROOT
HETATM    1  N   UNL     1      40.458 -11.895   2.390  1.00  0.00    -0.350 N 
ENDROOT
BRANCH   1   2
HETATM    2  C   UNL     1      39.562 -12.955   1.871  1.00  0.00     0.164 C 
BRANCH   2   3
HETATM    3  C   UNL     1      40.183 -14.310   1.631  1.00  0.00    -0.040 A 
HETATM    4  C   UNL     1      41.351 -14.470   0.875  1.00  0.00     0.011 A 
HETATM    5  C   UNL     1      41.941 -15.734   0.750  1.00  0.00     0.037 A 
HETATM    6  C   UNL     1      41.371 -16.838   1.387  1.00  0.00     0.068 A 
HETATM    7  C   UNL     1      40.198 -16.693   2.119  1.00  0.00     0.037 A 
HETATM    8  C   UNL     1      39.617 -15.435   2.256  1.00  0.00     0.011 A 
BRANCH   6   9
HETATM    9  O   UNL     1      41.876 -18.105   1.302  1.00  0.00    -0.356 OA
HETATM   10  C   UNL     1      43.298 -18.155   1.396  1.00  0.00     0.210 C 
ENDBRANCH   6   9
ENDBRANCH   2   3
ENDBRANCH   1   2
BRANCH   1  11
HETATM   11  C   UNL     1      40.826 -10.801   1.579  1.00  0.00     0.170 C 
HETATM   12  S   UNL     1      39.871  -9.454   1.259  1.00  0.00    -0.041 SA
BRANCH  11  13
HETATM   13  N   UNL     1      42.081 -10.975   1.014  1.00  0.00    -0.367 N 
HETATM   14  H   UNL     1      42.825 -11.167   1.674  1.00  0.00     0.161 HD
BRANCH  13  15
HETATM   15  C   UNL     1      42.515 -10.514  -0.298  1.00  0.00     0.123 C 
BRANCH  15  16
HETATM   16  C   UNL     1      42.361 -11.584  -1.374  1.00  0.00     0.047 C 
BRANCH  16  17
HETATM   17  C   UNL     1      40.996 -11.655  -2.055  1.00  0.00     0.236 C 
BRANCH  17  18
HETATM   18  N   UNL     1      40.505 -13.055  -2.314  1.00  0.00    -0.067 N 
HETATM   19  H   UNL     1      40.198 -13.449  -1.406  1.00  0.00     0.280 HD
HETATM   20  C   UNL     1      39.343 -13.150  -3.291  1.00  0.00     0.261 C 
HETATM   21  C   UNL     1      38.961 -14.618  -3.511  1.00  0.00     0.195 C 
HETATM   22  O   UNL     1      40.081 -15.373  -3.985  1.00  0.00    -0.388 OA
HETATM   23  C   UNL     1      41.146 -15.378  -3.028  1.00  0.00     0.195 C 
HETATM   24  C   UNL     1      41.655 -13.956  -2.774  1.00  0.00     0.261 C 
ENDBRANCH  17  18
ENDBRANCH  16  17
ENDBRANCH  15  16
ENDBRANCH  13  15
ENDBRANCH  11  13
ENDBRANCH   1  11
BRANCH   1  25
HETATM   25  C   UNL     1      40.238 -11.595   3.835  1.00  0.00     0.169 C 
BRANCH  25  26
HETATM   26  C   UNL     1      40.707 -12.765   4.663  1.00  0.00     0.029 C 
HETATM   27  C   UNL     1      39.769 -13.282   5.707  1.00  0.00     0.253 C 
HETATM   28  O   UNL     1      38.771 -12.651   6.047  1.00  0.00    -0.268 OA
HETATM   29  N   UNL     1      40.049 -14.513   6.237  1.00  0.00    -0.322 N 
HETATM   30  C   UNL     1      41.162 -15.279   5.871  1.00  0.00     0.048 A 
HETATM   31  H   UNL     1      39.378 -14.878   6.899  1.00  0.00     0.169 HD
HETATM   32  C   UNL     1      42.117 -14.723   4.993  1.00  0.00    -0.006 A 
HETATM   33  C   UNL     1      41.282 -16.591   6.331  1.00  0.00     0.070 A 
HETATM   34  C   UNL     1      43.204 -15.490   4.557  1.00  0.00     0.053 A 
HETATM   35  C   UNL     1      41.875 -13.393   4.435  1.00  0.00     0.028 C 
HETATM   36  C   UNL     1      43.275 -16.795   4.992  1.00  0.00     0.106 A 
HETATM   37  C   UNL     1      42.342 -17.330   5.850  1.00  0.00     0.107 A 
HETATM   38  O   UNL     1      44.209 -17.704   4.608  1.00  0.00    -0.323 OA
HETATM   39  O   UNL     1      42.577 -18.643   6.113  1.00  0.00    -0.323 OA
HETATM   40  C   UNL     1      43.725 -18.890   5.272  1.00  0.00     0.352 A 
ENDBRANCH  25  26
ENDBRANCH   1  25
TORSDOF 11
ENDMDL
MODEL 8
REMARK VINA RESULT:      -7.8      3.948      7.718
REMARK  11 active torsions:
REMARK  status: ('A' for Active; 'I' for Inactive)
REMARK    1  A    between atoms: O_2  and  C_3 
REMARK    2  A    between atoms: C_6  and  C_7 
REMARK    3  A    between atoms: C_7  and  N_8 
REMARK    4  A    between atoms: N_8  and  C_9 
REMARK    5  A    between atoms: N_8  and  C_22 
REMARK    6  A    between atoms: C_9  and  N_10 
REMARK    7  A    between atoms: N_10  and  C_11 
REMARK    8  A    between atoms: C_11  and  C_12 
REMARK    9  A    between atoms: C_12  and  C_13 
REMARK   10  A    between atoms: C_13  and  N_14 
REMARK   11  A    between atoms: C_22  and  C_23 
ROOT
HETATM    1  N   UNL     1      41.413 -14.888   5.394  1.00  0.00    -0.350 N 
ENDROOT
BRANCH   1   2
HETATM    2  C   UNL     1      40.253 -14.676   4.498  1.00  0.00     0.164 C 
BRANCH   2   3
HETATM    3  C   UNL     1      40.480 -14.919   3.026  1.00  0.00    -0.040 A 
HETATM    4  C   UNL     1      40.976 -13.922   2.175  1.00  0.00     0.011 A 
HETATM    5  C   UNL     1      41.254 -14.216   0.834  1.00  0.00     0.037 A 
HETATM    6  C   UNL     1      41.048 -15.506   0.343  1.00  0.00     0.068 A 
HETATM    7  C   UNL     1      40.535 -16.496   1.174  1.00  0.00     0.037 A 
HETATM    8  C   UNL     1      40.270 -16.209   2.511  1.00  0.00     0.011 A 
BRANCH   6   9
HETATM    9  O   UNL     1      41.281 -15.869  -0.954  1.00  0.00    -0.356 OA
HETATM   10  C   UNL     1      40.843 -14.896  -1.901  1.00  0.00     0.210 C 
ENDBRANCH   6   9
ENDBRANCH   2   3
ENDBRANCH   1   2
BRANCH   1  11
HETATM   11  C   UNL     1      42.081 -13.792   5.980  1.00  0.00     0.170 C 
HETATM   12  S   UNL     1      43.738 -13.682   6.243  1.00  0.00    -0.041 SA
BRANCH  11  13
HETATM   13  N   UNL     1      41.197 -12.797   6.372  1.00  0.00    -0.367 N 
HETATM   14  H   UNL     1      40.221 -12.996   6.192  1.00  0.00     0.161 HD
BRANCH  13  15
HETATM   15  C   UNL     1      41.516 -11.396   6.607  1.00  0.00     0.123 C 
BRANCH  15  16
HETATM   16  C   UNL     1      40.413 -10.664   7.365  1.00  0.00     0.047 C 
BRANCH  16  17
HETATM   17  C   UNL     1      39.435 -11.547   8.137  1.00  0.00     0.236 C 
BRANCH  17  18
HETATM   18  N   UNL     1      39.167 -11.090   9.546  1.00  0.00    -0.067 N 
HETATM   19  H   UNL     1      38.480 -11.746   9.960  1.00  0.00     0.280 HD
HETATM   20  C   UNL     1      40.392 -11.056  10.447  1.00  0.00     0.261 C 
HETATM   21  C   UNL     1      40.009 -10.533  11.836  1.00  0.00     0.195 C 
HETATM   22  O   UNL     1      39.411  -9.236  11.749  1.00  0.00    -0.388 OA
HETATM   23  C   UNL     1      38.198  -9.274  10.989  1.00  0.00     0.195 C 
HETATM   24  C   UNL     1      38.472  -9.725   9.550  1.00  0.00     0.261 C 
ENDBRANCH  17  18
ENDBRANCH  16  17
ENDBRANCH  15  16
ENDBRANCH  13  15
ENDBRANCH  11  13
ENDBRANCH   1  11
BRANCH   1  25
HETATM   25  C   UNL     1      41.284 -16.108   6.245  1.00  0.00     0.169 C 
BRANCH  25  26
HETATM   26  C   UNL     1      42.345 -17.103   5.851  1.00  0.00     0.029 C 
HETATM   27  C   UNL     1      43.066 -17.806   6.957  1.00  0.00     0.253 C 
HETATM   28  O   UNL     1      42.981 -17.430   8.124  1.00  0.00    -0.268 OA
HETATM   29  N   UNL     1      43.792 -18.916   6.617  1.00  0.00    -0.322 N 
HETATM   30  C   UNL     1      43.907 -19.396   5.306  1.00  0.00     0.048 A 
HETATM   31  H   UNL     1      44.228 -19.416   7.380  1.00  0.00     0.169 HD
HETATM   32  C   UNL     1      43.342 -18.646   4.252  1.00  0.00    -0.006 A 
HETATM   33  C   UNL     1      44.523 -20.625   5.070  1.00  0.00     0.070 A 
HETATM   34  C   UNL     1      43.383 -19.135   2.941  1.00  0.00     0.053 A 
HETATM   35  C   UNL     1      42.592 -17.432   4.569  1.00  0.00     0.028 C 
HETATM   36  C   UNL     1      43.959 -20.371   2.741  1.00  0.00     0.106 A 
HETATM   37  C   UNL     1      44.509 -21.094   3.774  1.00  0.00     0.107 A 
HETATM   38  O   UNL     1      44.013 -21.033   1.556  1.00  0.00    -0.323 OA
HETATM   39  O   UNL     1      44.979 -22.302   3.363  1.00  0.00    -0.323 OA
HETATM   40  C   UNL     1      44.604 -22.283   1.969  1.00  0.00     0.352 A 
ENDBRANCH  25  26
ENDBRANCH   1  25
TORSDOF 11
ENDMDL
MODEL 9
REMARK VINA RESULT:      -7.7      2.276      4.922
REMARK  11 active torsions:
REMARK  status: ('A' for Active; 'I' for Inactive)
REMARK    1  A    between atoms: O_2  and  C_3 
REMARK    2  A    between atoms: C_6  and  C_7 
REMARK    3  A    between atoms: C_7  and  N_8 
REMARK    4  A    between atoms: N_8  and  C_9 
REMARK    5  A    between atoms: N_8  and  C_22 
REMARK    6  A    between atoms: C_9  and  N_10 
REMARK    7  A    between atoms: N_10  and  C_11 
REMARK    8  A    between atoms: C_11  and  C_12 
REMARK    9  A    between atoms: C_12  and  C_13 
REMARK   10  A    between atoms: C_13  and  N_14 
REMARK   11  A    between atoms: C_22  and  C_23 
ROOT
HETATM    1  N   UNL     1      41.578 -14.412   0.132  1.00  0.00    -0.350 N 
ENDROOT
BRANCH   1   2
HETATM    2  C   UNL     1      41.048 -15.764   0.424  1.00  0.00     0.164 C 
BRANCH   2   3
HETATM    3  C   UNL     1      41.950 -16.692   1.201  1.00  0.00    -0.040 A 
HETATM    4  C   UNL     1      43.336 -16.727   0.999  1.00  0.00     0.011 A 
HETATM    5  C   UNL     1      44.145 -17.540   1.802  1.00  0.00     0.037 A 
HETATM    6  C   UNL     1      43.574 -18.312   2.815  1.00  0.00     0.068 A 
HETATM    7  C   UNL     1      42.197 -18.303   3.008  1.00  0.00     0.037 A 
HETATM    8  C   UNL     1      41.392 -17.485   2.219  1.00  0.00     0.011 A 
BRANCH   6   9
HETATM    9  O   UNL     1      44.291 -19.142   3.630  1.00  0.00    -0.356 OA
HETATM   10  C   UNL     1      44.627 -20.385   3.017  1.00  0.00     0.210 C 
ENDBRANCH   6   9
ENDBRANCH   2   3
ENDBRANCH   1   2
BRANCH   1  11
HETATM   11  C   UNL     1      41.901 -14.035  -1.189  1.00  0.00     0.170 C 
HETATM   12  S   UNL     1      42.478 -12.528  -1.663  1.00  0.00    -0.041 SA
BRANCH  11  13
HETATM   13  N   UNL     1      41.644 -15.052  -2.095  1.00  0.00    -0.367 N 
HETATM   14  H   UNL     1      42.372 -15.751  -2.173  1.00  0.00     0.161 HD
BRANCH  13  15
HETATM   15  C   UNL     1      40.700 -15.010  -3.204  1.00  0.00     0.123 C 
BRANCH  15  16
HETATM   16  C   UNL     1      39.447 -14.206  -2.875  1.00  0.00     0.047 C 
BRANCH  16  17
HETATM   17  C   UNL     1      38.134 -14.763  -3.418  1.00  0.00     0.236 C 
BRANCH  17  18
HETATM   18  N   UNL     1      37.308 -13.766  -4.187  1.00  0.00    -0.067 N 
HETATM   19  H   UNL     1      37.879 -13.444  -4.990  1.00  0.00     0.280 HD
HETATM   20  C   UNL     1      35.995 -14.310  -4.728  1.00  0.00     0.261 C 
HETATM   21  C   UNL     1      35.223 -13.199  -5.449  1.00  0.00     0.195 C 
HETATM   22  O   UNL     1      34.988 -12.089  -4.576  1.00  0.00    -0.388 OA
HETATM   23  C   UNL     1      36.219 -11.501  -4.142  1.00  0.00     0.195 C 
HETATM   24  C   UNL     1      37.053 -12.511  -3.347  1.00  0.00     0.261 C 
ENDBRANCH  17  18
ENDBRANCH  16  17
ENDBRANCH  15  16
ENDBRANCH  13  15
ENDBRANCH  11  13
ENDBRANCH   1  11
BRANCH   1  25
HETATM   25  C   UNL     1      40.980 -13.348   0.990  1.00  0.00     0.169 C 
BRANCH  25  26
HETATM   26  C   UNL     1      41.017 -13.792   2.431  1.00  0.00     0.029 C 
HETATM   27  C   UNL     1      39.719 -14.196   3.054  1.00  0.00     0.253 C 
HETATM   28  O   UNL     1      38.642 -13.957   2.514  1.00  0.00    -0.268 OA
HETATM   29  N   UNL     1      39.786 -14.885   4.235  1.00  0.00    -0.322 N 
HETATM   30  C   UNL     1      40.988 -15.198   4.883  1.00  0.00     0.048 A 
HETATM   31  H   UNL     1      38.906 -15.203   4.618  1.00  0.00     0.169 HD
HETATM   32  C   UNL     1      42.198 -14.690   4.362  1.00  0.00    -0.006 A 
HETATM   33  C   UNL     1      40.977 -16.047   5.990  1.00  0.00     0.070 A 
HETATM   34  C   UNL     1      43.419 -15.042   4.949  1.00  0.00     0.053 A 
HETATM   35  C   UNL     1      42.164 -13.915   3.123  1.00  0.00     0.028 C 
HETATM   36  C   UNL     1      43.384 -15.915   6.014  1.00  0.00     0.106 A 
HETATM   37  C   UNL     1      42.200 -16.405   6.516  1.00  0.00     0.107 A 
HETATM   38  O   UNL     1      44.470 -16.427   6.650  1.00  0.00    -0.323 OA
HETATM   39  O   UNL     1      42.398 -17.285   7.534  1.00  0.00    -0.323 OA
HETATM   40  C   UNL     1      43.841 -17.343   7.571  1.00  0.00     0.352 A 
ENDBRANCH  25  26
ENDBRANCH   1  25
TORSDOF 11
ENDMDL
MODEL 10
REMARK VINA RESULT:      -7.5      3.322      8.004
REMARK  11 active torsions:
REMARK  status: ('A' for Active; 'I' for Inactive)
REMARK    1  A    between atoms: O_2  and  C_3 
REMARK    2  A    between atoms: C_6  and  C_7 
REMARK    3  A    between atoms: C_7  and  N_8 
REMARK    4  A    between atoms: N_8  and  C_9 
REMARK    5  A    between atoms: N_8  and  C_22 
REMARK    6  A    between atoms: C_9  and  N_10 
REMARK    7  A    between atoms: N_10  and  C_11 
REMARK    8  A    between atoms: C_11  and  C_12 
REMARK    9  A    between atoms: C_12  and  C_13 
REMARK   10  A    between atoms: C_13  and  N_14 
REMARK   11  A    between atoms: C_22  and  C_23 
ROOT
HETATM    1  N   UNL     1      40.104 -13.510   3.205  1.00  0.00    -0.350 N 
ENDROOT
BRANCH   1   2
HETATM    2  C   UNL     1      39.482 -13.642   1.867  1.00  0.00     0.164 C 
BRANCH   2   3
HETATM    3  C   UNL     1      40.409 -13.574   0.678  1.00  0.00    -0.040 A 
HETATM    4  C   UNL     1      40.518 -14.624  -0.243  1.00  0.00     0.011 A 
HETATM    5  C   UNL     1      41.326 -14.483  -1.378  1.00  0.00     0.037 A 
HETATM    6  C   UNL     1      42.017 -13.291  -1.602  1.00  0.00     0.068 A 
HETATM    7  C   UNL     1      41.933 -12.252  -0.682  1.00  0.00     0.037 A 
HETATM    8  C   UNL     1      41.121 -12.385   0.441  1.00  0.00     0.011 A 
BRANCH   6   9
HETATM    9  O   UNL     1      42.835 -13.080  -2.676  1.00  0.00    -0.356 OA
HETATM   10  C   UNL     1      42.439 -11.970  -3.479  1.00  0.00     0.210 C 
ENDBRANCH   6   9
ENDBRANCH   2   3
ENDBRANCH   1   2
BRANCH   1  11
HETATM   11  C   UNL     1      40.069 -12.282   3.898  1.00  0.00     0.170 C 
HETATM   12  S   UNL     1      38.731 -11.272   4.034  1.00  0.00    -0.041 SA
BRANCH  11  13
HETATM   13  N   UNL     1      41.304 -11.956   4.437  1.00  0.00    -0.367 N 
HETATM   14  H   UNL     1      42.001 -12.689   4.386  1.00  0.00     0.161 HD
BRANCH  13  15
HETATM   15  C   UNL     1      41.581 -10.901   5.402  1.00  0.00     0.123 C 
BRANCH  15  16
HETATM   16  C   UNL     1      41.319 -11.339   6.839  1.00  0.00     0.047 C 
BRANCH  16  17
HETATM   17  C   UNL     1      41.925 -10.455   7.927  1.00  0.00     0.236 C 
BRANCH  17  18
HETATM   18  N   UNL     1      42.442 -11.211   9.122  1.00  0.00    -0.067 N 
HETATM   19  H   UNL     1      41.928 -12.110   9.167  1.00  0.00     0.280 HD
HETATM   20  C   UNL     1      43.932 -11.519   9.083  1.00  0.00     0.261 C 
HETATM   21  C   UNL     1      44.351 -12.247  10.365  1.00  0.00     0.195 C 
HETATM   22  O   UNL     1      44.027 -11.471  11.524  1.00  0.00    -0.388 OA
HETATM   23  C   UNL     1      42.614 -11.262  11.629  1.00  0.00     0.195 C 
HETATM   24  C   UNL     1      42.089 -10.480  10.420  1.00  0.00     0.261 C 
ENDBRANCH  17  18
ENDBRANCH  16  17
ENDBRANCH  15  16
ENDBRANCH  13  15
ENDBRANCH  11  13
ENDBRANCH   1  11
BRANCH   1  25
HETATM   25  C   UNL     1      39.967 -14.739   4.041  1.00  0.00     0.169 C 
BRANCH  25  26
HETATM   26  C   UNL     1      41.221 -15.567   3.917  1.00  0.00     0.029 C 
HETATM   27  C   UNL     1      42.224 -15.456   5.021  1.00  0.00     0.253 C 
HETATM   28  O   UNL     1      42.158 -14.566   5.865  1.00  0.00    -0.268 OA
HETATM   29  N   UNL     1      43.196 -16.418   5.074  1.00  0.00    -0.322 N 
HETATM   30  C   UNL     1      43.305 -17.463   4.147  1.00  0.00     0.048 A 
HETATM   31  H   UNL     1      43.835 -16.367   5.856  1.00  0.00     0.169 HD
HETATM   32  C   UNL     1      42.443 -17.478   3.030  1.00  0.00    -0.006 A 
HETATM   33  C   UNL     1      44.218 -18.494   4.370  1.00  0.00     0.070 A 
HETATM   34  C   UNL     1      42.483 -18.544   2.124  1.00  0.00     0.053 A 
HETATM   35  C   UNL     1      41.415 -16.444   2.915  1.00  0.00     0.028 C 
HETATM   36  C   UNL     1      43.362 -19.571   2.390  1.00  0.00     0.106 A 
HETATM   37  C   UNL     1      44.202 -19.548   3.481  1.00  0.00     0.107 A 
HETATM   38  O   UNL     1      43.478 -20.717   1.670  1.00  0.00    -0.323 OA
HETATM   39  O   UNL     1      44.951 -20.679   3.578  1.00  0.00    -0.323 OA
HETATM   40  C   UNL     1      44.441 -21.442   2.463  1.00  0.00     0.352 A 
ENDBRANCH  25  26
ENDBRANCH   1  25
TORSDOF 11
ENDMDL
