MODEL 1
REMARK VINA RESULT:      -8.1      0.000      0.000
REMARK  3 active torsions:
REMARK  status: ('A' for Active; 'I' for Inactive)
REMARK    1  A    between atoms: C_9  and  C_10 
REMARK    2  A    between atoms: C_16  and  C_17 
REMARK       I    between atoms: C_17  and  N_18 
REMARK    3  A    between atoms: N_18  and  C_19 
ROOT
HETATM    1  C   UNL     1      42.714 -17.355   7.736  1.00  0.00     0.070 C 
HETATM    2  C   UNL     1      42.696 -16.479   6.508  1.00  0.00     0.037 C 
HETATM    3  N   UNL     1      42.033 -15.263   6.649  1.00  0.00    -0.192 N 
HETATM    4  C   UNL     1      42.142 -14.262   5.754  1.00  0.00     0.725 A 
HETATM    5  N   UNL     1      42.796 -14.485   4.572  1.00  0.00    -0.084 N 
HETATM    6  N   UNL     1      42.879 -13.357   3.837  1.00  0.00    -0.149 NA
HETATM    7  C   UNL     1      42.213 -12.502   4.622  1.00  0.00     0.275 A 
HETATM    8  N   UNL     1      41.742 -13.017   5.803  1.00  0.00    -0.054 NA
HETATM    9  C   UNL     1      43.369 -15.778   4.181  1.00  0.00     0.202 C 
HETATM   10  C   UNL     1      43.328 -16.766   5.343  1.00  0.00     0.062 C 
HETATM   11  H   UNL     1      41.651 -15.039   7.564  1.00  0.00     0.184 HD
ENDROOT
BRANCH  10  12
HETATM   12  C   UNL     1      44.133 -17.994   5.114  1.00  0.00     0.256 C 
HETATM   13  N   UNL     1      43.514 -18.919   4.303  1.00  0.00    -0.322 N 
HETATM   14  H   UNL     1      42.618 -18.667   3.906  1.00  0.00     0.169 HD
HETATM   15  O   UNL     1      45.255 -18.066   5.594  1.00  0.00    -0.267 OA
BRANCH  13  16
HETATM   16  C   UNL     1      43.999 -20.204   3.975  1.00  0.00     0.052 A 
HETATM   17  C   UNL     1      44.505 -21.128   4.886  1.00  0.00     0.145 A 
HETATM   18  N   UNL     1      44.942 -22.369   4.548  1.00  0.00    -0.271 NA
HETATM   19  C   UNL     1      44.874 -22.707   3.245  1.00  0.00     0.116 A 
HETATM   20  C   UNL     1      44.391 -21.862   2.261  1.00  0.00     0.021 A 
HETATM   21  C   UNL     1      43.951 -20.594   2.635  1.00  0.00     0.032 A 
ENDBRANCH  13  16
ENDBRANCH  10  12
BRANCH   9  22
HETATM   22  C   UNL     1      42.660 -16.327   2.948  1.00  0.00    -0.025 A 
HETATM   23  C   UNL     1      41.278 -16.555   2.981  1.00  0.00     0.029 A 
HETATM   24  C   UNL     1      40.650 -17.030   1.841  1.00  0.00     0.117 A 
HETATM   25  N   UNL     1      41.293 -17.287   0.682  1.00  0.00    -0.273 NA
HETATM   26  C   UNL     1      42.623 -17.066   0.663  1.00  0.00     0.117 A 
HETATM   27  C   UNL     1      43.340 -16.585   1.749  1.00  0.00     0.029 A 
ENDBRANCH   9  22
TORSDOF 3
ENDMDL
MODEL 2
REMARK VINA RESULT:      -8.0      2.053      3.945
REMARK  3 active torsions:
REMARK  status: ('A' for Active; 'I' for Inactive)
REMARK    1  A    between atoms: C_9  and  C_10 
REMARK    2  A    between atoms: C_16  and  C_17 
REMARK       I    between atoms: C_17  and  N_18 
REMARK    3  A    between atoms: N_18  and  C_19 
ROOT
HETATM    1  C   UNL     1      40.650 -16.200   1.374  1.00  0.00     0.070 C 
HETATM    2  C   UNL     1      40.674 -15.491   2.705  1.00  0.00     0.037 C 
HETATM    3  N   UNL     1      40.161 -14.197   2.704  1.00  0.00    -0.192 N 
HETATM    4  C   UNL     1      39.867 -13.525   3.835  1.00  0.00     0.725 A 
HETATM    5  N   UNL     1      40.231 -14.053   5.044  1.00  0.00    -0.084 N 
HETATM    6  N   UNL     1      39.789 -13.290   6.065  1.00  0.00    -0.149 NA
HETATM    7  C   UNL     1      39.202 -12.293   5.392  1.00  0.00     0.275 A 
HETATM    8  N   UNL     1      39.232 -12.397   4.024  1.00  0.00    -0.054 NA
HETATM    9  C   UNL     1      40.969 -15.311   5.203  1.00  0.00     0.202 C 
HETATM   10  C   UNL     1      41.085 -16.047   3.872  1.00  0.00     0.062 C 
HETATM   11  H   UNL     1      39.775 -13.845   1.832  1.00  0.00     0.184 HD
ENDROOT
BRANCH  10  12
HETATM   12  C   UNL     1      41.571 -17.445   4.000  1.00  0.00     0.256 C 
HETATM   13  N   UNL     1      42.727 -17.697   3.296  1.00  0.00    -0.322 N 
HETATM   14  H   UNL     1      43.157 -16.920   2.811  1.00  0.00     0.169 HD
HETATM   15  O   UNL     1      40.969 -18.218   4.732  1.00  0.00    -0.267 OA
BRANCH  13  16
HETATM   16  C   UNL     1      43.375 -18.945   3.167  1.00  0.00     0.052 A 
HETATM   17  C   UNL     1      44.262 -19.487   4.093  1.00  0.00     0.145 A 
HETATM   18  N   UNL     1      44.854 -20.703   3.958  1.00  0.00    -0.271 NA
HETATM   19  C   UNL     1      44.550 -21.412   2.854  1.00  0.00     0.116 A 
HETATM   20  C   UNL     1      43.683 -20.963   1.872  1.00  0.00     0.021 A 
HETATM   21  C   UNL     1      43.092 -19.711   2.034  1.00  0.00     0.032 A 
ENDBRANCH  13  16
ENDBRANCH  10  12
BRANCH   9  22
HETATM   22  C   UNL     1      42.336 -15.054   5.827  1.00  0.00    -0.025 A 
HETATM   23  C   UNL     1      42.832 -15.929   6.804  1.00  0.00     0.029 A 
HETATM   24  C   UNL     1      44.088 -15.692   7.339  1.00  0.00     0.117 A 
HETATM   25  N   UNL     1      44.878 -14.661   6.971  1.00  0.00    -0.273 NA
HETATM   26  C   UNL     1      44.389 -13.826   6.032  1.00  0.00     0.117 A 
HETATM   27  C   UNL     1      43.149 -13.981   5.432  1.00  0.00     0.029 A 
ENDBRANCH   9  22
TORSDOF 3
ENDMDL
MODEL 3
REMARK VINA RESULT:      -7.7      2.354      2.710
REMARK  3 active torsions:
REMARK  status: ('A' for Active; 'I' for Inactive)
REMARK    1  A    between atoms: C_9  and  C_10 
REMARK    2  A    between atoms: C_16  and  C_17 
REMARK       I    between atoms: C_17  and  N_18 
REMARK    3  A    between atoms: N_18  and  C_19 
ROOT
HETATM    1  C   UNL     1      40.923 -16.726   6.655  1.00  0.00     0.070 C 
HETATM    2  C   UNL     1      40.764 -15.476   5.824  1.00  0.00     0.037 C 
HETATM    3  N   UNL     1      39.843 -14.550   6.305  1.00  0.00    -0.192 N 
HETATM    4  C   UNL     1      39.765 -13.287   5.843  1.00  0.00     0.725 A 
HETATM    5  N   UNL     1      40.501 -12.925   4.747  1.00  0.00    -0.084 N 
HETATM    6  N   UNL     1      40.363 -11.611   4.475  1.00  0.00    -0.149 NA
HETATM    7  C   UNL     1      39.493 -11.253   5.426  1.00  0.00     0.275 A 
HETATM    8  N   UNL     1      39.098 -12.250   6.282  1.00  0.00    -0.054 NA
HETATM    9  C   UNL     1      41.361 -13.846   3.996  1.00  0.00     0.202 C 
HETATM   10  C   UNL     1      41.492 -15.184   4.717  1.00  0.00     0.062 C 
HETATM   11  H   UNL     1      39.383 -14.760   7.188  1.00  0.00     0.184 HD
ENDROOT
BRANCH  10  12
HETATM   12  C   UNL     1      42.557 -16.062   4.167  1.00  0.00     0.256 C 
HETATM   13  N   UNL     1      42.168 -17.373   4.012  1.00  0.00    -0.322 N 
HETATM   14  H   UNL     1      41.208 -17.605   4.231  1.00  0.00     0.169 HD
HETATM   15  O   UNL     1      43.630 -15.567   3.854  1.00  0.00    -0.267 OA
BRANCH  13  16
HETATM   16  C   UNL     1      42.985 -18.444   3.587  1.00  0.00     0.052 A 
HETATM   17  C   UNL     1      43.951 -19.075   4.366  1.00  0.00     0.145 A 
HETATM   18  N   UNL     1      44.706 -20.122   3.942  1.00  0.00    -0.271 NA
HETATM   19  C   UNL     1      44.491 -20.562   2.687  1.00  0.00     0.116 A 
HETATM   20  C   UNL     1      43.557 -20.004   1.831  1.00  0.00     0.021 A 
HETATM   21  C   UNL     1      42.797 -18.930   2.291  1.00  0.00     0.032 A 
ENDBRANCH  13  16
ENDBRANCH  10  12
BRANCH   9  22
HETATM   22  C   UNL     1      40.844 -14.022   2.572  1.00  0.00    -0.025 A 
HETATM   23  C   UNL     1      39.540 -14.486   2.356  1.00  0.00     0.029 A 
HETATM   24  C   UNL     1      39.081 -14.613   1.055  1.00  0.00     0.117 A 
HETATM   25  N   UNL     1      39.819 -14.310  -0.034  1.00  0.00    -0.273 NA
HETATM   26  C   UNL     1      41.073 -13.866   0.187  1.00  0.00     0.117 A 
HETATM   27  C   UNL     1      41.621 -13.698   1.449  1.00  0.00     0.029 A 
ENDBRANCH   9  22
TORSDOF 3
ENDMDL
MODEL 4
REMARK VINA RESULT:      -7.7      2.746      5.157
REMARK  3 active torsions:
REMARK  status: ('A' for Active; 'I' for Inactive)
REMARK    1  A    between atoms: C_9  and  C_10 
REMARK    2  A    between atoms: C_16  and  C_17 
REMARK       I    between atoms: C_17  and  N_18 
REMARK    3  A    between atoms: N_18  and  C_19 
ROOT
HETATM    1  C   UNL     1      43.681 -17.456   1.240  1.00  0.00     0.070 C 
HETATM    2  C   UNL     1      42.538 -16.473   1.295  1.00  0.00     0.037 C 
HETATM    3  N   UNL     1      42.274 -15.794   0.109  1.00  0.00    -0.192 N 
HETATM    4  C   UNL     1      41.145 -15.086  -0.094  1.00  0.00     0.725 A 
HETATM    5  N   UNL     1      40.285 -14.879   0.951  1.00  0.00    -0.084 N 
HETATM    6  N   UNL     1      39.176 -14.223   0.550  1.00  0.00    -0.149 NA
HETATM    7  C   UNL     1      39.458 -14.031  -0.744  1.00  0.00     0.275 A 
HETATM    8  N   UNL     1      40.656 -14.540  -1.177  1.00  0.00    -0.054 NA
HETATM    9  C   UNL     1      40.526 -15.350   2.319  1.00  0.00     0.202 C 
HETATM   10  C   UNL     1      41.739 -16.273   2.373  1.00  0.00     0.062 C 
HETATM   11  H   UNL     1      42.832 -16.036  -0.706  1.00  0.00     0.184 HD
ENDROOT
BRANCH  10  12
HETATM   12  C   UNL     1      41.880 -17.004   3.659  1.00  0.00     0.256 C 
HETATM   13  N   UNL     1      42.878 -16.511   4.469  1.00  0.00    -0.322 N 
HETATM   14  H   UNL     1      43.376 -15.690   4.151  1.00  0.00     0.169 HD
HETATM   15  O   UNL     1      41.101 -17.910   3.915  1.00  0.00    -0.267 OA
BRANCH  13  16
HETATM   16  C   UNL     1      43.293 -17.047   5.708  1.00  0.00     0.052 A 
HETATM   17  C   UNL     1      42.693 -16.785   6.937  1.00  0.00     0.145 A 
HETATM   18  N   UNL     1      43.095 -17.334   8.113  1.00  0.00    -0.271 NA
HETATM   19  C   UNL     1      44.140 -18.182   8.065  1.00  0.00     0.116 A 
HETATM   20  C   UNL     1      44.808 -18.508   6.897  1.00  0.00     0.021 A 
HETATM   21  C   UNL     1      44.376 -17.929   5.705  1.00  0.00     0.032 A 
ENDBRANCH  13  16
ENDBRANCH  10  12
BRANCH   9  22
HETATM   22  C   UNL     1      40.672 -14.170   3.274  1.00  0.00    -0.025 A 
HETATM   23  C   UNL     1      39.815 -14.055   4.376  1.00  0.00     0.029 A 
HETATM   24  C   UNL     1      39.982 -12.989   5.246  1.00  0.00     0.117 A 
HETATM   25  N   UNL     1      40.935 -12.044   5.100  1.00  0.00    -0.273 NA
HETATM   26  C   UNL     1      41.752 -12.164   4.034  1.00  0.00     0.117 A 
HETATM   27  C   UNL     1      41.670 -13.197   3.112  1.00  0.00     0.029 A 
ENDBRANCH   9  22
TORSDOF 3
ENDMDL
MODEL 5
REMARK VINA RESULT:      -7.4      2.330      5.886
REMARK  3 active torsions:
REMARK  status: ('A' for Active; 'I' for Inactive)
REMARK    1  A    between atoms: C_9  and  C_10 
REMARK    2  A    between atoms: C_16  and  C_17 
REMARK       I    between atoms: C_17  and  N_18 
REMARK    3  A    between atoms: N_18  and  C_19 
ROOT
HETATM    1  C   UNL     1      43.076 -19.689   2.077  1.00  0.00     0.070 C 
HETATM    2  C   UNL     1      43.280 -18.836   3.304  1.00  0.00     0.037 C 
HETATM    3  N   UNL     1      43.413 -19.532   4.502  1.00  0.00    -0.192 N 
HETATM    4  C   UNL     1      43.855 -18.957   5.638  1.00  0.00     0.725 A 
HETATM    5  N   UNL     1      44.033 -17.600   5.680  1.00  0.00    -0.084 N 
HETATM    6  N   UNL     1      44.553 -17.210   6.862  1.00  0.00    -0.149 NA
HETATM    7  C   UNL     1      44.624 -18.385   7.499  1.00  0.00     0.275 A 
HETATM    8  N   UNL     1      44.202 -19.478   6.787  1.00  0.00    -0.054 NA
HETATM    9  C   UNL     1      43.733 -16.698   4.563  1.00  0.00     0.202 C 
HETATM   10  C   UNL     1      43.407 -17.486   3.297  1.00  0.00     0.062 C 
HETATM   11  H   UNL     1      43.406 -20.548   4.459  1.00  0.00     0.184 HD
ENDROOT
BRANCH  10  12
HETATM   12  C   UNL     1      43.365 -16.653   2.067  1.00  0.00     0.256 C 
HETATM   13  N   UNL     1      42.125 -16.119   1.801  1.00  0.00    -0.322 N 
HETATM   14  H   UNL     1      41.388 -16.292   2.473  1.00  0.00     0.169 HD
HETATM   15  O   UNL     1      44.399 -16.467   1.441  1.00  0.00    -0.267 OA
BRANCH  13  16
HETATM   16  C   UNL     1      41.765 -15.356   0.669  1.00  0.00     0.052 A 
HETATM   17  C   UNL     1      41.819 -13.968   0.587  1.00  0.00     0.145 A 
HETATM   18  N   UNL     1      41.492 -13.258  -0.525  1.00  0.00    -0.271 NA
HETATM   19  C   UNL     1      41.094 -13.960  -1.603  1.00  0.00     0.116 A 
HETATM   20  C   UNL     1      41.005 -15.341  -1.626  1.00  0.00     0.021 A 
HETATM   21  C   UNL     1      41.344 -16.044  -0.471  1.00  0.00     0.032 A 
ENDBRANCH  13  16
ENDBRANCH  10  12
BRANCH   9  22
HETATM   22  C   UNL     1      42.607 -15.740   4.936  1.00  0.00    -0.025 A 
HETATM   23  C   UNL     1      41.373 -16.246   5.365  1.00  0.00     0.029 A 
HETATM   24  C   UNL     1      40.372 -15.357   5.723  1.00  0.00     0.117 A 
HETATM   25  N   UNL     1      40.514 -14.015   5.690  1.00  0.00    -0.273 NA
HETATM   26  C   UNL     1      41.705 -13.540   5.273  1.00  0.00     0.117 A 
HETATM   27  C   UNL     1      42.769 -14.347   4.900  1.00  0.00     0.029 A 
ENDBRANCH   9  22
TORSDOF 3
ENDMDL
MODEL 6
REMARK VINA RESULT:      -7.2      1.876      7.134
REMARK  3 active torsions:
REMARK  status: ('A' for Active; 'I' for Inactive)
REMARK    1  A    between atoms: C_9  and  C_10 
REMARK    2  A    between atoms: C_16  and  C_17 
REMARK       I    between atoms: C_17  and  N_18 
REMARK    3  A    between atoms: N_18  and  C_19 
ROOT
HETATM    1  C   UNL     1      41.111 -16.155   1.006  1.00  0.00     0.070 C 
HETATM    2  C   UNL     1      42.009 -16.958   1.914  1.00  0.00     0.037 C 
HETATM    3  N   UNL     1      42.060 -18.324   1.652  1.00  0.00    -0.192 N 
HETATM    4  C   UNL     1      42.993 -19.138   2.184  1.00  0.00     0.725 A 
HETATM    5  N   UNL     1      43.836 -18.654   3.149  1.00  0.00    -0.084 N 
HETATM    6  N   UNL     1      44.752 -19.577   3.507  1.00  0.00    -0.149 NA
HETATM    7  C   UNL     1      44.372 -20.610   2.745  1.00  0.00     0.275 A 
HETATM    8  N   UNL     1      43.297 -20.383   1.924  1.00  0.00    -0.054 NA
HETATM    9  C   UNL     1      43.771 -17.291   3.687  1.00  0.00     0.202 C 
HETATM   10  C   UNL     1      42.796 -16.433   2.887  1.00  0.00     0.062 C 
HETATM   11  H   UNL     1      41.530 -18.670   0.856  1.00  0.00     0.184 HD
ENDROOT
BRANCH  10  12
HETATM   12  C   UNL     1      42.882 -14.982   3.194  1.00  0.00     0.256 C 
HETATM   13  N   UNL     1      41.785 -14.492   3.867  1.00  0.00    -0.322 N 
HETATM   14  H   UNL     1      41.065 -15.152   4.130  1.00  0.00     0.169 HD
HETATM   15  O   UNL     1      43.896 -14.371   2.890  1.00  0.00    -0.267 OA
BRANCH  13  16
HETATM   16  C   UNL     1      41.552 -13.145   4.221  1.00  0.00     0.052 A 
HETATM   17  C   UNL     1      41.205 -12.131   3.333  1.00  0.00     0.145 A 
HETATM   18  N   UNL     1      40.961 -10.846   3.703  1.00  0.00    -0.271 NA
HETATM   19  C   UNL     1      41.065 -10.557   5.015  1.00  0.00     0.116 A 
HETATM   20  C   UNL     1      41.406 -11.491   5.978  1.00  0.00     0.021 A 
HETATM   21  C   UNL     1      41.654 -12.801   5.571  1.00  0.00     0.032 A 
ENDBRANCH  13  16
ENDBRANCH  10  12
BRANCH   9  22
HETATM   22  C   UNL     1      43.415 -17.317   5.170  1.00  0.00    -0.025 A 
HETATM   23  C   UNL     1      44.415 -17.123   6.131  1.00  0.00     0.029 A 
HETATM   24  C   UNL     1      44.065 -17.124   7.472  1.00  0.00     0.117 A 
HETATM   25  N   UNL     1      42.802 -17.297   7.917  1.00  0.00    -0.273 NA
HETATM   26  C   UNL     1      41.849 -17.486   6.982  1.00  0.00     0.117 A 
HETATM   27  C   UNL     1      42.097 -17.494   5.618  1.00  0.00     0.029 A 
ENDBRANCH   9  22
TORSDOF 3
ENDMDL
MODEL 7
REMARK VINA RESULT:      -7.2      3.177      6.143
REMARK  3 active torsions:
REMARK  status: ('A' for Active; 'I' for Inactive)
REMARK    1  A    between atoms: C_9  and  C_10 
REMARK    2  A    between atoms: C_16  and  C_17 
REMARK       I    between atoms: C_17  and  N_18 
REMARK    3  A    between atoms: N_18  and  C_19 
ROOT
HETATM    1  C   UNL     1      41.644 -11.902   1.814  1.00  0.00     0.070 C 
HETATM    2  C   UNL     1      41.964 -13.116   2.651  1.00  0.00     0.037 C 
HETATM    3  N   UNL     1      42.779 -12.885   3.755  1.00  0.00    -0.192 N 
HETATM    4  C   UNL     1      42.949 -13.786   4.743  1.00  0.00     0.725 A 
HETATM    5  N   UNL     1      42.438 -15.047   4.596  1.00  0.00    -0.084 N 
HETATM    6  N   UNL     1      42.631 -15.787   5.708  1.00  0.00    -0.149 NA
HETATM    7  C   UNL     1      43.304 -14.916   6.469  1.00  0.00     0.275 A 
HETATM    8  N   UNL     1      43.524 -13.681   5.913  1.00  0.00    -0.054 NA
HETATM    9  C   UNL     1      41.733 -15.514   3.397  1.00  0.00     0.202 C 
HETATM   10  C   UNL     1      41.462 -14.358   2.438  1.00  0.00     0.062 C 
HETATM   11  H   UNL     1      43.062 -11.925   3.938  1.00  0.00     0.184 HD
ENDROOT
BRANCH  10  12
HETATM   12  C   UNL     1      40.518 -14.697   1.342  1.00  0.00     0.256 C 
HETATM   13  N   UNL     1      41.057 -14.552   0.083  1.00  0.00    -0.322 N 
HETATM   14  H   UNL     1      42.031 -14.287   0.019  1.00  0.00     0.169 HD
HETATM   15  O   UNL     1      39.404 -15.112   1.626  1.00  0.00    -0.267 OA
BRANCH  13  16
HETATM   16  C   UNL     1      40.379 -14.725  -1.143  1.00  0.00     0.052 A 
HETATM   17  C   UNL     1      39.254 -14.011  -1.546  1.00  0.00     0.145 A 
HETATM   18  N   UNL     1      38.635 -14.178  -2.744  1.00  0.00    -0.271 NA
HETATM   19  C   UNL     1      39.157 -15.097  -3.579  1.00  0.00     0.116 A 
HETATM   20  C   UNL     1      40.271 -15.861  -3.275  1.00  0.00     0.021 A 
HETATM   21  C   UNL     1      40.885 -15.671  -2.038  1.00  0.00     0.032 A 
ENDBRANCH  13  16
ENDBRANCH  10  12
BRANCH   9  22
HETATM   22  C   UNL     1      42.512 -16.637   2.720  1.00  0.00    -0.025 A 
HETATM   23  C   UNL     1      42.023 -17.949   2.762  1.00  0.00     0.029 A 
HETATM   24  C   UNL     1      42.733 -18.950   2.119  1.00  0.00     0.117 A 
HETATM   25  N   UNL     1      43.880 -18.737   1.440  1.00  0.00    -0.273 NA
HETATM   26  C   UNL     1      44.342 -17.471   1.409  1.00  0.00     0.117 A 
HETATM   27  C   UNL     1      43.701 -16.401   2.014  1.00  0.00     0.029 A 
ENDBRANCH   9  22
TORSDOF 3
ENDMDL
MODEL 8
REMARK VINA RESULT:      -7.2      4.129      5.508
REMARK  3 active torsions:
REMARK  status: ('A' for Active; 'I' for Inactive)
REMARK    1  A    between atoms: C_9  and  C_10 
REMARK    2  A    between atoms: C_16  and  C_17 
REMARK       I    between atoms: C_17  and  N_18 
REMARK    3  A    between atoms: N_18  and  C_19 
ROOT
HETATM    1  C   UNL     1      41.425 -12.596   3.170  1.00  0.00     0.070 C 
HETATM    2  C   UNL     1      41.621 -12.548   1.675  1.00  0.00     0.037 C 
HETATM    3  N   UNL     1      41.804 -11.278   1.135  1.00  0.00    -0.192 N 
HETATM    4  C   UNL     1      42.247 -11.073  -0.121  1.00  0.00     0.725 A 
HETATM    5  N   UNL     1      42.374 -12.138  -0.971  1.00  0.00    -0.084 N 
HETATM    6  N   UNL     1      42.903 -11.761  -2.154  1.00  0.00    -0.149 NA
HETATM    7  C   UNL     1      43.030 -10.443  -1.958  1.00  0.00     0.275 A 
HETATM    8  N   UNL     1      42.635  -9.981  -0.728  1.00  0.00    -0.054 NA
HETATM    9  C   UNL     1      42.019 -13.517  -0.619  1.00  0.00     0.202 C 
HETATM   10  C   UNL     1      41.699 -13.635   0.868  1.00  0.00     0.062 C 
HETATM   11  H   UNL     1      41.833 -10.492   1.781  1.00  0.00     0.184 HD
ENDROOT
BRANCH  10  12
HETATM   12  C   UNL     1      41.601 -15.037   1.351  1.00  0.00     0.256 C 
HETATM   13  N   UNL     1      42.801 -15.559   1.781  1.00  0.00    -0.322 N 
HETATM   14  H   UNL     1      43.605 -14.946   1.778  1.00  0.00     0.169 HD
HETATM   15  O   UNL     1      40.506 -15.579   1.383  1.00  0.00    -0.267 OA
BRANCH  13  16
HETATM   16  C   UNL     1      43.030 -16.882   2.218  1.00  0.00     0.052 A 
HETATM   17  C   UNL     1      42.742 -17.368   3.490  1.00  0.00     0.145 A 
HETATM   18  N   UNL     1      42.948 -18.654   3.879  1.00  0.00    -0.271 NA
HETATM   19  C   UNL     1      43.465 -19.494   2.962  1.00  0.00     0.116 A 
HETATM   20  C   UNL     1      43.788 -19.112   1.671  1.00  0.00     0.021 A 
HETATM   21  C   UNL     1      43.568 -17.786   1.299  1.00  0.00     0.032 A 
ENDBRANCH  13  16
ENDBRANCH  10  12
BRANCH   9  22
HETATM   22  C   UNL     1      40.866 -14.012  -1.486  1.00  0.00    -0.025 A 
HETATM   23  C   UNL     1      39.593 -13.444  -1.343  1.00  0.00     0.029 A 
HETATM   24  C   UNL     1      38.566 -13.890  -2.159  1.00  0.00     0.117 A 
HETATM   25  N   UNL     1      38.716 -14.847  -3.099  1.00  0.00    -0.273 NA
HETATM   26  C   UNL     1      39.945 -15.388  -3.224  1.00  0.00     0.117 A 
HETATM   27  C   UNL     1      41.038 -15.004  -2.461  1.00  0.00     0.029 A 
ENDBRANCH   9  22
TORSDOF 3
ENDMDL
MODEL 9
REMARK VINA RESULT:      -7.1      2.524      6.438
REMARK  3 active torsions:
REMARK  status: ('A' for Active; 'I' for Inactive)
REMARK    1  A    between atoms: C_9  and  C_10 
REMARK    2  A    between atoms: C_16  and  C_17 
REMARK       I    between atoms: C_17  and  N_18 
REMARK    3  A    between atoms: N_18  and  C_19 
ROOT
HETATM    1  C   UNL     1      44.956 -13.987   6.974  1.00  0.00     0.070 C 
HETATM    2  C   UNL     1      44.317 -15.226   6.396  1.00  0.00     0.037 C 
HETATM    3  N   UNL     1      44.865 -16.434   6.816  1.00  0.00    -0.192 N 
HETATM    4  C   UNL     1      44.264 -17.622   6.611  1.00  0.00     0.725 A 
HETATM    5  N   UNL     1      43.149 -17.683   5.819  1.00  0.00    -0.084 N 
HETATM    6  N   UNL     1      42.636 -18.931   5.789  1.00  0.00    -0.149 NA
HETATM    7  C   UNL     1      43.521 -19.579   6.555  1.00  0.00     0.275 A 
HETATM    8  N   UNL     1      44.536 -18.815   7.074  1.00  0.00    -0.054 NA
HETATM    9  C   UNL     1      42.568 -16.527   5.129  1.00  0.00     0.202 C 
HETATM   10  C   UNL     1      43.235 -15.230   5.578  1.00  0.00     0.062 C 
HETATM   11  H   UNL     1      45.616 -16.397   7.502  1.00  0.00     0.184 HD
ENDROOT
BRANCH  10  12
HETATM   12  C   UNL     1      42.522 -14.004   5.137  1.00  0.00     0.256 C 
HETATM   13  N   UNL     1      41.302 -13.821   5.749  1.00  0.00    -0.322 N 
HETATM   14  H   UNL     1      41.032 -14.489   6.460  1.00  0.00     0.169 HD
HETATM   15  O   UNL     1      43.070 -13.253   4.342  1.00  0.00    -0.267 OA
BRANCH  13  16
HETATM   16  C   UNL     1      40.373 -12.794   5.476  1.00  0.00     0.052 A 
HETATM   17  C   UNL     1      40.028 -11.770   6.353  1.00  0.00     0.145 A 
HETATM   18  N   UNL     1      39.149 -10.777   6.056  1.00  0.00    -0.271 NA
HETATM   19  C   UNL     1      38.587 -10.804   4.832  1.00  0.00     0.116 A 
HETATM   20  C   UNL     1      38.860 -11.779   3.887  1.00  0.00     0.021 A 
HETATM   21  C   UNL     1      39.764 -12.786   4.219  1.00  0.00     0.032 A 
ENDBRANCH  13  16
ENDBRANCH  10  12
BRANCH   9  22
HETATM   22  C   UNL     1      42.651 -16.708   3.616  1.00  0.00    -0.025 A 
HETATM   23  C   UNL     1      41.488 -16.623   2.840  1.00  0.00     0.029 A 
HETATM   24  C   UNL     1      41.589 -16.764   1.465  1.00  0.00     0.117 A 
HETATM   25  N   UNL     1      42.754 -16.977   0.817  1.00  0.00    -0.273 NA
HETATM   26  C   UNL     1      43.865 -17.060   1.575  1.00  0.00     0.117 A 
HETATM   27  C   UNL     1      43.869 -16.924   2.955  1.00  0.00     0.029 A 
ENDBRANCH   9  22
TORSDOF 3
ENDMDL
MODEL 10
REMARK VINA RESULT:      -7.0      1.947      6.211
REMARK  3 active torsions:
REMARK  status: ('A' for Active; 'I' for Inactive)
REMARK    1  A    between atoms: C_9  and  C_10 
REMARK    2  A    between atoms: C_16  and  C_17 
REMARK       I    between atoms: C_17  and  N_18 
REMARK    3  A    between atoms: N_18  and  C_19 
ROOT
HETATM    1  C   UNL     1      44.483 -17.091   6.616  1.00  0.00     0.070 C 
HETATM    2  C   UNL     1      43.896 -17.580   5.314  1.00  0.00     0.037 C 
HETATM    3  N   UNL     1      44.655 -18.527   4.633  1.00  0.00    -0.192 N 
HETATM    4  C   UNL     1      44.170 -19.253   3.607  1.00  0.00     0.725 A 
HETATM    5  N   UNL     1      42.938 -18.952   3.092  1.00  0.00    -0.084 N 
HETATM    6  N   UNL     1      42.581 -19.827   2.130  1.00  0.00    -0.149 NA
HETATM    7  C   UNL     1      43.669 -20.605   2.089  1.00  0.00     0.275 A 
HETATM    8  N   UNL     1      44.667 -20.285   2.974  1.00  0.00    -0.054 NA
HETATM    9  C   UNL     1      42.101 -17.843   3.563  1.00  0.00     0.202 C 
HETATM   10  C   UNL     1      42.684 -17.216   4.826  1.00  0.00     0.062 C 
HETATM   11  H   UNL     1      45.514 -18.846   5.074  1.00  0.00     0.184 HD
ENDROOT
BRANCH  10  12
HETATM   12  C   UNL     1      41.758 -16.279   5.514  1.00  0.00     0.256 C 
HETATM   13  N   UNL     1      41.895 -14.970   5.111  1.00  0.00    -0.322 N 
HETATM   14  H   UNL     1      42.557 -14.776   4.371  1.00  0.00     0.169 HD
HETATM   15  O   UNL     1      40.942 -16.727   6.307  1.00  0.00    -0.267 OA
BRANCH  13  16
HETATM   16  C   UNL     1      41.210 -13.854   5.640  1.00  0.00     0.052 A 
HETATM   17  C   UNL     1      41.816 -12.715   6.163  1.00  0.00     0.145 A 
HETATM   18  N   UNL     1      41.133 -11.642   6.643  1.00  0.00    -0.271 NA
HETATM   19  C   UNL     1      39.788 -11.705   6.601  1.00  0.00     0.116 A 
HETATM   20  C   UNL     1      39.089 -12.791   6.103  1.00  0.00     0.021 A 
HETATM   21  C   UNL     1      39.814 -13.879   5.620  1.00  0.00     0.032 A 
ENDBRANCH  13  16
ENDBRANCH  10  12
BRANCH   9  22
HETATM   22  C   UNL     1      41.909 -16.810   2.458  1.00  0.00    -0.025 A 
HETATM   23  C   UNL     1      40.624 -16.549   1.963  1.00  0.00     0.029 A 
HETATM   24  C   UNL     1      40.469 -15.588   0.977  1.00  0.00     0.117 A 
HETATM   25  N   UNL     1      41.490 -14.872   0.460  1.00  0.00    -0.273 NA
HETATM   26  C   UNL     1      42.721 -15.135   0.942  1.00  0.00     0.117 A 
HETATM   27  C   UNL     1      42.979 -16.071   1.932  1.00  0.00     0.029 A 
ENDBRANCH   9  22
TORSDOF 3
ENDMDL
