MODEL 1
REMARK VINA RESULT:      -9.2      0.000      0.000
REMARK  7 active torsions:
REMARK  status: ('A' for Active; 'I' for Inactive)
REMARK    1  A    between atoms: C_3  and  C_4 
REMARK       I    between atoms: C_4  and  N_5 
REMARK    2  A    between atoms: N_5  and  C_6 
REMARK    3  A    between atoms: C_6  and  C_7 
REMARK    4  A    between atoms: C_7  and  O_8 
REMARK    5  A    between atoms: C_7  and  C_9 
REMARK    6  A    between atoms: C_18  and  N_19 
REMARK       I    between atoms: N_19  and  C_20 
REMARK    7  A    between atoms: C_20  and  C_21 
ROOT
HETATM    1  C   UNL     1      40.564 -13.971   3.233  1.00  0.00     0.050 C 
HETATM    2  C   UNL     1      41.040 -15.241   2.605  1.00  0.00    -0.037 A 
HETATM    3  C   UNL     1      41.109 -15.487   1.236  1.00  0.00     0.080 A 
HETATM    4  S   UNL     1      41.694 -17.067   0.918  1.00  0.00    -0.066 SA
HETATM    5  C   UNL     1      41.917 -17.413   2.557  1.00  0.00     0.078 A 
HETATM    6  C   UNL     1      41.519 -16.367   3.356  1.00  0.00     0.045 A 
ENDROOT
BRANCH   3   7
HETATM    7  C   UNL     1      40.778 -14.571   0.148  1.00  0.00     0.259 C 
HETATM    8  N   UNL     1      41.737 -14.403  -0.831  1.00  0.00    -0.354 N 
HETATM    9  H   UNL     1      42.619 -14.881  -0.683  1.00  0.00     0.162 HD
HETATM   10  O   UNL     1      39.719 -13.948   0.086  1.00  0.00    -0.267 OA
BRANCH   8  11
HETATM   11  C   UNL     1      41.703 -13.303  -1.788  1.00  0.00     0.159 C 
BRANCH  11  12
HETATM   12  C   UNL     1      41.490 -13.726  -3.262  1.00  0.00     0.169 C 
BRANCH  12  13
HETATM   13  O   UNL     1      42.245 -14.888  -3.606  1.00  0.00    -0.389 OA
HETATM   14  H   UNL     1      41.610 -15.561  -3.931  1.00  0.00     0.210 HD
ENDBRANCH  12  13
BRANCH  12  15
HETATM   15  C   UNL     1      40.025 -14.048  -3.504  1.00  0.00    -0.028 A 
HETATM   16  C   UNL     1      39.050 -13.043  -3.404  1.00  0.00     0.013 A 
HETATM   17  C   UNL     1      37.700 -13.347  -3.594  1.00  0.00     0.043 A 
HETATM   18  C   UNL     1      37.322 -14.654  -3.882  1.00  0.00     0.116 A 
HETATM   19  F   UNL     1      36.026 -14.943  -4.062  1.00  0.00    -0.206 F 
HETATM   20  C   UNL     1      38.269 -15.665  -3.986  1.00  0.00     0.043 A 
HETATM   21  C   UNL     1      39.617 -15.363  -3.796  1.00  0.00     0.013 A 
ENDBRANCH  12  15
ENDBRANCH  11  12
ENDBRANCH   8  11
ENDBRANCH   3   7
BRANCH   5  22
HETATM   22  N   UNL     1      42.475 -18.595   3.006  1.00  0.00    -0.317 N 
HETATM   23  C   UNL     1      43.739 -19.080   2.730  1.00  0.00     0.258 C 
HETATM   24  O   UNL     1      44.553 -18.581   1.959  1.00  0.00    -0.267 OA
HETATM   25  H   UNL     1      41.870 -19.162   3.589  1.00  0.00     0.169 HD
BRANCH  23  26
HETATM   26  C   UNL     1      44.161 -20.308   3.484  1.00  0.00     0.054 A 
HETATM   27  C   UNL     1      44.331 -21.593   2.946  1.00  0.00     0.049 A 
HETATM   28 CL   UNL     1      44.154 -21.970   1.266  1.00  0.00    -0.083 Cl
HETATM   29  C   UNL     1      44.690 -22.664   3.778  1.00  0.00     0.025 A 
HETATM   30  C   UNL     1      44.897 -22.467   5.143  1.00  0.00     0.002 A 
HETATM   31  C   UNL     1      44.752 -21.196   5.685  1.00  0.00     0.001 A 
HETATM   32  C   UNL     1      44.389 -20.127   4.863  1.00  0.00     0.019 A 
ENDBRANCH  23  26
ENDBRANCH   5  22
TORSDOF 7
ENDMDL
MODEL 2
REMARK VINA RESULT:      -8.7      7.141     10.208
REMARK  7 active torsions:
REMARK  status: ('A' for Active; 'I' for Inactive)
REMARK    1  A    between atoms: C_3  and  C_4 
REMARK       I    between atoms: C_4  and  N_5 
REMARK    2  A    between atoms: N_5  and  C_6 
REMARK    3  A    between atoms: C_6  and  C_7 
REMARK    4  A    between atoms: C_7  and  O_8 
REMARK    5  A    between atoms: C_7  and  C_9 
REMARK    6  A    between atoms: C_18  and  N_19 
REMARK       I    between atoms: N_19  and  C_20 
REMARK    7  A    between atoms: C_20  and  C_21 
ROOT
HETATM    1  C   UNL     1      39.033 -12.993   5.908  1.00  0.00     0.050 C 
HETATM    2  C   UNL     1      40.366 -13.628   5.674  1.00  0.00    -0.037 A 
HETATM    3  C   UNL     1      41.597 -13.038   5.944  1.00  0.00     0.080 A 
HETATM    4  S   UNL     1      42.891 -14.083   5.524  1.00  0.00    -0.066 SA
HETATM    5  C   UNL     1      41.852 -15.327   5.048  1.00  0.00     0.078 A 
HETATM    6  C   UNL     1      40.532 -14.959   5.161  1.00  0.00     0.045 A 
ENDROOT
BRANCH   3   7
HETATM    7  C   UNL     1      41.848 -11.725   6.532  1.00  0.00     0.259 C 
HETATM    8  N   UNL     1      42.353 -11.711   7.817  1.00  0.00    -0.354 N 
HETATM    9  H   UNL     1      42.451 -12.612   8.272  1.00  0.00     0.162 HD
HETATM   10  O   UNL     1      41.612 -10.667   5.951  1.00  0.00    -0.267 OA
BRANCH   8  11
HETATM   11  C   UNL     1      42.349 -10.515   8.653  1.00  0.00     0.159 C 
BRANCH  11  12
HETATM   12  C   UNL     1      41.101 -10.352   9.553  1.00  0.00     0.169 C 
BRANCH  12  13
HETATM   13  O   UNL     1      40.155 -11.404   9.361  1.00  0.00    -0.389 OA
HETATM   14  H   UNL     1      39.622 -11.469  10.182  1.00  0.00     0.210 HD
ENDBRANCH  12  13
BRANCH  12  15
HETATM   15  C   UNL     1      41.507 -10.369  11.016  1.00  0.00    -0.028 A 
HETATM   16  C   UNL     1      42.727  -9.805  11.422  1.00  0.00     0.013 A 
HETATM   17  C   UNL     1      43.115  -9.850  12.763  1.00  0.00     0.043 A 
HETATM   18  C   UNL     1      42.287 -10.460  13.699  1.00  0.00     0.116 A 
HETATM   19  F   UNL     1      42.664 -10.505  14.985  1.00  0.00    -0.206 F 
HETATM   20  C   UNL     1      41.076 -11.026  13.322  1.00  0.00     0.043 A 
HETATM   21  C   UNL     1      40.687 -10.982  11.983  1.00  0.00     0.013 A 
ENDBRANCH  12  15
ENDBRANCH  11  12
ENDBRANCH   8  11
ENDBRANCH   3   7
BRANCH   5  22
HETATM   22  N   UNL     1      42.304 -16.569   4.641  1.00  0.00    -0.317 N 
HETATM   23  C   UNL     1      43.142 -16.846   3.579  1.00  0.00     0.258 C 
HETATM   24  O   UNL     1      43.559 -16.037   2.755  1.00  0.00    -0.267 OA
HETATM   25  H   UNL     1      41.960 -17.351   5.186  1.00  0.00     0.169 HD
BRANCH  23  26
HETATM   26  C   UNL     1      43.618 -18.265   3.458  1.00  0.00     0.054 A 
HETATM   27  C   UNL     1      44.427 -18.948   4.380  1.00  0.00     0.049 A 
HETATM   28 CL   UNL     1      44.959 -18.278   5.885  1.00  0.00    -0.083 Cl
HETATM   29  C   UNL     1      44.834 -20.265   4.120  1.00  0.00     0.025 A 
HETATM   30  C   UNL     1      44.432 -20.918   2.955  1.00  0.00     0.002 A 
HETATM   31  C   UNL     1      43.614 -20.260   2.044  1.00  0.00     0.001 A 
HETATM   32  C   UNL     1      43.211 -18.948   2.295  1.00  0.00     0.019 A 
ENDBRANCH  23  26
ENDBRANCH   5  22
TORSDOF 7
ENDMDL
MODEL 3
REMARK VINA RESULT:      -8.7      6.353      9.353
REMARK  7 active torsions:
REMARK  status: ('A' for Active; 'I' for Inactive)
REMARK    1  A    between atoms: C_3  and  C_4 
REMARK       I    between atoms: C_4  and  N_5 
REMARK    2  A    between atoms: N_5  and  C_6 
REMARK    3  A    between atoms: C_6  and  C_7 
REMARK    4  A    between atoms: C_7  and  O_8 
REMARK    5  A    between atoms: C_7  and  C_9 
REMARK    6  A    between atoms: C_18  and  N_19 
REMARK       I    between atoms: N_19  and  C_20 
REMARK    7  A    between atoms: C_20  and  C_21 
ROOT
HETATM    1  C   UNL     1      39.227 -13.094   2.921  1.00  0.00     0.050 C 
HETATM    2  C   UNL     1      40.070 -14.070   3.678  1.00  0.00    -0.037 A 
HETATM    3  C   UNL     1      40.418 -13.961   5.021  1.00  0.00     0.080 A 
HETATM    4  S   UNL     1      41.408 -15.273   5.513  1.00  0.00    -0.066 SA
HETATM    5  C   UNL     1      41.335 -16.015   3.997  1.00  0.00     0.078 A 
HETATM    6  C   UNL     1      40.605 -15.271   3.101  1.00  0.00     0.045 A 
ENDROOT
BRANCH   3   7
HETATM    7  C   UNL     1      40.016 -12.923   5.966  1.00  0.00     0.259 C 
HETATM    8  N   UNL     1      41.029 -12.162   6.514  1.00  0.00    -0.354 N 
HETATM    9  H   UNL     1      41.975 -12.426   6.264  1.00  0.00     0.162 HD
HETATM   10  O   UNL     1      38.848 -12.724   6.296  1.00  0.00    -0.267 OA
BRANCH   8  11
HETATM   11  C   UNL     1      40.837 -11.324   7.694  1.00  0.00     0.159 C 
BRANCH  11  12
HETATM   12  C   UNL     1      42.074 -10.496   8.114  1.00  0.00     0.169 C 
BRANCH  12  13
HETATM   13  O   UNL     1      41.895  -9.099   7.878  1.00  0.00    -0.389 OA
HETATM   14  H   UNL     1      41.123  -9.001   7.282  1.00  0.00     0.210 HD
ENDBRANCH  12  13
BRANCH  12  15
HETATM   15  C   UNL     1      42.342 -10.674   9.598  1.00  0.00    -0.028 A 
HETATM   16  C   UNL     1      41.278 -10.710  10.513  1.00  0.00     0.013 A 
HETATM   17  C   UNL     1      41.527 -10.840  11.882  1.00  0.00     0.043 A 
HETATM   18  C   UNL     1      42.837 -10.934  12.338  1.00  0.00     0.116 A 
HETATM   19  F   UNL     1      43.072 -11.056  13.651  1.00  0.00    -0.206 F 
HETATM   20  C   UNL     1      43.906 -10.900  11.452  1.00  0.00     0.043 A 
HETATM   21  C   UNL     1      43.659 -10.769  10.085  1.00  0.00     0.013 A 
ENDBRANCH  12  15
ENDBRANCH  11  12
ENDBRANCH   8  11
ENDBRANCH   3   7
BRANCH   5  22
HETATM   22  N   UNL     1      41.912 -17.244   3.734  1.00  0.00    -0.317 N 
HETATM   23  C   UNL     1      43.138 -17.481   3.143  1.00  0.00     0.258 C 
HETATM   24  O   UNL     1      43.889 -16.634   2.667  1.00  0.00    -0.267 OA
HETATM   25  H   UNL     1      41.353 -18.046   3.997  1.00  0.00     0.169 HD
BRANCH  23  26
HETATM   26  C   UNL     1      43.607 -18.908   3.130  1.00  0.00     0.054 A 
HETATM   27  C   UNL     1      44.359 -19.541   4.131  1.00  0.00     0.049 A 
HETATM   28 CL   UNL     1      44.816 -18.789   5.622  1.00  0.00    -0.083 Cl
HETATM   29  C   UNL     1      44.766 -20.874   3.970  1.00  0.00     0.025 A 
HETATM   30  C   UNL     1      44.420 -21.591   2.825  1.00  0.00     0.002 A 
HETATM   31  C   UNL     1      43.659 -20.982   1.835  1.00  0.00     0.001 A 
HETATM   32  C   UNL     1      43.255 -19.654   1.988  1.00  0.00     0.019 A 
ENDBRANCH  23  26
ENDBRANCH   5  22
TORSDOF 7
ENDMDL
MODEL 4
REMARK VINA RESULT:      -8.7      7.414     10.432
REMARK  7 active torsions:
REMARK  status: ('A' for Active; 'I' for Inactive)
REMARK    1  A    between atoms: C_3  and  C_4 
REMARK       I    between atoms: C_4  and  N_5 
REMARK    2  A    between atoms: N_5  and  C_6 
REMARK    3  A    between atoms: C_6  and  C_7 
REMARK    4  A    between atoms: C_7  and  O_8 
REMARK    5  A    between atoms: C_7  and  C_9 
REMARK    6  A    between atoms: C_18  and  N_19 
REMARK       I    between atoms: N_19  and  C_20 
REMARK    7  A    between atoms: C_20  and  C_21 
ROOT
HETATM    1  C   UNL     1      39.247 -13.074   5.841  1.00  0.00     0.050 C 
HETATM    2  C   UNL     1      40.631 -13.587   5.600  1.00  0.00    -0.037 A 
HETATM    3  C   UNL     1      41.804 -12.971   6.028  1.00  0.00     0.080 A 
HETATM    4  S   UNL     1      43.185 -13.863   5.541  1.00  0.00    -0.066 SA
HETATM    5  C   UNL     1      42.260 -15.082   4.826  1.00  0.00     0.078 A 
HETATM    6  C   UNL     1      40.913 -14.814   4.910  1.00  0.00     0.045 A 
ENDROOT
BRANCH   3   7
HETATM    7  C   UNL     1      41.933 -11.748   6.815  1.00  0.00     0.259 C 
HETATM    8  N   UNL     1      42.754 -11.812   7.924  1.00  0.00    -0.354 N 
HETATM    9  H   UNL     1      43.151 -12.720   8.137  1.00  0.00     0.162 HD
HETATM   10  O   UNL     1      41.340 -10.704   6.547  1.00  0.00    -0.267 OA
BRANCH   8  11
HETATM   11  C   UNL     1      42.735 -10.804   8.978  1.00  0.00     0.159 C 
BRANCH  11  12
HETATM   12  C   UNL     1      43.757 -11.032  10.118  1.00  0.00     0.169 C 
BRANCH  12  13
HETATM   13  O   UNL     1      44.899 -10.183   9.998  1.00  0.00    -0.389 OA
HETATM   14  H   UNL     1      45.490 -10.384  10.755  1.00  0.00     0.210 HD
ENDBRANCH  12  13
BRANCH  12  15
HETATM   15  C   UNL     1      43.113 -10.740  11.462  1.00  0.00    -0.028 A 
HETATM   16  C   UNL     1      43.763  -9.918  12.397  1.00  0.00     0.013 A 
HETATM   17  C   UNL     1      43.186  -9.677  13.647  1.00  0.00     0.043 A 
HETATM   18  C   UNL     1      41.962 -10.257  13.964  1.00  0.00     0.116 A 
HETATM   19  F   UNL     1      41.413 -10.025  15.164  1.00  0.00    -0.206 F 
HETATM   20  C   UNL     1      41.302 -11.073  13.055  1.00  0.00     0.043 A 
HETATM   21  C   UNL     1      41.876 -11.316  11.807  1.00  0.00     0.013 A 
ENDBRANCH  12  15
ENDBRANCH  11  12
ENDBRANCH   8  11
ENDBRANCH   3   7
BRANCH   5  22
HETATM   22  N   UNL     1      42.815 -16.221   4.272  1.00  0.00    -0.317 N 
HETATM   23  C   UNL     1      42.846 -17.487   4.822  1.00  0.00     0.258 C 
HETATM   24  O   UNL     1      42.460 -17.799   5.945  1.00  0.00    -0.267 OA
HETATM   25  H   UNL     1      43.257 -16.088   3.371  1.00  0.00     0.169 HD
BRANCH  23  26
HETATM   26  C   UNL     1      43.358 -18.586   3.936  1.00  0.00     0.054 A 
HETATM   27  C   UNL     1      42.927 -18.865   2.630  1.00  0.00     0.049 A 
HETATM   28 CL   UNL     1      41.761 -17.917   1.772  1.00  0.00    -0.083 Cl
HETATM   29  C   UNL     1      43.465 -19.954   1.928  1.00  0.00     0.025 A 
HETATM   30  C   UNL     1      44.441 -20.763   2.508  1.00  0.00     0.002 A 
HETATM   31  C   UNL     1      44.892 -20.486   3.793  1.00  0.00     0.001 A 
HETATM   32  C   UNL     1      44.356 -19.407   4.499  1.00  0.00     0.019 A 
ENDBRANCH  23  26
ENDBRANCH   5  22
TORSDOF 7
ENDMDL
MODEL 5
REMARK VINA RESULT:      -8.5      2.026      2.654
REMARK  7 active torsions:
REMARK  status: ('A' for Active; 'I' for Inactive)
REMARK    1  A    between atoms: C_3  and  C_4 
REMARK       I    between atoms: C_4  and  N_5 
REMARK    2  A    between atoms: N_5  and  C_6 
REMARK    3  A    between atoms: C_6  and  C_7 
REMARK    4  A    between atoms: C_7  and  O_8 
REMARK    5  A    between atoms: C_7  and  C_9 
REMARK    6  A    between atoms: C_18  and  N_19 
REMARK       I    between atoms: N_19  and  C_20 
REMARK    7  A    between atoms: C_20  and  C_21 
ROOT
HETATM    1  C   UNL     1      40.029 -13.785   5.135  1.00  0.00     0.050 C 
HETATM    2  C   UNL     1      40.296 -14.809   4.079  1.00  0.00    -0.037 A 
HETATM    3  C   UNL     1      39.923 -14.703   2.742  1.00  0.00     0.080 A 
HETATM    4  S   UNL     1      40.397 -16.091   1.854  1.00  0.00    -0.066 SA
HETATM    5  C   UNL     1      41.142 -16.805   3.193  1.00  0.00     0.078 A 
HETATM    6  C   UNL     1      41.008 -16.032   4.322  1.00  0.00     0.045 A 
ENDROOT
BRANCH   3   7
HETATM    7  C   UNL     1      39.244 -13.586   2.091  1.00  0.00     0.259 C 
HETATM    8  N   UNL     1      38.413 -13.900   1.034  1.00  0.00    -0.354 N 
HETATM    9  H   UNL     1      38.390 -14.875   0.755  1.00  0.00     0.162 HD
HETATM   10  O   UNL     1      39.398 -12.413   2.426  1.00  0.00    -0.267 OA
BRANCH   8  11
HETATM   11  C   UNL     1      37.930 -12.901   0.087  1.00  0.00     0.159 C 
BRANCH  11  12
HETATM   12  C   UNL     1      38.913 -12.559  -1.059  1.00  0.00     0.169 C 
BRANCH  12  13
HETATM   13  O   UNL     1      40.251 -12.387  -0.590  1.00  0.00    -0.389 OA
HETATM   14  H   UNL     1      40.728 -11.856  -1.263  1.00  0.00     0.210 HD
ENDBRANCH  12  13
BRANCH  12  15
HETATM   15  C   UNL     1      38.932 -13.681  -2.082  1.00  0.00    -0.028 A 
HETATM   16  C   UNL     1      40.146 -14.267  -2.472  1.00  0.00     0.013 A 
HETATM   17  C   UNL     1      40.166 -15.276  -3.438  1.00  0.00     0.043 A 
HETATM   18  C   UNL     1      38.974 -15.699  -4.017  1.00  0.00     0.116 A 
HETATM   19  F   UNL     1      38.997 -16.665  -4.946  1.00  0.00    -0.206 F 
HETATM   20  C   UNL     1      37.761 -15.133  -3.649  1.00  0.00     0.043 A 
HETATM   21  C   UNL     1      37.739 -14.125  -2.684  1.00  0.00     0.013 A 
ENDBRANCH  12  15
ENDBRANCH  11  12
ENDBRANCH   8  11
ENDBRANCH   3   7
BRANCH   5  22
HETATM   22  N   UNL     1      41.833 -18.001   3.119  1.00  0.00    -0.317 N 
HETATM   23  C   UNL     1      43.155 -18.180   2.762  1.00  0.00     0.258 C 
HETATM   24  O   UNL     1      43.921 -17.310   2.359  1.00  0.00    -0.267 OA
HETATM   25  H   UNL     1      41.289 -18.825   3.342  1.00  0.00     0.169 HD
BRANCH  23  26
HETATM   26  C   UNL     1      43.708 -19.566   2.931  1.00  0.00     0.054 A 
HETATM   27  C   UNL     1      44.454 -20.032   4.024  1.00  0.00     0.049 A 
HETATM   28 CL   UNL     1      44.803 -19.087   5.432  1.00  0.00    -0.083 Cl
HETATM   29  C   UNL     1      44.948 -21.345   4.033  1.00  0.00     0.025 A 
HETATM   30  C   UNL     1      44.694 -22.208   2.968  1.00  0.00     0.002 A 
HETATM   31  C   UNL     1      43.939 -21.766   1.888  1.00  0.00     0.001 A 
HETATM   32  C   UNL     1      43.450 -20.458   1.871  1.00  0.00     0.019 A 
ENDBRANCH  23  26
ENDBRANCH   5  22
TORSDOF 7
ENDMDL
MODEL 6
REMARK VINA RESULT:      -8.5      6.700      9.451
REMARK  7 active torsions:
REMARK  status: ('A' for Active; 'I' for Inactive)
REMARK    1  A    between atoms: C_3  and  C_4 
REMARK       I    between atoms: C_4  and  N_5 
REMARK    2  A    between atoms: N_5  and  C_6 
REMARK    3  A    between atoms: C_6  and  C_7 
REMARK    4  A    between atoms: C_7  and  O_8 
REMARK    5  A    between atoms: C_7  and  C_9 
REMARK    6  A    between atoms: C_18  and  N_19 
REMARK       I    between atoms: N_19  and  C_20 
REMARK    7  A    between atoms: C_20  and  C_21 
ROOT
HETATM    1  C   UNL     1      44.649 -13.578   7.594  1.00  0.00     0.050 C 
HETATM    2  C   UNL     1      43.854 -14.405   6.634  1.00  0.00    -0.037 A 
HETATM    3  C   UNL     1      42.748 -13.962   5.915  1.00  0.00     0.080 A 
HETATM    4  S   UNL     1      42.105 -15.213   4.933  1.00  0.00    -0.066 SA
HETATM    5  C   UNL     1      43.300 -16.314   5.396  1.00  0.00     0.078 A 
HETATM    6  C   UNL     1      44.165 -15.770   6.316  1.00  0.00     0.045 A 
ENDROOT
BRANCH   3   7
HETATM    7  C   UNL     1      42.163 -12.624   5.911  1.00  0.00     0.259 C 
HETATM    8  N   UNL     1      41.822 -12.096   7.140  1.00  0.00    -0.354 N 
HETATM    9  H   UNL     1      41.947 -12.705   7.941  1.00  0.00     0.162 HD
HETATM   10  O   UNL     1      41.951 -11.980   4.884  1.00  0.00    -0.267 OA
BRANCH   8  11
HETATM   11  C   UNL     1      40.946 -10.938   7.286  1.00  0.00     0.159 C 
BRANCH  11  12
HETATM   12  C   UNL     1      40.110 -10.913   8.588  1.00  0.00     0.169 C 
BRANCH  12  13
HETATM   13  O   UNL     1      39.373 -12.120   8.781  1.00  0.00    -0.389 OA
HETATM   14  H   UNL     1      39.084 -12.430   7.896  1.00  0.00     0.210 HD
ENDBRANCH  12  13
BRANCH  12  15
HETATM   15  C   UNL     1      41.022 -10.741   9.790  1.00  0.00    -0.028 A 
HETATM   16  C   UNL     1      40.603 -11.154  11.065  1.00  0.00     0.013 A 
HETATM   17  C   UNL     1      41.429 -10.965  12.176  1.00  0.00     0.043 A 
HETATM   18  C   UNL     1      42.671 -10.362  12.016  1.00  0.00     0.116 A 
HETATM   19  F   UNL     1      43.460 -10.180  13.084  1.00  0.00    -0.206 F 
HETATM   20  C   UNL     1      43.107  -9.944  10.765  1.00  0.00     0.043 A 
HETATM   21  C   UNL     1      42.283 -10.131   9.655  1.00  0.00     0.013 A 
ENDBRANCH  12  15
ENDBRANCH  11  12
ENDBRANCH   8  11
ENDBRANCH   3   7
BRANCH   5  22
HETATM   22  N   UNL     1      43.397 -17.586   4.862  1.00  0.00    -0.317 N 
HETATM   23  C   UNL     1      43.762 -17.925   3.574  1.00  0.00     0.258 C 
HETATM   24  O   UNL     1      43.977 -17.144   2.652  1.00  0.00    -0.267 OA
HETATM   25  H   UNL     1      43.155 -18.337   5.497  1.00  0.00     0.169 HD
BRANCH  23  26
HETATM   26  C   UNL     1      43.956 -19.389   3.300  1.00  0.00     0.054 A 
HETATM   27  C   UNL     1      44.412 -20.349   4.216  1.00  0.00     0.049 A 
HETATM   28 CL   UNL     1      44.762 -20.013   5.878  1.00  0.00    -0.083 Cl
HETATM   29  C   UNL     1      44.587 -21.682   3.813  1.00  0.00     0.025 A 
HETATM   30  C   UNL     1      44.299 -22.074   2.506  1.00  0.00     0.002 A 
HETATM   31  C   UNL     1      43.826 -21.137   1.594  1.00  0.00     0.001 A 
HETATM   32  C   UNL     1      43.655 -19.809   1.989  1.00  0.00     0.019 A 
ENDBRANCH  23  26
ENDBRANCH   5  22
TORSDOF 7
ENDMDL
MODEL 7
REMARK VINA RESULT:      -8.2      5.551      7.906
REMARK  7 active torsions:
REMARK  status: ('A' for Active; 'I' for Inactive)
REMARK    1  A    between atoms: C_3  and  C_4 
REMARK       I    between atoms: C_4  and  N_5 
REMARK    2  A    between atoms: N_5  and  C_6 
REMARK    3  A    between atoms: C_6  and  C_7 
REMARK    4  A    between atoms: C_7  and  O_8 
REMARK    5  A    between atoms: C_7  and  C_9 
REMARK    6  A    between atoms: C_18  and  N_19 
REMARK       I    between atoms: N_19  and  C_20 
REMARK    7  A    between atoms: C_20  and  C_21 
ROOT
HETATM    1  C   UNL     1      44.724 -19.048   5.821  1.00  0.00     0.050 C 
HETATM    2  C   UNL     1      44.265 -17.625   5.862  1.00  0.00    -0.037 A 
HETATM    3  C   UNL     1      43.550 -16.981   4.857  1.00  0.00     0.080 A 
HETATM    4  S   UNL     1      43.224 -15.350   5.276  1.00  0.00    -0.066 SA
HETATM    5  C   UNL     1      43.958 -15.497   6.791  1.00  0.00     0.078 A 
HETATM    6  C   UNL     1      44.488 -16.752   6.980  1.00  0.00     0.045 A 
ENDROOT
BRANCH   3   7
HETATM    7  C   UNL     1      43.073 -17.547   3.598  1.00  0.00     0.259 C 
HETATM    8  N   UNL     1      43.352 -16.827   2.454  1.00  0.00    -0.354 N 
HETATM    9  H   UNL     1      43.811 -15.932   2.586  1.00  0.00     0.162 HD
HETATM   10  O   UNL     1      42.436 -18.596   3.525  1.00  0.00    -0.267 OA
BRANCH   8  11
HETATM   11  C   UNL     1      42.680 -17.074   1.182  1.00  0.00     0.159 C 
BRANCH  11  12
HETATM   12  C   UNL     1      42.039 -15.826   0.530  1.00  0.00     0.169 C 
BRANCH  12  13
HETATM   13  O   UNL     1      40.978 -16.167  -0.363  1.00  0.00    -0.389 OA
HETATM   14  H   UNL     1      41.225 -17.009  -0.800  1.00  0.00     0.210 HD
ENDBRANCH  12  13
BRANCH  12  15
HETATM   15  C   UNL     1      41.456 -14.919   1.600  1.00  0.00    -0.028 A 
HETATM   16  C   UNL     1      42.048 -13.676   1.878  1.00  0.00     0.013 A 
HETATM   17  C   UNL     1      41.532 -12.858   2.886  1.00  0.00     0.043 A 
HETATM   18  C   UNL     1      40.428 -13.280   3.618  1.00  0.00     0.116 A 
HETATM   19  F   UNL     1      39.937 -12.494   4.586  1.00  0.00    -0.206 F 
HETATM   20  C   UNL     1      39.827 -14.505   3.363  1.00  0.00     0.043 A 
HETATM   21  C   UNL     1      40.340 -15.324   2.357  1.00  0.00     0.013 A 
ENDBRANCH  12  15
ENDBRANCH  11  12
ENDBRANCH   8  11
ENDBRANCH   3   7
BRANCH   5  22
HETATM   22  N   UNL     1      43.970 -14.475   7.722  1.00  0.00    -0.317 N 
HETATM   23  C   UNL     1      44.857 -13.418   7.790  1.00  0.00     0.258 C 
HETATM   24  O   UNL     1      45.847 -13.256   7.083  1.00  0.00    -0.267 OA
HETATM   25  H   UNL     1      43.251 -14.534   8.432  1.00  0.00     0.169 HD
BRANCH  23  26
HETATM   26  C   UNL     1      44.543 -12.350   8.799  1.00  0.00     0.054 A 
HETATM   27  C   UNL     1      43.483 -11.434   8.731  1.00  0.00     0.049 A 
HETATM   28 CL   UNL     1      42.282 -11.431   7.484  1.00  0.00    -0.083 Cl
HETATM   29  C   UNL     1      43.331 -10.456   9.727  1.00  0.00     0.025 A 
HETATM   30  C   UNL     1      44.218 -10.390  10.800  1.00  0.00     0.002 A 
HETATM   31  C   UNL     1      45.261 -11.304  10.890  1.00  0.00     0.001 A 
HETATM   32  C   UNL     1      45.420 -12.275   9.900  1.00  0.00     0.019 A 
ENDBRANCH  23  26
ENDBRANCH   5  22
TORSDOF 7
ENDMDL
MODEL 8
REMARK VINA RESULT:      -8.2      2.711      3.425
REMARK  7 active torsions:
REMARK  status: ('A' for Active; 'I' for Inactive)
REMARK    1  A    between atoms: C_3  and  C_4 
REMARK       I    between atoms: C_4  and  N_5 
REMARK    2  A    between atoms: N_5  and  C_6 
REMARK    3  A    between atoms: C_6  and  C_7 
REMARK    4  A    between atoms: C_7  and  O_8 
REMARK    5  A    between atoms: C_7  and  C_9 
REMARK    6  A    between atoms: C_18  and  N_19 
REMARK       I    between atoms: N_19  and  C_20 
REMARK    7  A    between atoms: C_20  and  C_21 
ROOT
HETATM    1  C   UNL     1      39.871 -14.158   2.787  1.00  0.00     0.050 C 
HETATM    2  C   UNL     1      40.624 -15.313   2.206  1.00  0.00    -0.037 A 
HETATM    3  C   UNL     1      41.015 -15.431   0.876  1.00  0.00     0.080 A 
HETATM    4  S   UNL     1      41.844 -16.907   0.603  1.00  0.00    -0.066 SA
HETATM    5  C   UNL     1      41.750 -17.367   2.226  1.00  0.00     0.078 A 
HETATM    6  C   UNL     1      41.064 -16.441   2.977  1.00  0.00     0.045 A 
ENDROOT
BRANCH   3   7
HETATM    7  C   UNL     1      40.815 -14.467  -0.202  1.00  0.00     0.259 C 
HETATM    8  N   UNL     1      41.908 -13.700  -0.554  1.00  0.00    -0.354 N 
HETATM    9  H   UNL     1      42.744 -13.824   0.007  1.00  0.00     0.162 HD
HETATM   10  O   UNL     1      39.739 -14.304  -0.774  1.00  0.00    -0.267 OA
BRANCH   8  11
HETATM   11  C   UNL     1      41.796 -12.490  -1.363  1.00  0.00     0.159 C 
BRANCH  11  12
HETATM   12  C   UNL     1      42.588 -12.519  -2.692  1.00  0.00     0.169 C 
BRANCH  12  13
HETATM   13  O   UNL     1      42.093 -13.508  -3.595  1.00  0.00    -0.389 OA
HETATM   14  H   UNL     1      41.525 -14.117  -3.077  1.00  0.00     0.210 HD
ENDBRANCH  12  13
BRANCH  12  15
HETATM   15  C   UNL     1      42.483 -11.174  -3.390  1.00  0.00    -0.028 A 
HETATM   16  C   UNL     1      42.377 -11.106  -4.789  1.00  0.00     0.013 A 
HETATM   17  C   UNL     1      42.314  -9.867  -5.432  1.00  0.00     0.043 A 
HETATM   18  C   UNL     1      42.360  -8.698  -4.682  1.00  0.00     0.116 A 
HETATM   19  F   UNL     1      42.303  -7.512  -5.303  1.00  0.00    -0.206 F 
HETATM   20  C   UNL     1      42.466  -8.740  -3.298  1.00  0.00     0.043 A 
HETATM   21  C   UNL     1      42.529  -9.976  -2.653  1.00  0.00     0.013 A 
ENDBRANCH  12  15
ENDBRANCH  11  12
ENDBRANCH   8  11
ENDBRANCH   3   7
BRANCH   5  22
HETATM   22  N   UNL     1      42.339 -18.517   2.717  1.00  0.00    -0.317 N 
HETATM   23  C   UNL     1      43.660 -18.900   2.585  1.00  0.00     0.258 C 
HETATM   24  O   UNL     1      44.520 -18.321   1.928  1.00  0.00    -0.267 OA
HETATM   25  H   UNL     1      41.714 -19.142   3.212  1.00  0.00     0.169 HD
BRANCH  23  26
HETATM   26  C   UNL     1      44.082 -20.114   3.362  1.00  0.00     0.054 A 
HETATM   27  C   UNL     1      44.270 -21.404   2.844  1.00  0.00     0.049 A 
HETATM   28 CL   UNL     1      44.121 -21.805   1.166  1.00  0.00    -0.083 Cl
HETATM   29  C   UNL     1      44.627 -22.461   3.695  1.00  0.00     0.025 A 
HETATM   30  C   UNL     1      44.813 -22.244   5.060  1.00  0.00     0.002 A 
HETATM   31  C   UNL     1      44.649 -20.967   5.583  1.00  0.00     0.001 A 
HETATM   32  C   UNL     1      44.289 -19.913   4.742  1.00  0.00     0.019 A 
ENDBRANCH  23  26
ENDBRANCH   5  22
TORSDOF 7
ENDMDL
MODEL 9
REMARK VINA RESULT:      -7.9      6.676      9.727
REMARK  7 active torsions:
REMARK  status: ('A' for Active; 'I' for Inactive)
REMARK    1  A    between atoms: C_3  and  C_4 
REMARK       I    between atoms: C_4  and  N_5 
REMARK    2  A    between atoms: N_5  and  C_6 
REMARK    3  A    between atoms: C_6  and  C_7 
REMARK    4  A    between atoms: C_7  and  O_8 
REMARK    5  A    between atoms: C_7  and  C_9 
REMARK    6  A    between atoms: C_18  and  N_19 
REMARK       I    between atoms: N_19  and  C_20 
REMARK    7  A    between atoms: C_20  and  C_21 
ROOT
HETATM    1  C   UNL     1      39.047 -12.091   4.531  1.00  0.00     0.050 C 
HETATM    2  C   UNL     1      40.332 -12.817   4.774  1.00  0.00    -0.037 A 
HETATM    3  C   UNL     1      41.308 -12.440   5.692  1.00  0.00     0.080 A 
HETATM    4  S   UNL     1      42.638 -13.522   5.661  1.00  0.00    -0.066 SA
HETATM    5  C   UNL     1      41.920 -14.517   4.499  1.00  0.00     0.078 A 
HETATM    6  C   UNL     1      40.699 -14.027   4.096  1.00  0.00     0.045 A 
ENDROOT
BRANCH   3   7
HETATM    7  C   UNL     1      41.275 -11.310   6.616  1.00  0.00     0.259 C 
HETATM    8  N   UNL     1      40.884 -11.584   7.911  1.00  0.00    -0.354 N 
HETATM    9  H   UNL     1      40.590 -12.536   8.101  1.00  0.00     0.162 HD
HETATM   10  O   UNL     1      41.554 -10.158   6.287  1.00  0.00    -0.267 OA
BRANCH   8  11
HETATM   11  C   UNL     1      40.488 -10.542   8.853  1.00  0.00     0.159 C 
BRANCH  11  12
HETATM   12  C   UNL     1      41.650  -9.671   9.389  1.00  0.00     0.169 C 
BRANCH  12  13
HETATM   13  O   UNL     1      41.231  -8.795  10.436  1.00  0.00    -0.389 OA
HETATM   14  H   UNL     1      40.930  -9.357  11.182  1.00  0.00     0.210 HD
ENDBRANCH  12  13
BRANCH  12  15
HETATM   15  C   UNL     1      42.749 -10.557   9.951  1.00  0.00    -0.028 A 
HETATM   16  C   UNL     1      42.581 -11.198  11.188  1.00  0.00     0.013 A 
HETATM   17  C   UNL     1      43.606 -11.986  11.720  1.00  0.00     0.043 A 
HETATM   18  C   UNL     1      44.797 -12.131  11.019  1.00  0.00     0.116 A 
HETATM   19  F   UNL     1      45.779 -12.885  11.533  1.00  0.00    -0.206 F 
HETATM   20  C   UNL     1      44.987 -11.505   9.794  1.00  0.00     0.043 A 
HETATM   21  C   UNL     1      43.965 -10.718   9.261  1.00  0.00     0.013 A 
ENDBRANCH  12  15
ENDBRANCH  11  12
ENDBRANCH   8  11
ENDBRANCH   3   7
BRANCH   5  22
HETATM   22  N   UNL     1      42.493 -15.695   4.061  1.00  0.00    -0.317 N 
HETATM   23  C   UNL     1      42.281 -16.965   4.563  1.00  0.00     0.258 C 
HETATM   24  O   UNL     1      41.610 -17.250   5.550  1.00  0.00    -0.267 OA
HETATM   25  H   UNL     1      43.149 -15.595   3.296  1.00  0.00     0.169 HD
BRANCH  23  26
HETATM   26  C   UNL     1      42.897 -18.097   3.793  1.00  0.00     0.054 A 
HETATM   27  C   UNL     1      42.554 -18.497   2.492  1.00  0.00     0.049 A 
HETATM   28 CL   UNL     1      41.391 -17.681   1.503  1.00  0.00    -0.083 Cl
HETATM   29  C   UNL     1      43.184 -19.605   1.905  1.00  0.00     0.025 A 
HETATM   30  C   UNL     1      44.166 -20.314   2.597  1.00  0.00     0.002 A 
HETATM   31  C   UNL     1      44.529 -19.916   3.878  1.00  0.00     0.001 A 
HETATM   32  C   UNL     1      43.902 -18.818   4.469  1.00  0.00     0.019 A 
ENDBRANCH  23  26
ENDBRANCH   5  22
TORSDOF 7
ENDMDL
MODEL 10
REMARK VINA RESULT:      -7.9      2.243      2.918
REMARK  7 active torsions:
REMARK  status: ('A' for Active; 'I' for Inactive)
REMARK    1  A    between atoms: C_3  and  C_4 
REMARK       I    between atoms: C_4  and  N_5 
REMARK    2  A    between atoms: N_5  and  C_6 
REMARK    3  A    between atoms: C_6  and  C_7 
REMARK    4  A    between atoms: C_7  and  O_8 
REMARK    5  A    between atoms: C_7  and  C_9 
REMARK    6  A    between atoms: C_18  and  N_19 
REMARK       I    between atoms: N_19  and  C_20 
REMARK    7  A    between atoms: C_20  and  C_21 
ROOT
HETATM    1  C   UNL     1      39.317 -13.642   2.252  1.00  0.00     0.050 C 
HETATM    2  C   UNL     1      40.133 -14.770   1.705  1.00  0.00    -0.037 A 
HETATM    3  C   UNL     1      40.509 -14.920   0.374  1.00  0.00     0.080 A 
HETATM    4  S   UNL     1      41.428 -16.350   0.147  1.00  0.00    -0.066 SA
HETATM    5  C   UNL     1      41.390 -16.745   1.789  1.00  0.00     0.078 A 
HETATM    6  C   UNL     1      40.658 -15.833   2.514  1.00  0.00     0.045 A 
ENDROOT
BRANCH   3   7
HETATM    7  C   UNL     1      40.231 -14.017  -0.740  1.00  0.00     0.259 C 
HETATM    8  N   UNL     1      39.159 -14.344  -1.545  1.00  0.00    -0.354 N 
HETATM    9  H   UNL     1      38.690 -15.219  -1.337  1.00  0.00     0.162 HD
HETATM   10  O   UNL     1      40.907 -13.020  -0.989  1.00  0.00    -0.267 OA
BRANCH   8  11
HETATM   11  C   UNL     1      38.950 -13.748  -2.861  1.00  0.00     0.159 C 
BRANCH  11  12
HETATM   12  C   UNL     1      37.858 -14.430  -3.720  1.00  0.00     0.169 C 
BRANCH  12  13
HETATM   13  O   UNL     1      37.288 -15.566  -3.069  1.00  0.00    -0.389 OA
HETATM   14  H   UNL     1      38.030 -16.147  -2.797  1.00  0.00     0.210 HD
ENDBRANCH  12  13
BRANCH  12  15
HETATM   15  C   UNL     1      36.728 -13.454  -3.999  1.00  0.00    -0.028 A 
HETATM   16  C   UNL     1      36.780 -12.144  -3.495  1.00  0.00     0.013 A 
HETATM   17  C   UNL     1      35.725 -11.257  -3.724  1.00  0.00     0.043 A 
HETATM   18  C   UNL     1      34.618 -11.677  -4.452  1.00  0.00     0.116 A 
HETATM   19  F   UNL     1      33.606 -10.824  -4.667  1.00  0.00    -0.206 F 
HETATM   20  C   UNL     1      34.543 -12.967  -4.959  1.00  0.00     0.043 A 
HETATM   21  C   UNL     1      35.595 -13.855  -4.731  1.00  0.00     0.013 A 
ENDBRANCH  12  15
ENDBRANCH  11  12
ENDBRANCH   8  11
ENDBRANCH   3   7
BRANCH   5  22
HETATM   22  N   UNL     1      42.060 -17.832   2.316  1.00  0.00    -0.317 N 
HETATM   23  C   UNL     1      43.415 -18.093   2.246  1.00  0.00     0.258 C 
HETATM   24  O   UNL     1      44.246 -17.441   1.621  1.00  0.00    -0.267 OA
HETATM   25  H   UNL     1      41.475 -18.509   2.790  1.00  0.00     0.169 HD
BRANCH  23  26
HETATM   26  C   UNL     1      43.912 -19.258   3.052  1.00  0.00     0.054 A 
HETATM   27  C   UNL     1      44.306 -19.225   4.399  1.00  0.00     0.049 A 
HETATM   28 CL   UNL     1      44.207 -17.818   5.403  1.00  0.00    -0.083 Cl
HETATM   29  C   UNL     1      44.793 -20.385   5.020  1.00  0.00     0.025 A 
HETATM   30  C   UNL     1      44.879 -21.586   4.317  1.00  0.00     0.002 A 
HETATM   31  C   UNL     1      44.473 -21.637   2.989  1.00  0.00     0.001 A 
HETATM   32  C   UNL     1      43.994 -20.485   2.364  1.00  0.00     0.019 A 
ENDBRANCH  23  26
ENDBRANCH   5  22
TORSDOF 7
ENDMDL
