MODEL 1
REMARK VINA RESULT:      -9.2      0.000      0.000
REMARK  6 active torsions:
REMARK  status: ('A' for Active; 'I' for Inactive)
REMARK    1  A    between atoms: O_2  and  C_3 
REMARK    2  A    between atoms: C_6  and  C_7 
REMARK    3  A    between atoms: C_12  and  C_13 
REMARK       I    between atoms: C_13  and  N_14 
REMARK    4  A    between atoms: N_14  and  C_15 
REMARK    5  A    between atoms: C_15  and  C_16 
REMARK    6  A    between atoms: C_24  and  C_25 
ROOT
HETATM    1  C   UNL     1      41.132 -17.054   3.385  1.00  0.00     0.118 C 
HETATM    2  N   UNL     1      40.469 -16.481   4.551  1.00  0.00    -0.366 N 
HETATM    3  C   UNL     1      40.610 -15.191   4.915  1.00  0.00     0.123 A 
HETATM    4  N   UNL     1      41.394 -14.324   4.206  1.00  0.00    -0.240 N 
HETATM    5  N   UNL     1      41.381 -13.063   4.676  1.00  0.00    -0.165 NA
HETATM    6  C   UNL     1      40.597 -13.144   5.776  1.00  0.00     0.148 A 
HETATM    7  C   UNL     1      40.090 -14.461   5.951  1.00  0.00     0.088 A 
HETATM    8  C   UNL     1      42.146 -14.692   3.024  1.00  0.00     0.221 C 
HETATM    9  C   UNL     1      41.546 -15.957   2.385  1.00  0.00     0.066 C 
HETATM   10  H   UNL     1      39.952 -17.142   5.130  1.00  0.00     0.161 HD
ENDROOT
BRANCH   6  11
HETATM   11  C   UNL     1      40.344 -11.984   6.645  1.00  0.00     0.272 C 
HETATM   12  N   UNL     1      41.438 -11.619   7.391  1.00  0.00    -0.351 N 
HETATM   13  H   UNL     1      42.289 -12.146   7.220  1.00  0.00     0.163 HD
HETATM   14  O   UNL     1      39.256 -11.420   6.700  1.00  0.00    -0.266 OA
BRANCH  12  15
HETATM   15  C   UNL     1      41.432 -10.528   8.328  1.00  0.00     0.161 C 
BRANCH  15  16
HETATM   16  C   UNL     1      42.603 -10.617   9.270  1.00  0.00    -0.041 A 
HETATM   17  C   UNL     1      43.724 -11.387   8.931  1.00  0.00     0.009 A 
HETATM   18  C   UNL     1      44.811 -11.477   9.802  1.00  0.00     0.001 A 
HETATM   19  C   UNL     1      44.783 -10.806  11.024  1.00  0.00     0.000 A 
HETATM   20  C   UNL     1      43.668 -10.048  11.377  1.00  0.00     0.001 A 
HETATM   21  C   UNL     1      42.580  -9.957  10.506  1.00  0.00     0.009 A 
ENDBRANCH  15  16
ENDBRANCH  12  15
ENDBRANCH   6  11
BRANCH   8  22
HETATM   22  C   UNL     1      43.616 -14.795   3.357  1.00  0.00     0.409 C 
HETATM   23  F   UNL     1      44.276 -13.624   3.306  1.00  0.00    -0.169 F 
HETATM   24  F   UNL     1      43.779 -15.296   4.609  1.00  0.00    -0.169 F 
HETATM   25  F   UNL     1      44.257 -15.653   2.526  1.00  0.00    -0.169 F 
ENDBRANCH   8  22
BRANCH   1  26
HETATM   26  C   UNL     1      42.242 -18.023   3.753  1.00  0.00    -0.035 A 
HETATM   27  C   UNL     1      42.935 -18.688   2.728  1.00  0.00     0.012 A 
HETATM   28  C   UNL     1      43.967 -19.584   3.023  1.00  0.00     0.037 A 
HETATM   29  C   UNL     1      44.338 -19.832   4.344  1.00  0.00     0.068 A 
HETATM   30  C   UNL     1      43.645 -19.197   5.372  1.00  0.00     0.037 A 
HETATM   31  C   UNL     1      42.603 -18.308   5.078  1.00  0.00     0.012 A 
BRANCH  29  32
HETATM   32  O   UNL     1      45.373 -20.712   4.496  1.00  0.00    -0.356 OA
HETATM   33  C   UNL     1      45.048 -21.982   5.048  1.00  0.00     0.210 C 
ENDBRANCH  29  32
ENDBRANCH   1  26
TORSDOF 6
ENDMDL
MODEL 2
REMARK VINA RESULT:      -9.0      4.544      7.817
REMARK  6 active torsions:
REMARK  status: ('A' for Active; 'I' for Inactive)
REMARK    1  A    between atoms: O_2  and  C_3 
REMARK    2  A    between atoms: C_6  and  C_7 
REMARK    3  A    between atoms: C_12  and  C_13 
REMARK       I    between atoms: C_13  and  N_14 
REMARK    4  A    between atoms: N_14  and  C_15 
REMARK    5  A    between atoms: C_15  and  C_16 
REMARK    6  A    between atoms: C_24  and  C_25 
ROOT
HETATM    1  C   UNL     1      41.201 -16.511   4.519  1.00  0.00     0.118 C 
HETATM    2  N   UNL     1      40.555 -15.534   3.650  1.00  0.00    -0.366 N 
HETATM    3  C   UNL     1      40.750 -15.498   2.316  1.00  0.00     0.123 A 
HETATM    4  N   UNL     1      41.576 -16.384   1.684  1.00  0.00    -0.240 N 
HETATM    5  N   UNL     1      41.616 -16.240   0.347  1.00  0.00    -0.165 NA
HETATM    6  C   UNL     1      40.821 -15.168   0.121  1.00  0.00     0.148 A 
HETATM    7  C   UNL     1      40.254 -14.683   1.332  1.00  0.00     0.088 A 
HETATM    8  C   UNL     1      42.320 -17.425   2.363  1.00  0.00     0.221 C 
HETATM    9  C   UNL     1      41.670 -17.742   3.722  1.00  0.00     0.066 C 
HETATM   10  H   UNL     1      40.005 -14.819   4.125  1.00  0.00     0.161 HD
ENDROOT
BRANCH   6  11
HETATM   11  C   UNL     1      40.613 -14.617  -1.227  1.00  0.00     0.272 C 
HETATM   12  N   UNL     1      41.787 -14.333  -1.882  1.00  0.00    -0.351 N 
HETATM   13  H   UNL     1      42.641 -14.580  -1.391  1.00  0.00     0.163 HD
HETATM   14  O   UNL     1      39.497 -14.421  -1.700  1.00  0.00    -0.266 OA
BRANCH  12  15
HETATM   15  C   UNL     1      41.842 -13.769  -3.203  1.00  0.00     0.161 C 
BRANCH  15  16
HETATM   16  C   UNL     1      42.229 -12.315  -3.154  1.00  0.00    -0.041 A 
HETATM   17  C   UNL     1      42.718 -11.754  -1.966  1.00  0.00     0.009 A 
HETATM   18  C   UNL     1      43.075 -10.406  -1.914  1.00  0.00     0.001 A 
HETATM   19  C   UNL     1      42.938  -9.603  -3.045  1.00  0.00     0.000 A 
HETATM   20  C   UNL     1      42.440 -10.147  -4.228  1.00  0.00     0.001 A 
HETATM   21  C   UNL     1      42.083 -11.495  -4.282  1.00  0.00     0.009 A 
ENDBRANCH  15  16
ENDBRANCH  12  15
ENDBRANCH   6  11
BRANCH   8  22
HETATM   22  C   UNL     1      43.782 -17.049   2.441  1.00  0.00     0.409 C 
HETATM   23  F   UNL     1      44.006 -15.729   2.564  1.00  0.00    -0.169 F 
HETATM   24  F   UNL     1      44.366 -17.658   3.506  1.00  0.00    -0.169 F 
HETATM   25  F   UNL     1      44.465 -17.471   1.350  1.00  0.00    -0.169 F 
ENDBRANCH   8  22
BRANCH   1  26
HETATM   26  C   UNL     1      42.264 -15.894   5.411  1.00  0.00    -0.035 A 
HETATM   27  C   UNL     1      42.580 -14.534   5.255  1.00  0.00     0.012 A 
HETATM   28  C   UNL     1      43.550 -13.926   6.059  1.00  0.00     0.037 A 
HETATM   29  C   UNL     1      44.218 -14.654   7.042  1.00  0.00     0.068 A 
HETATM   30  C   UNL     1      43.930 -16.008   7.194  1.00  0.00     0.037 A 
HETATM   31  C   UNL     1      42.968 -16.621   6.381  1.00  0.00     0.012 A 
BRANCH  29  32
HETATM   32  O   UNL     1      45.125 -13.938   7.772  1.00  0.00    -0.356 OA
HETATM   33  C   UNL     1      44.633 -12.776   8.430  1.00  0.00     0.210 C 
ENDBRANCH  29  32
ENDBRANCH   1  26
TORSDOF 6
ENDMDL
MODEL 3
REMARK VINA RESULT:      -8.5      4.955      8.644
REMARK  6 active torsions:
REMARK  status: ('A' for Active; 'I' for Inactive)
REMARK    1  A    between atoms: O_2  and  C_3 
REMARK    2  A    between atoms: C_6  and  C_7 
REMARK    3  A    between atoms: C_12  and  C_13 
REMARK       I    between atoms: C_13  and  N_14 
REMARK    4  A    between atoms: N_14  and  C_15 
REMARK    5  A    between atoms: C_15  and  C_16 
REMARK    6  A    between atoms: C_24  and  C_25 
ROOT
HETATM    1  C   UNL     1      39.845 -14.445  -0.554  1.00  0.00     0.118 C 
HETATM    2  N   UNL     1      40.752 -15.528  -0.190  1.00  0.00    -0.366 N 
HETATM    3  C   UNL     1      40.962 -15.912   1.085  1.00  0.00     0.123 A 
HETATM    4  N   UNL     1      40.331 -15.304   2.134  1.00  0.00    -0.240 N 
HETATM    5  N   UNL     1      40.614 -15.845   3.333  1.00  0.00    -0.165 NA
HETATM    6  C   UNL     1      41.519 -16.808   3.039  1.00  0.00     0.148 A 
HETATM    7  C   UNL     1      41.754 -16.883   1.638  1.00  0.00     0.088 A 
HETATM    8  C   UNL     1      39.400 -14.203   1.992  1.00  0.00     0.221 C 
HETATM    9  C   UNL     1      38.821 -14.177   0.566  1.00  0.00     0.066 C 
HETATM   10  H   UNL     1      41.289 -15.928  -0.960  1.00  0.00     0.161 HD
ENDROOT
BRANCH   6  11
HETATM   11  C   UNL     1      42.149 -17.634   4.080  1.00  0.00     0.272 C 
HETATM   12  N   UNL     1      43.496 -17.818   3.882  1.00  0.00    -0.351 N 
HETATM   13  H   UNL     1      43.900 -17.329   3.089  1.00  0.00     0.163 HD
HETATM   14  O   UNL     1      41.520 -18.118   5.016  1.00  0.00    -0.266 OA
BRANCH  12  15
HETATM   15  C   UNL     1      44.326 -18.604   4.755  1.00  0.00     0.161 C 
BRANCH  15  16
HETATM   16  C   UNL     1      44.446 -20.020   4.257  1.00  0.00    -0.041 A 
HETATM   17  C   UNL     1      44.278 -20.305   2.894  1.00  0.00     0.009 A 
HETATM   18  C   UNL     1      44.384 -21.616   2.427  1.00  0.00     0.001 A 
HETATM   19  C   UNL     1      44.648 -22.655   3.318  1.00  0.00     0.000 A 
HETATM   20  C   UNL     1      44.803 -22.385   4.676  1.00  0.00     0.001 A 
HETATM   21  C   UNL     1      44.699 -21.074   5.145  1.00  0.00     0.009 A 
ENDBRANCH  15  16
ENDBRANCH  12  15
ENDBRANCH   6  11
BRANCH   8  22
HETATM   22  C   UNL     1      40.055 -12.912   2.426  1.00  0.00     0.409 C 
HETATM   23  F   UNL     1      41.386 -12.878   2.233  1.00  0.00    -0.169 F 
HETATM   24  F   UNL     1      39.522 -11.865   1.746  1.00  0.00    -0.169 F 
HETATM   25  F   UNL     1      39.834 -12.657   3.738  1.00  0.00    -0.169 F 
ENDBRANCH   8  22
BRANCH   1  26
HETATM   26  C   UNL     1      40.571 -13.209  -1.053  1.00  0.00    -0.035 A 
HETATM   27  C   UNL     1      41.975 -13.172  -0.993  1.00  0.00     0.012 A 
HETATM   28  C   UNL     1      42.683 -12.055  -1.447  1.00  0.00     0.037 A 
HETATM   29  C   UNL     1      42.012 -10.955  -1.980  1.00  0.00     0.068 A 
HETATM   30  C   UNL     1      40.620 -10.969  -2.026  1.00  0.00     0.037 A 
HETATM   31  C   UNL     1      39.909 -12.082  -1.560  1.00  0.00     0.012 A 
BRANCH  29  32
HETATM   32  O   UNL     1      42.821  -9.939  -2.406  1.00  0.00    -0.356 OA
HETATM   33  C   UNL     1      43.838  -9.517  -1.504  1.00  0.00     0.210 C 
ENDBRANCH  29  32
ENDBRANCH   1  26
TORSDOF 6
ENDMDL
MODEL 4
REMARK VINA RESULT:      -8.5      3.612      8.013
REMARK  6 active torsions:
REMARK  status: ('A' for Active; 'I' for Inactive)
REMARK    1  A    between atoms: O_2  and  C_3 
REMARK    2  A    between atoms: C_6  and  C_7 
REMARK    3  A    between atoms: C_12  and  C_13 
REMARK       I    between atoms: C_13  and  N_14 
REMARK    4  A    between atoms: N_14  and  C_15 
REMARK    5  A    between atoms: C_15  and  C_16 
REMARK    6  A    between atoms: C_24  and  C_25 
ROOT
HETATM    1  C   UNL     1      39.746 -13.076   4.776  1.00  0.00     0.118 C 
HETATM    2  N   UNL     1      39.725 -14.387   5.415  1.00  0.00    -0.366 N 
HETATM    3  C   UNL     1      40.844 -15.083   5.698  1.00  0.00     0.123 A 
HETATM    4  N   UNL     1      42.088 -14.601   5.400  1.00  0.00    -0.240 N 
HETATM    5  N   UNL     1      43.095 -15.398   5.797  1.00  0.00    -0.165 NA
HETATM    6  C   UNL     1      42.460 -16.473   6.321  1.00  0.00     0.148 A 
HETATM    7  C   UNL     1      41.048 -16.305   6.283  1.00  0.00     0.088 A 
HETATM    8  C   UNL     1      42.330 -13.326   4.756  1.00  0.00     0.221 C 
HETATM    9  C   UNL     1      41.118 -12.396   4.946  1.00  0.00     0.066 C 
HETATM   10  H   UNL     1      38.799 -14.788   5.563  1.00  0.00     0.161 HD
ENDROOT
BRANCH   6  11
HETATM   11  C   UNL     1      43.192 -17.639   6.842  1.00  0.00     0.272 C 
HETATM   12  N   UNL     1      43.784 -18.389   5.855  1.00  0.00    -0.351 N 
HETATM   13  H   UNL     1      43.695 -18.031   4.909  1.00  0.00     0.163 HD
HETATM   14  O   UNL     1      43.244 -17.910   8.037  1.00  0.00    -0.266 OA
BRANCH  12  15
HETATM   15  C   UNL     1      44.537 -19.586   6.114  1.00  0.00     0.161 C 
BRANCH  15  16
HETATM   16  C   UNL     1      44.535 -20.497   4.915  1.00  0.00    -0.041 A 
HETATM   17  C   UNL     1      44.324 -19.973   3.631  1.00  0.00     0.009 A 
HETATM   18  C   UNL     1      44.317 -20.812   2.517  1.00  0.00     0.001 A 
HETATM   19  C   UNL     1      44.510 -22.184   2.674  1.00  0.00     0.000 A 
HETATM   20  C   UNL     1      44.706 -22.717   3.947  1.00  0.00     0.001 A 
HETATM   21  C   UNL     1      44.715 -21.879   5.063  1.00  0.00     0.009 A 
ENDBRANCH  15  16
ENDBRANCH  12  15
ENDBRANCH   6  11
BRANCH   8  22
HETATM   22  C   UNL     1      42.733 -13.543   3.315  1.00  0.00     0.409 C 
HETATM   23  F   UNL     1      42.377 -12.544   2.488  1.00  0.00    -0.169 F 
HETATM   24  F   UNL     1      44.081 -13.683   3.222  1.00  0.00    -0.169 F 
HETATM   25  F   UNL     1      42.203 -14.685   2.815  1.00  0.00    -0.169 F 
ENDBRANCH   8  22
BRANCH   1  26
HETATM   26  C   UNL     1      39.230 -13.107   3.349  1.00  0.00    -0.035 A 
HETATM   27  C   UNL     1      38.811 -11.908   2.748  1.00  0.00     0.012 A 
HETATM   28  C   UNL     1      38.334 -11.891   1.434  1.00  0.00     0.037 A 
HETATM   29  C   UNL     1      38.271 -13.065   0.685  1.00  0.00     0.068 A 
HETATM   30  C   UNL     1      38.662 -14.266   1.274  1.00  0.00     0.037 A 
HETATM   31  C   UNL     1      39.129 -14.285   2.594  1.00  0.00     0.012 A 
BRANCH  29  32
HETATM   32  O   UNL     1      37.806 -12.910  -0.591  1.00  0.00    -0.356 OA
HETATM   33  C   UNL     1      38.377 -13.759  -1.581  1.00  0.00     0.210 C 
ENDBRANCH  29  32
ENDBRANCH   1  26
TORSDOF 6
ENDMDL
MODEL 5
REMARK VINA RESULT:      -8.4      5.543      9.294
REMARK  6 active torsions:
REMARK  status: ('A' for Active; 'I' for Inactive)
REMARK    1  A    between atoms: O_2  and  C_3 
REMARK    2  A    between atoms: C_6  and  C_7 
REMARK    3  A    between atoms: C_12  and  C_13 
REMARK       I    between atoms: C_13  and  N_14 
REMARK    4  A    between atoms: N_14  and  C_15 
REMARK    5  A    between atoms: C_15  and  C_16 
REMARK    6  A    between atoms: C_24  and  C_25 
ROOT
HETATM    1  C   UNL     1      39.863 -14.406  -2.221  1.00  0.00     0.118 C 
HETATM    2  N   UNL     1      40.718 -15.431  -1.633  1.00  0.00    -0.366 N 
HETATM    3  C   UNL     1      40.868 -15.586  -0.303  1.00  0.00     0.123 A 
HETATM    4  N   UNL     1      40.222 -14.783   0.594  1.00  0.00    -0.240 N 
HETATM    5  N   UNL     1      40.443 -15.108   1.881  1.00  0.00    -0.165 NA
HETATM    6  C   UNL     1      41.323 -16.133   1.801  1.00  0.00     0.148 A 
HETATM    7  C   UNL     1      41.606 -16.465   0.447  1.00  0.00     0.088 A 
HETATM    8  C   UNL     1      39.336 -13.700   0.221  1.00  0.00     0.221 C 
HETATM    9  C   UNL     1      38.810 -13.913  -1.210  1.00  0.00     0.066 C 
HETATM   10  H   UNL     1      41.267 -15.977  -2.297  1.00  0.00     0.161 HD
ENDROOT
BRANCH   6  11
HETATM   11  C   UNL     1      41.887 -16.777   2.998  1.00  0.00     0.272 C 
HETATM   12  N   UNL     1      43.111 -17.357   2.773  1.00  0.00    -0.351 N 
HETATM   13  H   UNL     1      43.500 -17.232   1.843  1.00  0.00     0.163 HD
HETATM   14  O   UNL     1      41.303 -16.799   4.077  1.00  0.00    -0.266 OA
BRANCH  12  15
HETATM   15  C   UNL     1      43.852 -18.064   3.783  1.00  0.00     0.161 C 
BRANCH  15  16
HETATM   16  C   UNL     1      44.036 -19.510   3.407  1.00  0.00    -0.041 A 
HETATM   17  C   UNL     1      44.632 -20.404   4.309  1.00  0.00     0.009 A 
HETATM   18  C   UNL     1      44.809 -21.744   3.964  1.00  0.00     0.001 A 
HETATM   19  C   UNL     1      44.402 -22.202   2.712  1.00  0.00     0.000 A 
HETATM   20  C   UNL     1      43.822 -21.320   1.802  1.00  0.00     0.001 A 
HETATM   21  C   UNL     1      43.643 -19.979   2.146  1.00  0.00     0.009 A 
ENDBRANCH  15  16
ENDBRANCH  12  15
ENDBRANCH   6  11
BRANCH   8  22
HETATM   22  C   UNL     1      40.020 -12.370   0.445  1.00  0.00     0.409 C 
HETATM   23  F   UNL     1      39.609 -11.393  -0.383  1.00  0.00    -0.169 F 
HETATM   24  F   UNL     1      39.804 -11.940   1.715  1.00  0.00    -0.169 F 
HETATM   25  F   UNL     1      41.364 -12.472   0.308  1.00  0.00    -0.169 F 
ENDBRANCH   8  22
BRANCH   1  26
HETATM   26  C   UNL     1      40.649 -13.300  -2.902  1.00  0.00    -0.035 A 
HETATM   27  C   UNL     1      39.957 -12.328  -3.644  1.00  0.00     0.012 A 
HETATM   28  C   UNL     1      40.643 -11.291  -4.283  1.00  0.00     0.037 A 
HETATM   29  C   UNL     1      42.030 -11.191  -4.191  1.00  0.00     0.068 A 
HETATM   30  C   UNL     1      42.732 -12.160  -3.477  1.00  0.00     0.037 A 
HETATM   31  C   UNL     1      42.047 -13.206  -2.847  1.00  0.00     0.012 A 
BRANCH  29  32
HETATM   32  O   UNL     1      42.576 -10.121  -4.843  1.00  0.00    -0.356 OA
HETATM   33  C   UNL     1      41.891  -8.880  -4.707  1.00  0.00     0.210 C 
ENDBRANCH  29  32
ENDBRANCH   1  26
TORSDOF 6
ENDMDL
MODEL 6
REMARK VINA RESULT:      -8.2      3.891      7.567
REMARK  6 active torsions:
REMARK  status: ('A' for Active; 'I' for Inactive)
REMARK    1  A    between atoms: O_2  and  C_3 
REMARK    2  A    between atoms: C_6  and  C_7 
REMARK    3  A    between atoms: C_12  and  C_13 
REMARK       I    between atoms: C_13  and  N_14 
REMARK    4  A    between atoms: N_14  and  C_15 
REMARK    5  A    between atoms: C_15  and  C_16 
REMARK    6  A    between atoms: C_24  and  C_25 
ROOT
HETATM    1  C   UNL     1      43.923 -16.143   4.889  1.00  0.00     0.118 C 
HETATM    2  N   UNL     1      43.497 -15.920   3.512  1.00  0.00    -0.366 N 
HETATM    3  C   UNL     1      42.266 -15.477   3.187  1.00  0.00     0.123 A 
HETATM    4  N   UNL     1      41.324 -15.205   4.139  1.00  0.00    -0.240 N 
HETATM    5  N   UNL     1      40.168 -14.723   3.647  1.00  0.00    -0.165 NA
HETATM    6  C   UNL     1      40.362 -14.745   2.308  1.00  0.00     0.148 A 
HETATM    7  C   UNL     1      41.669 -15.205   1.984  1.00  0.00     0.088 A 
HETATM    8  C   UNL     1      41.539 -15.369   5.563  1.00  0.00     0.221 C 
HETATM    9  C   UNL     1      43.045 -15.353   5.878  1.00  0.00     0.066 C 
HETATM   10  H   UNL     1      44.165 -16.201   2.795  1.00  0.00     0.161 HD
ENDROOT
BRANCH   6  11
HETATM   11  C   UNL     1      39.315 -14.341   1.357  1.00  0.00     0.272 C 
HETATM   12  N   UNL     1      39.815 -13.775   0.210  1.00  0.00    -0.351 N 
HETATM   13  H   UNL     1      40.827 -13.751   0.130  1.00  0.00     0.163 HD
HETATM   14  O   UNL     1      38.118 -14.486   1.587  1.00  0.00    -0.266 OA
BRANCH  12  15
HETATM   15  C   UNL     1      38.987 -13.283  -0.858  1.00  0.00     0.161 C 
BRANCH  15  16
HETATM   16  C   UNL     1      38.980 -14.240  -2.021  1.00  0.00    -0.041 A 
HETATM   17  C   UNL     1      40.149 -14.927  -2.377  1.00  0.00     0.009 A 
HETATM   18  C   UNL     1      40.149 -15.812  -3.456  1.00  0.00     0.001 A 
HETATM   19  C   UNL     1      38.985 -16.012  -4.195  1.00  0.00     0.000 A 
HETATM   20  C   UNL     1      37.820 -15.323  -3.859  1.00  0.00     0.001 A 
HETATM   21  C   UNL     1      37.818 -14.439  -2.780  1.00  0.00     0.009 A 
ENDBRANCH  15  16
ENDBRANCH  12  15
ENDBRANCH   6  11
BRANCH   8  22
HETATM   22  C   UNL     1      40.809 -16.596   6.059  1.00  0.00     0.409 C 
HETATM   23  F   UNL     1      39.531 -16.371   6.414  1.00  0.00    -0.169 F 
HETATM   24  F   UNL     1      40.797 -17.555   5.096  1.00  0.00    -0.169 F 
HETATM   25  F   UNL     1      41.430 -17.149   7.128  1.00  0.00    -0.169 F 
ENDBRANCH   8  22
BRANCH   1  26
HETATM   26  C   UNL     1      44.084 -17.615   5.225  1.00  0.00    -0.035 A 
HETATM   27  C   UNL     1      44.060 -18.559   4.184  1.00  0.00     0.012 A 
HETATM   28  C   UNL     1      44.210 -19.923   4.450  1.00  0.00     0.037 A 
HETATM   29  C   UNL     1      44.396 -20.378   5.754  1.00  0.00     0.068 A 
HETATM   30  C   UNL     1      44.401 -19.456   6.798  1.00  0.00     0.037 A 
HETATM   31  C   UNL     1      44.239 -18.091   6.535  1.00  0.00     0.012 A 
BRANCH  29  32
HETATM   32  O   UNL     1      44.550 -21.731   5.876  1.00  0.00    -0.356 OA
HETATM   33  C   UNL     1      44.862 -22.443   4.683  1.00  0.00     0.210 C 
ENDBRANCH  29  32
ENDBRANCH   1  26
TORSDOF 6
ENDMDL
MODEL 7
REMARK VINA RESULT:      -8.1      4.782      8.675
REMARK  6 active torsions:
REMARK  status: ('A' for Active; 'I' for Inactive)
REMARK    1  A    between atoms: O_2  and  C_3 
REMARK    2  A    between atoms: C_6  and  C_7 
REMARK    3  A    between atoms: C_12  and  C_13 
REMARK       I    between atoms: C_13  and  N_14 
REMARK    4  A    between atoms: N_14  and  C_15 
REMARK    5  A    between atoms: C_15  and  C_16 
REMARK    6  A    between atoms: C_24  and  C_25 
ROOT
HETATM    1  C   UNL     1      41.192 -16.367   4.437  1.00  0.00     0.118 C 
HETATM    2  N   UNL     1      40.673 -15.415   3.461  1.00  0.00    -0.366 N 
HETATM    3  C   UNL     1      40.916 -15.514   2.139  1.00  0.00     0.123 A 
HETATM    4  N   UNL     1      41.676 -16.525   1.619  1.00  0.00    -0.240 N 
HETATM    5  N   UNL     1      41.775 -16.503   0.278  1.00  0.00    -0.165 NA
HETATM    6  C   UNL     1      41.094 -15.387  -0.071  1.00  0.00     0.148 A 
HETATM    7  C   UNL     1      40.535 -14.746   1.070  1.00  0.00     0.088 A 
HETATM    8  C   UNL     1      42.293 -17.566   2.415  1.00  0.00     0.221 C 
HETATM    9  C   UNL     1      41.568 -17.702   3.767  1.00  0.00     0.066 C 
HETATM   10  H   UNL     1      40.177 -14.613   3.851  1.00  0.00     0.161 HD
ENDROOT
BRANCH   6  11
HETATM   11  C   UNL     1      40.987 -14.939  -1.469  1.00  0.00     0.272 C 
HETATM   12  N   UNL     1      40.374 -13.717  -1.599  1.00  0.00    -0.351 N 
HETATM   13  H   UNL     1      40.120 -13.251  -0.733  1.00  0.00     0.163 HD
HETATM   14  O   UNL     1      41.393 -15.609  -2.413  1.00  0.00    -0.266 OA
BRANCH  12  15
HETATM   15  C   UNL     1      40.136 -13.080  -2.866  1.00  0.00     0.161 C 
BRANCH  15  16
HETATM   16  C   UNL     1      38.739 -13.353  -3.355  1.00  0.00    -0.041 A 
HETATM   17  C   UNL     1      38.312 -14.670  -3.574  1.00  0.00     0.009 A 
HETATM   18  C   UNL     1      37.019 -14.929  -4.030  1.00  0.00     0.001 A 
HETATM   19  C   UNL     1      36.143 -13.874  -4.282  1.00  0.00     0.000 A 
HETATM   20  C   UNL     1      36.562 -12.559  -4.082  1.00  0.00     0.001 A 
HETATM   21  C   UNL     1      37.854 -12.299  -3.624  1.00  0.00     0.009 A 
ENDBRANCH  15  16
ENDBRANCH  12  15
ENDBRANCH   6  11
BRANCH   8  22
HETATM   22  C   UNL     1      43.781 -17.322   2.524  1.00  0.00     0.409 C 
HETATM   23  F   UNL     1      44.498 -17.834   1.508  1.00  0.00    -0.169 F 
HETATM   24  F   UNL     1      44.034 -15.988   2.565  1.00  0.00    -0.169 F 
HETATM   25  F   UNL     1      44.288 -17.834   3.671  1.00  0.00    -0.169 F 
ENDBRANCH   8  22
BRANCH   1  26
HETATM   26  C   UNL     1      42.277 -15.775   5.318  1.00  0.00    -0.035 A 
HETATM   27  C   UNL     1      42.629 -14.425   5.153  1.00  0.00     0.012 A 
HETATM   28  C   UNL     1      43.620 -13.839   5.947  1.00  0.00     0.037 A 
HETATM   29  C   UNL     1      44.275 -14.580   6.929  1.00  0.00     0.068 A 
HETATM   30  C   UNL     1      43.953 -15.926   7.090  1.00  0.00     0.037 A 
HETATM   31  C   UNL     1      42.969 -16.516   6.287  1.00  0.00     0.012 A 
BRANCH  29  32
HETATM   32  O   UNL     1      45.207 -13.886   7.649  1.00  0.00    -0.356 OA
HETATM   33  C   UNL     1      44.721 -12.805   8.438  1.00  0.00     0.210 C 
ENDBRANCH  29  32
ENDBRANCH   1  26
TORSDOF 6
ENDMDL
MODEL 8
REMARK VINA RESULT:      -7.9      5.710      9.515
REMARK  6 active torsions:
REMARK  status: ('A' for Active; 'I' for Inactive)
REMARK    1  A    between atoms: O_2  and  C_3 
REMARK    2  A    between atoms: C_6  and  C_7 
REMARK    3  A    between atoms: C_12  and  C_13 
REMARK       I    between atoms: C_13  and  N_14 
REMARK    4  A    between atoms: N_14  and  C_15 
REMARK    5  A    between atoms: C_15  and  C_16 
REMARK    6  A    between atoms: C_24  and  C_25 
ROOT
HETATM    1  C   UNL     1      41.038 -13.620  -3.119  1.00  0.00     0.118 C 
HETATM    2  N   UNL     1      41.855 -14.224  -2.074  1.00  0.00    -0.366 N 
HETATM    3  C   UNL     1      41.366 -14.566  -0.865  1.00  0.00     0.123 A 
HETATM    4  N   UNL     1      40.055 -14.365  -0.535  1.00  0.00    -0.240 N 
HETATM    5  N   UNL     1      39.722 -14.810   0.690  1.00  0.00    -0.165 NA
HETATM    6  C   UNL     1      40.895 -15.264   1.190  1.00  0.00     0.148 A 
HETATM    7  C   UNL     1      41.945 -15.134   0.239  1.00  0.00     0.088 A 
HETATM    8  C   UNL     1      39.078 -13.769  -1.424  1.00  0.00     0.221 C 
HETATM    9  C   UNL     1      39.541 -13.899  -2.886  1.00  0.00     0.066 C 
HETATM   10  H   UNL     1      42.851 -14.299  -2.283  1.00  0.00     0.161 HD
ENDROOT
BRANCH   6  11
HETATM   11  C   UNL     1      41.008 -15.805   2.554  1.00  0.00     0.272 C 
HETATM   12  N   UNL     1      42.015 -16.730   2.686  1.00  0.00    -0.351 N 
HETATM   13  H   UNL     1      42.584 -16.891   1.860  1.00  0.00     0.163 HD
HETATM   14  O   UNL     1      40.262 -15.466   3.467  1.00  0.00    -0.266 OA
BRANCH  12  15
HETATM   15  C   UNL     1      42.308 -17.413   3.917  1.00  0.00     0.161 C 
BRANCH  15  16
HETATM   16  C   UNL     1      43.129 -18.650   3.667  1.00  0.00    -0.041 A 
HETATM   17  C   UNL     1      43.087 -19.285   2.418  1.00  0.00     0.009 A 
HETATM   18  C   UNL     1      43.842 -20.434   2.182  1.00  0.00     0.001 A 
HETATM   19  C   UNL     1      44.639 -20.966   3.194  1.00  0.00     0.000 A 
HETATM   20  C   UNL     1      44.678 -20.351   4.445  1.00  0.00     0.001 A 
HETATM   21  C   UNL     1      43.924 -19.201   4.682  1.00  0.00     0.009 A 
ENDBRANCH  15  16
ENDBRANCH  12  15
ENDBRANCH   6  11
BRANCH   8  22
HETATM   22  C   UNL     1      38.775 -12.355  -0.986  1.00  0.00     0.409 C 
HETATM   23  F   UNL     1      39.827 -11.703  -0.460  1.00  0.00    -0.169 F 
HETATM   24  F   UNL     1      38.333 -11.622  -2.041  1.00  0.00    -0.169 F 
HETATM   25  F   UNL     1      37.782 -12.319  -0.065  1.00  0.00    -0.169 F 
ENDBRANCH   8  22
BRANCH   1  26
HETATM   26  C   UNL     1      41.377 -12.160  -3.363  1.00  0.00    -0.035 A 
HETATM   27  C   UNL     1      42.393 -11.559  -2.601  1.00  0.00     0.012 A 
HETATM   28  C   UNL     1      42.741 -10.219  -2.797  1.00  0.00     0.037 A 
HETATM   29  C   UNL     1      42.091  -9.450  -3.761  1.00  0.00     0.068 A 
HETATM   30  C   UNL     1      41.067 -10.025  -4.509  1.00  0.00     0.037 A 
HETATM   31  C   UNL     1      40.710 -11.364  -4.305  1.00  0.00     0.012 A 
BRANCH  29  32
HETATM   32  O   UNL     1      42.538  -8.162  -3.867  1.00  0.00    -0.356 OA
HETATM   33  C   UNL     1      43.006  -7.553  -2.668  1.00  0.00     0.210 C 
ENDBRANCH  29  32
ENDBRANCH   1  26
TORSDOF 6
ENDMDL
MODEL 9
REMARK VINA RESULT:      -7.8      4.248      8.837
REMARK  6 active torsions:
REMARK  status: ('A' for Active; 'I' for Inactive)
REMARK    1  A    between atoms: O_2  and  C_3 
REMARK    2  A    between atoms: C_6  and  C_7 
REMARK    3  A    between atoms: C_12  and  C_13 
REMARK       I    between atoms: C_13  and  N_14 
REMARK    4  A    between atoms: N_14  and  C_15 
REMARK    5  A    between atoms: C_15  and  C_16 
REMARK    6  A    between atoms: C_24  and  C_25 
ROOT
HETATM    1  C   UNL     1      41.772 -12.387   1.466  1.00  0.00     0.118 C 
HETATM    2  N   UNL     1      42.589 -12.884   2.567  1.00  0.00    -0.366 N 
HETATM    3  C   UNL     1      42.489 -14.140   3.046  1.00  0.00     0.123 A 
HETATM    4  N   UNL     1      41.603 -15.041   2.526  1.00  0.00    -0.240 N 
HETATM    5  N   UNL     1      41.669 -16.262   3.086  1.00  0.00    -0.165 NA
HETATM    6  C   UNL     1      42.604 -16.116   4.054  1.00  0.00     0.148 A 
HETATM    7  C   UNL     1      43.145 -14.800   4.052  1.00  0.00     0.088 A 
HETATM    8  C   UNL     1      40.692 -14.747   1.438  1.00  0.00     0.221 C 
HETATM    9  C   UNL     1      41.207 -13.547   0.624  1.00  0.00     0.066 C 
HETATM   10  H   UNL     1      43.191 -12.192   3.014  1.00  0.00     0.161 HD
ENDROOT
BRANCH   6  11
HETATM   11  C   UNL     1      42.967 -17.212   4.965  1.00  0.00     0.272 C 
HETATM   12  N   UNL     1      44.145 -17.831   4.624  1.00  0.00    -0.351 N 
HETATM   13  H   UNL     1      44.643 -17.435   3.832  1.00  0.00     0.163 HD
HETATM   14  O   UNL     1      42.270 -17.540   5.920  1.00  0.00    -0.266 OA
BRANCH  12  15
HETATM   15  C   UNL     1      44.697 -18.942   5.351  1.00  0.00     0.161 C 
BRANCH  15  16
HETATM   16  C   UNL     1      44.645 -20.204   4.532  1.00  0.00    -0.041 A 
HETATM   17  C   UNL     1      44.421 -20.140   3.150  1.00  0.00     0.009 A 
HETATM   18  C   UNL     1      44.368 -21.306   2.387  1.00  0.00     0.001 A 
HETATM   19  C   UNL     1      44.529 -22.549   2.998  1.00  0.00     0.000 A 
HETATM   20  C   UNL     1      44.739 -22.626   4.374  1.00  0.00     0.001 A 
HETATM   21  C   UNL     1      44.793 -21.459   5.139  1.00  0.00     0.009 A 
ENDBRANCH  15  16
ENDBRANCH  12  15
ENDBRANCH   6  11
BRANCH   8  22
HETATM   22  C   UNL     1      39.286 -14.587   1.969  1.00  0.00     0.409 C 
HETATM   23  F   UNL     1      38.524 -13.735   1.260  1.00  0.00    -0.169 F 
HETATM   24  F   UNL     1      38.649 -15.787   1.977  1.00  0.00    -0.169 F 
HETATM   25  F   UNL     1      39.283 -14.154   3.252  1.00  0.00    -0.169 F 
ENDBRANCH   8  22
BRANCH   1  26
HETATM   26  C   UNL     1      40.737 -11.370   1.913  1.00  0.00    -0.035 A 
HETATM   27  C   UNL     1      40.602 -11.090   3.283  1.00  0.00     0.012 A 
HETATM   28  C   UNL     1      39.665 -10.157   3.737  1.00  0.00     0.037 A 
HETATM   29  C   UNL     1      38.848  -9.474   2.837  1.00  0.00     0.068 A 
HETATM   30  C   UNL     1      38.955  -9.756   1.477  1.00  0.00     0.037 A 
HETATM   31  C   UNL     1      39.885 -10.700   1.023  1.00  0.00     0.012 A 
BRANCH  29  32
HETATM   32  O   UNL     1      37.990  -8.575   3.406  1.00  0.00    -0.356 OA
HETATM   33  C   UNL     1      37.881  -8.614   4.825  1.00  0.00     0.210 C 
ENDBRANCH  29  32
ENDBRANCH   1  26
TORSDOF 6
ENDMDL
MODEL 10
REMARK VINA RESULT:      -7.7      4.621      9.003
REMARK  6 active torsions:
REMARK  status: ('A' for Active; 'I' for Inactive)
REMARK    1  A    between atoms: O_2  and  C_3 
REMARK    2  A    between atoms: C_6  and  C_7 
REMARK    3  A    between atoms: C_12  and  C_13 
REMARK       I    between atoms: C_13  and  N_14 
REMARK    4  A    between atoms: N_14  and  C_15 
REMARK    5  A    between atoms: C_15  and  C_16 
REMARK    6  A    between atoms: C_24  and  C_25 
ROOT
HETATM    1  C   UNL     1      40.867 -11.789   1.160  1.00  0.00     0.118 C 
HETATM    2  N   UNL     1      40.916 -12.418   2.474  1.00  0.00    -0.366 N 
HETATM    3  C   UNL     1      41.359 -13.677   2.669  1.00  0.00     0.123 A 
HETATM    4  N   UNL     1      41.796 -14.455   1.633  1.00  0.00    -0.240 N 
HETATM    5  N   UNL     1      42.252 -15.663   2.009  1.00  0.00    -0.165 NA
HETATM    6  C   UNL     1      42.039 -15.679   3.346  1.00  0.00     0.148 A 
HETATM    7  C   UNL     1      41.488 -14.447   3.795  1.00  0.00     0.088 A 
HETATM    8  C   UNL     1      41.820 -14.025   0.250  1.00  0.00     0.221 C 
HETATM    9  C   UNL     1      41.819 -12.488   0.171  1.00  0.00     0.066 C 
HETATM   10  H   UNL     1      40.514 -11.874   3.237  1.00  0.00     0.161 HD
ENDROOT
BRANCH   6  11
HETATM   11  C   UNL     1      42.351 -16.854   4.175  1.00  0.00     0.272 C 
HETATM   12  N   UNL     1      43.641 -17.298   4.019  1.00  0.00    -0.351 N 
HETATM   13  H   UNL     1      44.231 -16.745   3.405  1.00  0.00     0.163 HD
HETATM   14  O   UNL     1      41.526 -17.383   4.915  1.00  0.00    -0.266 OA
BRANCH  12  15
HETATM   15  C   UNL     1      44.175 -18.442   4.708  1.00  0.00     0.161 C 
BRANCH  15  16
HETATM   16  C   UNL     1      44.165 -19.660   3.823  1.00  0.00    -0.041 A 
HETATM   17  C   UNL     1      43.597 -19.597   2.542  1.00  0.00     0.009 A 
HETATM   18  C   UNL     1      43.582 -20.723   1.719  1.00  0.00     0.001 A 
HETATM   19  C   UNL     1      44.124 -21.925   2.170  1.00  0.00     0.000 A 
HETATM   20  C   UNL     1      44.679 -22.003   3.447  1.00  0.00     0.001 A 
HETATM   21  C   UNL     1      44.696 -20.877   4.271  1.00  0.00     0.009 A 
ENDBRANCH  15  16
ENDBRANCH  12  15
ENDBRANCH   6  11
BRANCH   8  22
HETATM   22  C   UNL     1      40.702 -14.692  -0.518  1.00  0.00     0.409 C 
HETATM   23  F   UNL     1      39.575 -14.873   0.194  1.00  0.00    -0.169 F 
HETATM   24  F   UNL     1      40.376 -13.951  -1.609  1.00  0.00    -0.169 F 
HETATM   25  F   UNL     1      41.076 -15.906  -0.990  1.00  0.00    -0.169 F 
ENDBRANCH   8  22
BRANCH   1  26
HETATM   26  C   UNL     1      39.450 -11.604   0.647  1.00  0.00    -0.035 A 
HETATM   27  C   UNL     1      38.375 -12.031   1.445  1.00  0.00     0.012 A 
HETATM   28  C   UNL     1      37.054 -11.876   1.012  1.00  0.00     0.037 A 
HETATM   29  C   UNL     1      36.773 -11.284  -0.218  1.00  0.00     0.068 A 
HETATM   30  C   UNL     1      37.829 -10.875  -1.030  1.00  0.00     0.037 A 
HETATM   31  C   UNL     1      39.152 -11.042  -0.603  1.00  0.00     0.012 A 
BRANCH  29  32
HETATM   32  O   UNL     1      35.443 -11.172  -0.513  1.00  0.00    -0.356 OA
HETATM   33  C   UNL     1      34.573 -10.893   0.578  1.00  0.00     0.210 C 
ENDBRANCH  29  32
ENDBRANCH   1  26
TORSDOF 6
ENDMDL
