MODEL 1
REMARK VINA RESULT:      -7.9      0.000      0.000
REMARK  8 active torsions:
REMARK  status: ('A' for Active; 'I' for Inactive)
REMARK    1  A    between atoms: C_2  and  C_3 
REMARK    2  A    between atoms: C_3  and  C_4 
REMARK    3  A    between atoms: C_8  and  C_9 
REMARK       I    between atoms: C_9  and  N_10 
REMARK    4  A    between atoms: N_10  and  C_11 
REMARK    5  A    between atoms: N_10  and  C_17 
REMARK    6  A    between atoms: C_17  and  C_18 
REMARK    7  A    between atoms: C_18  and  O_19 
REMARK    8  A    between atoms: C_18  and  C_20 
ROOT
HETATM    1  C   UNL     1      41.948 -16.200   5.952  1.00  0.00     0.272 C 
HETATM    2  N   UNL     1      42.191 -16.886   4.745  1.00  0.00    -0.339 N 
HETATM    3  O   UNL     1      41.996 -16.807   7.024  1.00  0.00    -0.266 OA
ENDROOT
BRANCH   2   4
HETATM    4  C   UNL     1      42.022 -16.285   3.394  1.00  0.00     0.087 C 
HETATM    5  C   UNL     1      43.360 -15.833   2.788  1.00  0.00     0.025 C 
HETATM    6  C   UNL     1      44.022 -16.853   1.870  1.00  0.00     0.002 C 
HETATM    7  C   UNL     1      43.059 -17.340   0.799  1.00  0.00     0.000 C 
HETATM    8  C   UNL     1      41.845 -18.002   1.430  1.00  0.00     0.002 C 
HETATM    9  C   UNL     1      41.126 -17.081   2.418  1.00  0.00     0.025 C 
ENDBRANCH   2   4
BRANCH   2  10
HETATM   10  C   UNL     1      42.509 -18.323   4.885  1.00  0.00     0.163 C 
BRANCH  10  11
HETATM   11  C   UNL     1      44.023 -18.660   4.938  1.00  0.00     0.169 C 
BRANCH  11  12
HETATM   12  O   UNL     1      44.589 -18.583   6.246  1.00  0.00    -0.389 OA
HETATM   13  H   UNL     1      45.228 -19.317   6.346  1.00  0.00     0.210 HD
ENDBRANCH  11  12
BRANCH  11  14
HETATM   14  C   UNL     1      44.288 -20.063   4.424  1.00  0.00    -0.028 A 
HETATM   15  C   UNL     1      44.207 -20.350   3.054  1.00  0.00     0.010 A 
HETATM   16  C   UNL     1      44.445 -21.645   2.586  1.00  0.00     0.001 A 
HETATM   17  C   UNL     1      44.764 -22.667   3.479  1.00  0.00     0.000 A 
HETATM   18  C   UNL     1      44.857 -22.394   4.841  1.00  0.00     0.001 A 
HETATM   19  C   UNL     1      44.628 -21.100   5.310  1.00  0.00     0.010 A 
ENDBRANCH  11  14
ENDBRANCH  10  11
ENDBRANCH   2  10
BRANCH   1  20
HETATM   20  C   UNL     1      41.623 -14.800   5.930  1.00  0.00     0.119 A 
HETATM   21  N   UNL     1      42.494 -13.763   6.112  1.00  0.00    -0.273 N 
HETATM   22  N   UNL     1      41.920 -12.549   6.052  1.00  0.00    -0.179 NA
HETATM   23  H   UNL     1      43.492 -13.810   6.284  1.00  0.00     0.189 HD
HETATM   24  C   UNL     1      40.614 -12.816   5.933  1.00  0.00     0.057 A 
HETATM   25  C   UNL     1      40.377 -14.207   5.868  1.00  0.00     0.065 A 
BRANCH  24  26
HETATM   26  C   UNL     1      39.603 -11.720   5.900  1.00  0.00     0.061 C 
BRANCH  26  27
HETATM   27  C   UNL     1      39.756 -10.761   7.082  1.00  0.00     0.002 C 
HETATM   28  C   UNL     1      39.330 -11.412   8.388  1.00  0.00     0.005 C 
ENDBRANCH  26  27
ENDBRANCH  24  26
ENDBRANCH   1  20
TORSDOF 8
ENDMDL
MODEL 2
REMARK VINA RESULT:      -7.3      2.072      3.350
REMARK  8 active torsions:
REMARK  status: ('A' for Active; 'I' for Inactive)
REMARK    1  A    between atoms: C_2  and  C_3 
REMARK    2  A    between atoms: C_3  and  C_4 
REMARK    3  A    between atoms: C_8  and  C_9 
REMARK       I    between atoms: C_9  and  N_10 
REMARK    4  A    between atoms: N_10  and  C_11 
REMARK    5  A    between atoms: N_10  and  C_17 
REMARK    6  A    between atoms: C_17  and  C_18 
REMARK    7  A    between atoms: C_18  and  O_19 
REMARK    8  A    between atoms: C_18  and  C_20 
ROOT
HETATM    1  C   UNL     1      41.735 -14.786   4.324  1.00  0.00     0.272 C 
HETATM    2  N   UNL     1      42.577 -15.790   4.843  1.00  0.00    -0.339 N 
HETATM    3  O   UNL     1      41.614 -14.654   3.105  1.00  0.00    -0.266 OA
ENDROOT
BRANCH   2   4
HETATM    4  C   UNL     1      42.902 -15.944   6.287  1.00  0.00     0.087 C 
HETATM    5  C   UNL     1      42.085 -17.065   6.949  1.00  0.00     0.025 C 
HETATM    6  C   UNL     1      42.785 -18.418   7.004  1.00  0.00     0.002 C 
HETATM    7  C   UNL     1      44.171 -18.299   7.617  1.00  0.00     0.000 C 
HETATM    8  C   UNL     1      45.041 -17.359   6.798  1.00  0.00     0.002 C 
HETATM    9  C   UNL     1      44.409 -15.976   6.632  1.00  0.00     0.025 C 
ENDBRANCH   2   4
BRANCH   2  10
HETATM   10  C   UNL     1      43.253 -16.634   3.835  1.00  0.00     0.163 C 
BRANCH  10  11
HETATM   11  C   UNL     1      42.380 -17.769   3.236  1.00  0.00     0.169 C 
BRANCH  11  12
HETATM   12  O   UNL     1      41.801 -17.450   1.972  1.00  0.00    -0.389 OA
HETATM   13  H   UNL     1      42.504 -17.496   1.293  1.00  0.00     0.210 HD
ENDBRANCH  11  12
BRANCH  11  14
HETATM   14  C   UNL     1      43.191 -19.037   3.043  1.00  0.00    -0.028 A 
HETATM   15  C   UNL     1      42.963 -19.869   1.938  1.00  0.00     0.010 A 
HETATM   16  C   UNL     1      43.707 -21.040   1.767  1.00  0.00     0.001 A 
HETATM   17  C   UNL     1      44.685 -21.393   2.696  1.00  0.00     0.000 A 
HETATM   18  C   UNL     1      44.928 -20.571   3.793  1.00  0.00     0.001 A 
HETATM   19  C   UNL     1      44.192 -19.397   3.962  1.00  0.00     0.010 A 
ENDBRANCH  11  14
ENDBRANCH  10  11
ENDBRANCH   2  10
BRANCH   1  20
HETATM   20  C   UNL     1      41.034 -13.904   5.218  1.00  0.00     0.119 A 
HETATM   21  N   UNL     1      39.776 -14.088   5.717  1.00  0.00    -0.273 N 
HETATM   22  N   UNL     1      39.358 -13.098   6.526  1.00  0.00    -0.179 NA
HETATM   23  H   UNL     1      39.146 -14.863   5.548  1.00  0.00     0.189 HD
HETATM   24  C   UNL     1      40.341 -12.192   6.459  1.00  0.00     0.057 A 
HETATM   25  C   UNL     1      41.402 -12.642   5.643  1.00  0.00     0.065 A 
BRANCH  24  26
HETATM   26  C   UNL     1      40.234 -10.888   7.176  1.00  0.00     0.061 C 
BRANCH  26  27
HETATM   27  C   UNL     1      39.325 -10.979   8.403  1.00  0.00     0.002 C 
HETATM   28  C   UNL     1      39.092  -9.612   9.028  1.00  0.00     0.005 C 
ENDBRANCH  26  27
ENDBRANCH  24  26
ENDBRANCH   1  20
TORSDOF 8
ENDMDL
MODEL 3
REMARK VINA RESULT:      -7.2      3.483      5.103
REMARK  8 active torsions:
REMARK  status: ('A' for Active; 'I' for Inactive)
REMARK    1  A    between atoms: C_2  and  C_3 
REMARK    2  A    between atoms: C_3  and  C_4 
REMARK    3  A    between atoms: C_8  and  C_9 
REMARK       I    between atoms: C_9  and  N_10 
REMARK    4  A    between atoms: N_10  and  C_11 
REMARK    5  A    between atoms: N_10  and  C_17 
REMARK    6  A    between atoms: C_17  and  C_18 
REMARK    7  A    between atoms: C_18  and  O_19 
REMARK    8  A    between atoms: C_18  and  C_20 
ROOT
HETATM    1  C   UNL     1      41.211 -16.142   1.449  1.00  0.00     0.272 C 
HETATM    2  N   UNL     1      42.122 -15.741   2.447  1.00  0.00    -0.339 N 
HETATM    3  O   UNL     1      41.401 -17.190   0.829  1.00  0.00    -0.266 OA
ENDROOT
BRANCH   2   4
HETATM    4  C   UNL     1      42.065 -14.432   3.153  1.00  0.00     0.087 C 
HETATM    5  C   UNL     1      41.073 -14.449   4.327  1.00  0.00     0.025 C 
HETATM    6  C   UNL     1      41.695 -14.760   5.683  1.00  0.00     0.002 C 
HETATM    7  C   UNL     1      42.883 -13.856   5.968  1.00  0.00     0.000 C 
HETATM    8  C   UNL     1      43.960 -14.037   4.911  1.00  0.00     0.002 C 
HETATM    9  C   UNL     1      43.433 -13.799   3.494  1.00  0.00     0.025 C 
ENDBRANCH   2   4
BRANCH   2  10
HETATM   10  C   UNL     1      43.257 -16.661   2.676  1.00  0.00     0.163 C 
BRANCH  10  11
HETATM   11  C   UNL     1      43.054 -17.679   3.830  1.00  0.00     0.169 C 
BRANCH  11  12
HETATM   12  O   UNL     1      41.695 -17.835   4.233  1.00  0.00    -0.389 OA
HETATM   13  H   UNL     1      41.141 -17.892   3.429  1.00  0.00     0.210 HD
ENDBRANCH  11  12
BRANCH  11  14
HETATM   14  C   UNL     1      43.559 -19.055   3.437  1.00  0.00    -0.028 A 
HETATM   15  C   UNL     1      43.223 -19.613   2.196  1.00  0.00     0.010 A 
HETATM   16  C   UNL     1      43.683 -20.885   1.842  1.00  0.00     0.001 A 
HETATM   17  C   UNL     1      44.482 -21.613   2.721  1.00  0.00     0.000 A 
HETATM   18  C   UNL     1      44.831 -21.067   3.954  1.00  0.00     0.001 A 
HETATM   19  C   UNL     1      44.380 -19.795   4.307  1.00  0.00     0.010 A 
ENDBRANCH  11  14
ENDBRANCH  10  11
ENDBRANCH   2  10
BRANCH   1  20
HETATM   20  C   UNL     1      40.075 -15.317   1.140  1.00  0.00     0.119 A 
HETATM   21  N   UNL     1      38.838 -15.394   1.714  1.00  0.00    -0.273 N 
HETATM   22  N   UNL     1      37.953 -14.506   1.229  1.00  0.00    -0.179 NA
HETATM   23  H   UNL     1      38.526 -16.028   2.440  1.00  0.00     0.189 HD
HETATM   24  C   UNL     1      38.613 -13.907   0.230  1.00  0.00     0.057 A 
HETATM   25  C   UNL     1      39.936 -14.389   0.126  1.00  0.00     0.065 A 
BRANCH  24  26
HETATM   26  C   UNL     1      37.949 -12.881  -0.625  1.00  0.00     0.061 C 
BRANCH  26  27
HETATM   27  C   UNL     1      38.390 -12.978  -2.087  1.00  0.00     0.002 C 
HETATM   28  C   UNL     1      37.758 -14.172  -2.783  1.00  0.00     0.005 C 
ENDBRANCH  26  27
ENDBRANCH  24  26
ENDBRANCH   1  20
TORSDOF 8
ENDMDL
MODEL 4
REMARK VINA RESULT:      -7.2      3.652      5.989
REMARK  8 active torsions:
REMARK  status: ('A' for Active; 'I' for Inactive)
REMARK    1  A    between atoms: C_2  and  C_3 
REMARK    2  A    between atoms: C_3  and  C_4 
REMARK    3  A    between atoms: C_8  and  C_9 
REMARK       I    between atoms: C_9  and  N_10 
REMARK    4  A    between atoms: N_10  and  C_11 
REMARK    5  A    between atoms: N_10  and  C_17 
REMARK    6  A    between atoms: C_17  and  C_18 
REMARK    7  A    between atoms: C_18  and  O_19 
REMARK    8  A    between atoms: C_18  and  C_20 
ROOT
HETATM    1  C   UNL     1      40.442 -15.187   1.578  1.00  0.00     0.272 C 
HETATM    2  N   UNL     1      41.284 -16.051   2.307  1.00  0.00    -0.339 N 
HETATM    3  O   UNL     1      39.364 -14.831   2.057  1.00  0.00    -0.266 OA
ENDROOT
BRANCH   2   4
HETATM    4  C   UNL     1      42.534 -16.651   1.767  1.00  0.00     0.087 C 
HETATM    5  C   UNL     1      43.715 -16.507   2.741  1.00  0.00     0.025 C 
HETATM    6  C   UNL     1      43.943 -17.708   3.651  1.00  0.00     0.002 C 
HETATM    7  C   UNL     1      44.031 -18.998   2.851  1.00  0.00     0.000 C 
HETATM    8  C   UNL     1      42.745 -19.239   2.078  1.00  0.00     0.002 C 
HETATM    9  C   UNL     1      42.387 -18.066   1.163  1.00  0.00     0.025 C 
ENDBRANCH   2   4
BRANCH   2  10
HETATM   10  C   UNL     1      40.781 -16.452   3.638  1.00  0.00     0.163 C 
BRANCH  10  11
HETATM   11  C   UNL     1      40.909 -15.369   4.743  1.00  0.00     0.169 C 
BRANCH  11  12
HETATM   12  O   UNL     1      39.683 -15.073   5.409  1.00  0.00    -0.389 OA
HETATM   13  H   UNL     1      39.587 -14.101   5.456  1.00  0.00     0.210 HD
ENDBRANCH  11  12
BRANCH  11  14
HETATM   14  C   UNL     1      41.899 -15.794   5.811  1.00  0.00    -0.028 A 
HETATM   15  C   UNL     1      43.037 -15.020   6.081  1.00  0.00     0.010 A 
HETATM   16  C   UNL     1      43.951 -15.419   7.060  1.00  0.00     0.001 A 
HETATM   17  C   UNL     1      43.740 -16.594   7.780  1.00  0.00     0.000 A 
HETATM   18  C   UNL     1      42.610 -17.368   7.530  1.00  0.00     0.001 A 
HETATM   19  C   UNL     1      41.692 -16.967   6.557  1.00  0.00     0.010 A 
ENDBRANCH  11  14
ENDBRANCH  10  11
ENDBRANCH   2  10
BRANCH   1  20
HETATM   20  C   UNL     1      40.832 -14.741   0.268  1.00  0.00     0.119 A 
HETATM   21  N   UNL     1      40.538 -15.353  -0.917  1.00  0.00    -0.273 N 
HETATM   22  N   UNL     1      41.038 -14.725  -1.996  1.00  0.00    -0.179 NA
HETATM   23  H   UNL     1      40.004 -16.201  -1.065  1.00  0.00     0.189 HD
HETATM   24  C   UNL     1      41.771 -13.731  -1.479  1.00  0.00     0.057 A 
HETATM   25  C   UNL     1      41.686 -13.709  -0.069  1.00  0.00     0.065 A 
BRANCH  24  26
HETATM   26  C   UNL     1      42.561 -12.820  -2.357  1.00  0.00     0.061 C 
BRANCH  26  27
HETATM   27  C   UNL     1      42.223 -11.349  -2.111  1.00  0.00     0.002 C 
HETATM   28  C   UNL     1      43.342 -10.634  -1.371  1.00  0.00     0.005 C 
ENDBRANCH  26  27
ENDBRANCH  24  26
ENDBRANCH   1  20
TORSDOF 8
ENDMDL
MODEL 5
REMARK VINA RESULT:      -7.2      2.469      3.822
REMARK  8 active torsions:
REMARK  status: ('A' for Active; 'I' for Inactive)
REMARK    1  A    between atoms: C_2  and  C_3 
REMARK    2  A    between atoms: C_3  and  C_4 
REMARK    3  A    between atoms: C_8  and  C_9 
REMARK       I    between atoms: C_9  and  N_10 
REMARK    4  A    between atoms: N_10  and  C_11 
REMARK    5  A    between atoms: N_10  and  C_17 
REMARK    6  A    between atoms: C_17  and  C_18 
REMARK    7  A    between atoms: C_18  and  O_19 
REMARK    8  A    between atoms: C_18  and  C_20 
ROOT
HETATM    1  C   UNL     1      42.203 -14.437   2.977  1.00  0.00     0.272 C 
HETATM    2  N   UNL     1      42.665 -15.356   3.941  1.00  0.00    -0.339 N 
HETATM    3  O   UNL     1      42.436 -14.631   1.782  1.00  0.00    -0.266 OA
ENDROOT
BRANCH   2   4
HETATM    4  C   UNL     1      42.562 -15.146   5.411  1.00  0.00     0.087 C 
HETATM    5  C   UNL     1      41.379 -15.913   6.025  1.00  0.00     0.025 C 
HETATM    6  C   UNL     1      41.732 -17.281   6.594  1.00  0.00     0.002 C 
HETATM    7  C   UNL     1      42.903 -17.193   7.560  1.00  0.00     0.000 C 
HETATM    8  C   UNL     1      44.137 -16.650   6.858  1.00  0.00     0.002 C 
HETATM    9  C   UNL     1      43.884 -15.293   6.199  1.00  0.00     0.025 C 
ENDBRANCH   2   4
BRANCH   2  10
HETATM   10  C   UNL     1      43.403 -16.519   3.406  1.00  0.00     0.163 C 
BRANCH  10  11
HETATM   11  C   UNL     1      42.514 -17.709   2.953  1.00  0.00     0.169 C 
BRANCH  11  12
HETATM   12  O   UNL     1      42.040 -17.601   1.612  1.00  0.00    -0.389 OA
HETATM   13  H   UNL     1      41.365 -16.894   1.581  1.00  0.00     0.210 HD
ENDBRANCH  11  12
BRANCH  11  14
HETATM   14  C   UNL     1      43.269 -19.022   3.050  1.00  0.00    -0.028 A 
HETATM   15  C   UNL     1      44.018 -19.334   4.193  1.00  0.00     0.010 A 
HETATM   16  C   UNL     1      44.718 -20.541   4.275  1.00  0.00     0.001 A 
HETATM   17  C   UNL     1      44.679 -21.448   3.218  1.00  0.00     0.000 A 
HETATM   18  C   UNL     1      43.932 -21.156   2.080  1.00  0.00     0.001 A 
HETATM   19  C   UNL     1      43.225 -19.955   1.999  1.00  0.00     0.010 A 
ENDBRANCH  11  14
ENDBRANCH  10  11
ENDBRANCH   2  10
BRANCH   1  20
HETATM   20  C   UNL     1      41.480 -13.265   3.390  1.00  0.00     0.119 A 
HETATM   21  N   UNL     1      42.023 -12.084   3.811  1.00  0.00    -0.273 N 
HETATM   22  N   UNL     1      41.113 -11.154   4.150  1.00  0.00    -0.179 NA
HETATM   23  H   UNL     1      43.003 -11.844   3.895  1.00  0.00     0.189 HD
HETATM   24  C   UNL     1      39.943 -11.795   4.044  1.00  0.00     0.057 A 
HETATM   25  C   UNL     1      40.120 -13.120   3.588  1.00  0.00     0.065 A 
BRANCH  24  26
HETATM   26  C   UNL     1      38.661 -11.121   4.402  1.00  0.00     0.061 C 
BRANCH  26  27
HETATM   27  C   UNL     1      38.153 -10.216   3.278  1.00  0.00     0.002 C 
HETATM   28  C   UNL     1      37.661 -11.026   2.089  1.00  0.00     0.005 C 
ENDBRANCH  26  27
ENDBRANCH  24  26
ENDBRANCH   1  20
TORSDOF 8
ENDMDL
MODEL 6
REMARK VINA RESULT:      -6.9      3.472      5.406
REMARK  8 active torsions:
REMARK  status: ('A' for Active; 'I' for Inactive)
REMARK    1  A    between atoms: C_2  and  C_3 
REMARK    2  A    between atoms: C_3  and  C_4 
REMARK    3  A    between atoms: C_8  and  C_9 
REMARK       I    between atoms: C_9  and  N_10 
REMARK    4  A    between atoms: N_10  and  C_11 
REMARK    5  A    between atoms: N_10  and  C_17 
REMARK    6  A    between atoms: C_17  and  C_18 
REMARK    7  A    between atoms: C_18  and  O_19 
REMARK    8  A    between atoms: C_18  and  C_20 
ROOT
HETATM    1  C   UNL     1      40.138 -14.906   2.652  1.00  0.00     0.272 C 
HETATM    2  N   UNL     1      40.998 -16.018   2.758  1.00  0.00    -0.339 N 
HETATM    3  O   UNL     1      39.648 -14.409   3.668  1.00  0.00    -0.266 OA
ENDROOT
BRANCH   2   4
HETATM    4  C   UNL     1      41.529 -16.777   1.593  1.00  0.00     0.087 C 
HETATM    5  C   UNL     1      42.909 -16.267   1.148  1.00  0.00     0.025 C 
HETATM    6  C   UNL     1      44.091 -17.026   1.739  1.00  0.00     0.002 C 
HETATM    7  C   UNL     1      43.951 -18.524   1.522  1.00  0.00     0.000 C 
HETATM    8  C   UNL     1      42.687 -19.046   2.184  1.00  0.00     0.002 C 
HETATM    9  C   UNL     1      41.432 -18.316   1.701  1.00  0.00     0.025 C 
ENDBRANCH   2   4
BRANCH   2  10
HETATM   10  C   UNL     1      41.254 -16.493   4.134  1.00  0.00     0.163 C 
BRANCH  10  11
HETATM   11  C   UNL     1      42.443 -15.806   4.856  1.00  0.00     0.169 C 
BRANCH  11  12
HETATM   12  O   UNL     1      42.077 -14.644   5.601  1.00  0.00    -0.389 OA
HETATM   13  H   UNL     1      41.313 -14.225   5.158  1.00  0.00     0.210 HD
ENDBRANCH  11  12
BRANCH  11  14
HETATM   14  C   UNL     1      43.116 -16.758   5.828  1.00  0.00    -0.028 A 
HETATM   15  C   UNL     1      43.979 -17.761   5.365  1.00  0.00     0.010 A 
HETATM   16  C   UNL     1      44.590 -18.641   6.262  1.00  0.00     0.001 A 
HETATM   17  C   UNL     1      44.346 -18.531   7.630  1.00  0.00     0.000 A 
HETATM   18  C   UNL     1      43.498 -17.534   8.105  1.00  0.00     0.001 A 
HETATM   19  C   UNL     1      42.893 -16.649   7.212  1.00  0.00     0.010 A 
ENDBRANCH  11  14
ENDBRANCH  10  11
ENDBRANCH   2  10
BRANCH   1  20
HETATM   20  C   UNL     1      39.817 -14.367   1.359  1.00  0.00     0.119 A 
HETATM   21  N   UNL     1      38.722 -14.674   0.602  1.00  0.00    -0.273 N 
HETATM   22  N   UNL     1      38.673 -14.030  -0.578  1.00  0.00    -0.179 NA
HETATM   23  H   UNL     1      37.969 -15.315   0.826  1.00  0.00     0.189 HD
HETATM   24  C   UNL     1      39.834 -13.365  -0.629  1.00  0.00     0.057 A 
HETATM   25  C   UNL     1      40.589 -13.556   0.549  1.00  0.00     0.065 A 
BRANCH  24  26
HETATM   26  C   UNL     1      40.209 -12.562  -1.829  1.00  0.00     0.061 C 
BRANCH  26  27
HETATM   27  C   UNL     1      40.191 -13.399  -3.109  1.00  0.00     0.002 C 
HETATM   28  C   UNL     1      41.331 -14.404  -3.136  1.00  0.00     0.005 C 
ENDBRANCH  26  27
ENDBRANCH  24  26
ENDBRANCH   1  20
TORSDOF 8
ENDMDL
MODEL 7
REMARK VINA RESULT:      -6.8      3.258      5.961
REMARK  8 active torsions:
REMARK  status: ('A' for Active; 'I' for Inactive)
REMARK    1  A    between atoms: C_2  and  C_3 
REMARK    2  A    between atoms: C_3  and  C_4 
REMARK    3  A    between atoms: C_8  and  C_9 
REMARK       I    between atoms: C_9  and  N_10 
REMARK    4  A    between atoms: N_10  and  C_11 
REMARK    5  A    between atoms: N_10  and  C_17 
REMARK    6  A    between atoms: C_17  and  C_18 
REMARK    7  A    between atoms: C_18  and  O_19 
REMARK    8  A    between atoms: C_18  and  C_20 
ROOT
HETATM    1  C   UNL     1      41.799 -15.456   4.886  1.00  0.00     0.272 C 
HETATM    2  N   UNL     1      42.110 -16.282   3.787  1.00  0.00    -0.339 N 
HETATM    3  O   UNL     1      40.665 -14.988   5.001  1.00  0.00    -0.266 OA
ENDROOT
BRANCH   2   4
HETATM    4  C   UNL     1      43.478 -16.782   3.479  1.00  0.00     0.087 C 
HETATM    5  C   UNL     1      43.808 -18.076   4.240  1.00  0.00     0.025 C 
HETATM    6  C   UNL     1      43.541 -19.360   3.463  1.00  0.00     0.002 C 
HETATM    7  C   UNL     1      44.207 -19.328   2.097  1.00  0.00     0.000 C 
HETATM    8  C   UNL     1      43.680 -18.167   1.270  1.00  0.00     0.002 C 
HETATM    9  C   UNL     1      43.850 -16.822   1.979  1.00  0.00     0.025 C 
ENDBRANCH   2   4
BRANCH   2  10
HETATM   10  C   UNL     1      40.998 -16.532   2.847  1.00  0.00     0.163 C 
BRANCH  10  11
HETATM   11  C   UNL     1      41.063 -15.726   1.522  1.00  0.00     0.169 C 
BRANCH  11  12
HETATM   12  O   UNL     1      40.703 -16.480   0.365  1.00  0.00    -0.389 OA
HETATM   13  H   UNL     1      39.917 -17.019   0.584  1.00  0.00     0.210 HD
ENDBRANCH  11  12
BRANCH  11  14
HETATM   14  C   UNL     1      40.138 -14.523   1.569  1.00  0.00    -0.028 A 
HETATM   15  C   UNL     1      40.619 -13.266   1.960  1.00  0.00     0.010 A 
HETATM   16  C   UNL     1      39.762 -12.163   2.010  1.00  0.00     0.001 A 
HETATM   17  C   UNL     1      38.417 -12.302   1.671  1.00  0.00     0.000 A 
HETATM   18  C   UNL     1      37.928 -13.544   1.271  1.00  0.00     0.001 A 
HETATM   19  C   UNL     1      38.783 -14.645   1.214  1.00  0.00     0.010 A 
ENDBRANCH  11  14
ENDBRANCH  10  11
ENDBRANCH   2  10
BRANCH   1  20
HETATM   20  C   UNL     1      42.810 -15.143   5.859  1.00  0.00     0.119 A 
HETATM   21  N   UNL     1      43.058 -15.823   7.017  1.00  0.00    -0.273 N 
HETATM   22  N   UNL     1      44.059 -15.307   7.752  1.00  0.00    -0.179 NA
HETATM   23  H   UNL     1      42.584 -16.645   7.372  1.00  0.00     0.189 HD
HETATM   24  C   UNL     1      44.398 -14.190   7.094  1.00  0.00     0.057 A 
HETATM   25  C   UNL     1      43.636 -14.037   5.914  1.00  0.00     0.065 A 
BRANCH  24  26
HETATM   26  C   UNL     1      45.447 -13.273   7.624  1.00  0.00     0.061 C 
BRANCH  26  27
HETATM   27  C   UNL     1      44.949 -12.459   8.820  1.00  0.00     0.002 C 
HETATM   28  C   UNL     1      45.927 -11.357   9.193  1.00  0.00     0.005 C 
ENDBRANCH  26  27
ENDBRANCH  24  26
ENDBRANCH   1  20
TORSDOF 8
ENDMDL
MODEL 8
REMARK VINA RESULT:      -6.7      1.603      2.273
REMARK  8 active torsions:
REMARK  status: ('A' for Active; 'I' for Inactive)
REMARK    1  A    between atoms: C_2  and  C_3 
REMARK    2  A    between atoms: C_3  and  C_4 
REMARK    3  A    between atoms: C_8  and  C_9 
REMARK       I    between atoms: C_9  and  N_10 
REMARK    4  A    between atoms: N_10  and  C_11 
REMARK    5  A    between atoms: N_10  and  C_17 
REMARK    6  A    between atoms: C_17  and  C_18 
REMARK    7  A    between atoms: C_18  and  O_19 
REMARK    8  A    between atoms: C_18  and  C_20 
ROOT
HETATM    1  C   UNL     1      42.251 -14.866   5.569  1.00  0.00     0.272 C 
HETATM    2  N   UNL     1      42.406 -15.381   4.266  1.00  0.00    -0.339 N 
HETATM    3  O   UNL     1      42.928 -15.319   6.493  1.00  0.00    -0.266 OA
ENDROOT
BRANCH   2   4
HETATM    4  C   UNL     1      41.544 -15.007   3.112  1.00  0.00     0.087 C 
HETATM    5  C   UNL     1      42.358 -14.798   1.824  1.00  0.00     0.025 C 
HETATM    6  C   UNL     1      42.444 -16.020   0.918  1.00  0.00     0.002 C 
HETATM    7  C   UNL     1      41.065 -16.588   0.623  1.00  0.00     0.000 C 
HETATM    8  C   UNL     1      40.372 -17.011   1.908  1.00  0.00     0.002 C 
HETATM    9  C   UNL     1      40.275 -15.869   2.921  1.00  0.00     0.025 C 
ENDBRANCH   2   4
BRANCH   2  10
HETATM   10  C   UNL     1      43.419 -16.448   4.123  1.00  0.00     0.163 C 
BRANCH  10  11
HETATM   11  C   UNL     1      43.069 -17.786   4.827  1.00  0.00     0.169 C 
BRANCH  11  12
HETATM   12  O   UNL     1      41.674 -17.970   5.061  1.00  0.00    -0.389 OA
HETATM   13  H   UNL     1      41.298 -18.460   4.302  1.00  0.00     0.210 HD
ENDBRANCH  11  12
BRANCH  11  14
HETATM   14  C   UNL     1      43.539 -18.973   4.007  1.00  0.00    -0.028 A 
HETATM   15  C   UNL     1      44.398 -19.931   4.563  1.00  0.00     0.010 A 
HETATM   16  C   UNL     1      44.835 -21.020   3.801  1.00  0.00     0.001 A 
HETATM   17  C   UNL     1      44.419 -21.163   2.479  1.00  0.00     0.000 A 
HETATM   18  C   UNL     1      43.558 -20.224   1.917  1.00  0.00     0.001 A 
HETATM   19  C   UNL     1      43.115 -19.141   2.677  1.00  0.00     0.010 A 
ENDBRANCH  11  14
ENDBRANCH  10  11
ENDBRANCH   2  10
BRANCH   1  20
HETATM   20  C   UNL     1      41.287 -13.830   5.821  1.00  0.00     0.119 A 
HETATM   21  N   UNL     1      40.024 -14.000   6.315  1.00  0.00    -0.273 N 
HETATM   22  N   UNL     1      39.328 -12.857   6.443  1.00  0.00    -0.179 NA
HETATM   23  H   UNL     1      39.571 -14.866   6.582  1.00  0.00     0.189 HD
HETATM   24  C   UNL     1      40.134 -11.928   5.913  1.00  0.00     0.057 A 
HETATM   25  C   UNL     1      41.362 -12.489   5.497  1.00  0.00     0.065 A 
BRANCH  24  26
HETATM   26  C   UNL     1      39.699 -10.506   5.799  1.00  0.00     0.061 C 
BRANCH  26  27
HETATM   27  C   UNL     1      39.555 -10.063   4.342  1.00  0.00     0.002 C 
HETATM   28  C   UNL     1      38.153 -10.325   3.815  1.00  0.00     0.005 C 
ENDBRANCH  26  27
ENDBRANCH  24  26
ENDBRANCH   1  20
TORSDOF 8
ENDMDL
MODEL 9
REMARK VINA RESULT:      -6.6      3.432      5.818
REMARK  8 active torsions:
REMARK  status: ('A' for Active; 'I' for Inactive)
REMARK    1  A    between atoms: C_2  and  C_3 
REMARK    2  A    between atoms: C_3  and  C_4 
REMARK    3  A    between atoms: C_8  and  C_9 
REMARK       I    between atoms: C_9  and  N_10 
REMARK    4  A    between atoms: N_10  and  C_11 
REMARK    5  A    between atoms: N_10  and  C_17 
REMARK    6  A    between atoms: C_17  and  C_18 
REMARK    7  A    between atoms: C_18  and  O_19 
REMARK    8  A    between atoms: C_18  and  C_20 
ROOT
HETATM    1  C   UNL     1      41.851 -14.860   4.411  1.00  0.00     0.272 C 
HETATM    2  N   UNL     1      42.124 -15.707   3.317  1.00  0.00    -0.339 N 
HETATM    3  O   UNL     1      40.816 -14.192   4.427  1.00  0.00    -0.266 OA
ENDROOT
BRANCH   2   4
HETATM    4  C   UNL     1      43.402 -16.446   3.132  1.00  0.00     0.087 C 
HETATM    5  C   UNL     1      43.414 -17.784   3.890  1.00  0.00     0.025 C 
HETATM    6  C   UNL     1      42.998 -18.992   3.061  1.00  0.00     0.002 C 
HETATM    7  C   UNL     1      43.792 -19.075   1.767  1.00  0.00     0.000 C 
HETATM    8  C   UNL     1      43.571 -17.832   0.921  1.00  0.00     0.002 C 
HETATM    9  C   UNL     1      43.910 -16.545   1.676  1.00  0.00     0.025 C 
ENDBRANCH   2   4
BRANCH   2  10
HETATM   10  C   UNL     1      41.094 -15.725   2.257  1.00  0.00     0.163 C 
BRANCH  10  11
HETATM   11  C   UNL     1      40.885 -14.375   1.520  1.00  0.00     0.169 C 
BRANCH  11  12
HETATM   12  O   UNL     1      42.025 -13.518   1.547  1.00  0.00    -0.389 OA
HETATM   13  H   UNL     1      42.638 -13.800   0.839  1.00  0.00     0.210 HD
ENDBRANCH  11  12
BRANCH  11  14
HETATM   14  C   UNL     1      40.536 -14.599   0.061  1.00  0.00    -0.028 A 
HETATM   15  C   UNL     1      41.272 -15.501  -0.721  1.00  0.00     0.010 A 
HETATM   16  C   UNL     1      40.952 -15.698  -2.067  1.00  0.00     0.001 A 
HETATM   17  C   UNL     1      39.896 -14.997  -2.648  1.00  0.00     0.000 A 
HETATM   18  C   UNL     1      39.150 -14.106  -1.881  1.00  0.00     0.001 A 
HETATM   19  C   UNL     1      39.463 -13.913  -0.535  1.00  0.00     0.010 A 
ENDBRANCH  11  14
ENDBRANCH  10  11
ENDBRANCH   2  10
BRANCH   1  20
HETATM   20  C   UNL     1      42.789 -14.762   5.495  1.00  0.00     0.119 A 
HETATM   21  N   UNL     1      42.877 -15.600   6.571  1.00  0.00    -0.273 N 
HETATM   22  N   UNL     1      43.843 -15.270   7.445  1.00  0.00    -0.179 NA
HETATM   23  H   UNL     1      42.309 -16.414   6.774  1.00  0.00     0.189 HD
HETATM   24  C   UNL     1      44.326 -14.115   6.970  1.00  0.00     0.057 A 
HETATM   25  C   UNL     1      43.690 -13.749   5.763  1.00  0.00     0.065 A 
BRANCH  24  26
HETATM   26  C   UNL     1      45.390 -13.367   7.700  1.00  0.00     0.061 C 
BRANCH  26  27
HETATM   27  C   UNL     1      44.819 -12.516   8.835  1.00  0.00     0.002 C 
HETATM   28  C   UNL     1      45.771 -11.398   9.228  1.00  0.00     0.005 C 
ENDBRANCH  26  27
ENDBRANCH  24  26
ENDBRANCH   1  20
TORSDOF 8
ENDMDL
MODEL 10
REMARK VINA RESULT:      -6.5      3.631      5.994
REMARK  8 active torsions:
REMARK  status: ('A' for Active; 'I' for Inactive)
REMARK    1  A    between atoms: C_2  and  C_3 
REMARK    2  A    between atoms: C_3  and  C_4 
REMARK    3  A    between atoms: C_8  and  C_9 
REMARK       I    between atoms: C_9  and  N_10 
REMARK    4  A    between atoms: N_10  and  C_11 
REMARK    5  A    between atoms: N_10  and  C_17 
REMARK    6  A    between atoms: C_17  and  C_18 
REMARK    7  A    between atoms: C_18  and  O_19 
REMARK    8  A    between atoms: C_18  and  C_20 
ROOT
HETATM    1  C   UNL     1      40.831 -16.403   1.473  1.00  0.00     0.272 C 
HETATM    2  N   UNL     1      41.075 -15.933   2.779  1.00  0.00    -0.339 N 
HETATM    3  O   UNL     1      40.680 -17.610   1.272  1.00  0.00    -0.266 OA
ENDROOT
BRANCH   2   4
HETATM    4  C   UNL     1      41.410 -14.521   3.110  1.00  0.00     0.087 C 
HETATM    5  C   UNL     1      40.577 -13.987   4.286  1.00  0.00     0.025 C 
HETATM    6  C   UNL     1      41.249 -14.101   5.649  1.00  0.00     0.002 C 
HETATM    7  C   UNL     1      42.643 -13.495   5.630  1.00  0.00     0.000 C 
HETATM    8  C   UNL     1      43.524 -14.207   4.616  1.00  0.00     0.002 C 
HETATM    9  C   UNL     1      42.919 -14.201   3.211  1.00  0.00     0.025 C 
ENDBRANCH   2   4
BRANCH   2  10
HETATM   10  C   UNL     1      41.113 -16.972   3.830  1.00  0.00     0.163 C 
BRANCH  10  11
HETATM   11  C   UNL     1      42.395 -17.848   3.842  1.00  0.00     0.169 C 
BRANCH  11  12
HETATM   12  O   UNL     1      43.388 -17.436   2.904  1.00  0.00    -0.389 OA
HETATM   13  H   UNL     1      42.948 -16.917   2.201  1.00  0.00     0.210 HD
ENDBRANCH  11  12
BRANCH  11  14
HETATM   14  C   UNL     1      43.050 -17.837   5.211  1.00  0.00    -0.028 A 
HETATM   15  C   UNL     1      44.405 -18.166   5.358  1.00  0.00     0.010 A 
HETATM   16  C   UNL     1      45.002 -18.163   6.622  1.00  0.00     0.001 A 
HETATM   17  C   UNL     1      44.255 -17.832   7.751  1.00  0.00     0.000 A 
HETATM   18  C   UNL     1      42.911 -17.494   7.619  1.00  0.00     0.001 A 
HETATM   19  C   UNL     1      42.314 -17.489   6.357  1.00  0.00     0.010 A 
ENDBRANCH  11  14
ENDBRANCH  10  11
ENDBRANCH   2  10
BRANCH   1  20
HETATM   20  C   UNL     1      40.780 -15.478   0.374  1.00  0.00     0.119 A 
HETATM   21  N   UNL     1      39.681 -14.791  -0.057  1.00  0.00    -0.273 N 
HETATM   22  N   UNL     1      39.912 -13.997  -1.117  1.00  0.00    -0.179 NA
HETATM   23  H   UNL     1      38.741 -14.817   0.323  1.00  0.00     0.189 HD
HETATM   24  C   UNL     1      41.182 -14.263  -1.447  1.00  0.00     0.057 A 
HETATM   25  C   UNL     1      41.761 -15.193  -0.556  1.00  0.00     0.065 A 
BRANCH  24  26
HETATM   26  C   UNL     1      41.818 -13.625  -2.636  1.00  0.00     0.061 C 
BRANCH  26  27
HETATM   27  C   UNL     1      40.806 -12.848  -3.481  1.00  0.00     0.002 C 
HETATM   28  C   UNL     1      41.122 -11.361  -3.503  1.00  0.00     0.005 C 
ENDBRANCH  26  27
ENDBRANCH  24  26
ENDBRANCH   1  20
TORSDOF 8
ENDMDL
