MODEL 1
REMARK VINA RESULT:      -8.7      0.000      0.000
REMARK  3 active torsions:
REMARK  status: ('A' for Active; 'I' for Inactive)
REMARK    1  A    between atoms: C_6  and  N_7 
REMARK       I    between atoms: N_7  and  C_8 
REMARK       I    between atoms: C_8  and  N_9 
REMARK    2  A    between atoms: N_9  and  C_10 
REMARK    3  A    between atoms: C_11  and  C_12 
ROOT
HETATM    1  C   UNL     1      40.978 -16.419   2.705  1.00  0.00     0.049 A 
HETATM    2  C   UNL     1      41.099 -15.740   3.933  1.00  0.00     0.021 A 
HETATM    3  C   UNL     1      40.331 -14.594   4.187  1.00  0.00     0.016 A 
HETATM    4  C   UNL     1      39.437 -14.127   3.223  1.00  0.00     0.001 A 
HETATM    5  C   UNL     1      39.284 -14.819   2.023  1.00  0.00     0.002 A 
HETATM    6  C   UNL     1      40.040 -15.968   1.771  1.00  0.00     0.030 A 
ENDROOT
BRANCH   1   7
HETATM    7  N   UNL     1      41.739 -17.560   2.368  1.00  0.00    -0.308 N 
HETATM    8  C   UNL     1      42.769 -17.532   1.464  1.00  0.00     0.325 C 
HETATM    9  N   UNL     1      43.574 -18.635   1.423  1.00  0.00    -0.309 N 
HETATM   10  O   UNL     1      42.934 -16.641   0.632  1.00  0.00    -0.247 OA
HETATM   11  H   UNL     1      44.139 -18.654   0.582  1.00  0.00     0.170 HD
HETATM   12  H   UNL     1      41.289 -18.463   2.430  1.00  0.00     0.170 HD
BRANCH   9  13
HETATM   13  C   UNL     1      43.918 -19.561   2.428  1.00  0.00     0.039 A 
HETATM   14  C   UNL     1      44.284 -19.206   3.726  1.00  0.00     0.072 A 
HETATM   15  C   UNL     1      44.677 -20.191   4.632  1.00  0.00     0.124 A 
HETATM   16  C   UNL     1      44.714 -21.540   4.276  1.00  0.00    -0.023 A 
HETATM   17  F   UNL     1      45.046 -19.817   5.865  1.00  0.00    -0.205 F 
HETATM   18  C   UNL     1      45.192 -22.580   5.242  1.00  0.00     0.051 C 
HETATM   19  C   UNL     1      44.366 -21.893   2.969  1.00  0.00     0.012 A 
HETATM   20  C   UNL     1      43.974 -20.910   2.055  1.00  0.00     0.030 A 
ENDBRANCH   9  13
ENDBRANCH   1   7
BRANCH   2  21
HETATM   21  C   UNL     1      41.870 -16.312   5.063  1.00  0.00     0.089 A 
HETATM   22  N   UNL     1      41.615 -17.524   5.458  1.00  0.00    -0.171 NA
HETATM   23  N   UNL     1      42.361 -17.997   6.498  1.00  0.00    -0.243 N 
HETATM   24  C   UNL     1      43.349 -17.308   7.153  1.00  0.00     0.261 A 
HETATM   25  H   UNL     1      42.172 -18.947   6.797  1.00  0.00     0.192 HD
HETATM   26  O   UNL     1      43.999 -17.781   8.080  1.00  0.00    -0.267 OA
HETATM   27  C   UNL     1      43.599 -15.933   6.682  1.00  0.00     0.078 A 
HETATM   28  C   UNL     1      42.888 -15.425   5.672  1.00  0.00     0.040 A 
ENDBRANCH   2  21
TORSDOF 3
ENDMDL
MODEL 2
REMARK VINA RESULT:      -8.2      3.961      6.708
REMARK  3 active torsions:
REMARK  status: ('A' for Active; 'I' for Inactive)
REMARK    1  A    between atoms: C_6  and  N_7 
REMARK       I    between atoms: N_7  and  C_8 
REMARK       I    between atoms: C_8  and  N_9 
REMARK    2  A    between atoms: N_9  and  C_10 
REMARK    3  A    between atoms: C_11  and  C_12 
ROOT
HETATM    1  C   UNL     1      43.019 -17.596   2.103  1.00  0.00     0.049 A 
HETATM    2  C   UNL     1      43.209 -17.156   3.428  1.00  0.00     0.021 A 
HETATM    3  C   UNL     1      43.843 -17.986   4.365  1.00  0.00     0.016 A 
HETATM    4  C   UNL     1      44.296 -19.249   3.984  1.00  0.00     0.001 A 
HETATM    5  C   UNL     1      44.147 -19.672   2.664  1.00  0.00     0.002 A 
HETATM    6  C   UNL     1      43.525 -18.844   1.725  1.00  0.00     0.030 A 
ENDROOT
BRANCH   1   7
HETATM    7  N   UNL     1      42.364 -16.830   1.114  1.00  0.00    -0.308 N 
HETATM    8  C   UNL     1      41.006 -16.647   1.087  1.00  0.00     0.325 C 
HETATM    9  N   UNL     1      40.537 -15.687   0.235  1.00  0.00    -0.309 N 
HETATM   10  O   UNL     1      40.201 -17.359   1.687  1.00  0.00    -0.247 OA
HETATM   11  H   UNL     1      39.540 -15.780   0.082  1.00  0.00     0.170 HD
HETATM   12  H   UNL     1      42.790 -16.776   0.200  1.00  0.00     0.170 HD
BRANCH   9  13
HETATM   13  C   UNL     1      41.134 -14.498  -0.228  1.00  0.00     0.039 A 
HETATM   14  C   UNL     1      41.590 -14.308  -1.532  1.00  0.00     0.072 A 
HETATM   15  C   UNL     1      42.233 -13.120  -1.878  1.00  0.00     0.124 A 
HETATM   16  C   UNL     1      42.435 -12.099  -0.948  1.00  0.00    -0.023 A 
HETATM   17  F   UNL     1      42.681 -12.976  -3.133  1.00  0.00    -0.205 F 
HETATM   18  C   UNL     1      43.177 -10.853  -1.320  1.00  0.00     0.051 C 
HETATM   19  C   UNL     1      41.995 -12.298   0.364  1.00  0.00     0.012 A 
HETATM   20  C   UNL     1      41.353 -13.489   0.718  1.00  0.00     0.030 A 
ENDBRANCH   9  13
ENDBRANCH   1   7
BRANCH   2  21
HETATM   21  C   UNL     1      42.940 -15.754   3.825  1.00  0.00     0.089 A 
HETATM   22  N   UNL     1      43.619 -14.795   3.270  1.00  0.00    -0.171 NA
HETATM   23  N   UNL     1      43.323 -13.524   3.672  1.00  0.00    -0.243 N 
HETATM   24  C   UNL     1      42.376 -13.179   4.601  1.00  0.00     0.261 A 
HETATM   25  H   UNL     1      43.843 -12.776   3.229  1.00  0.00     0.192 HD
HETATM   26  O   UNL     1      42.141 -12.020   4.924  1.00  0.00    -0.267 OA
HETATM   27  C   UNL     1      41.635 -14.298   5.216  1.00  0.00     0.078 A 
HETATM   28  C   UNL     1      41.898 -15.558   4.859  1.00  0.00     0.040 A 
ENDBRANCH   2  21
TORSDOF 3
ENDMDL
MODEL 3
REMARK VINA RESULT:      -8.2      1.685      2.056
REMARK  3 active torsions:
REMARK  status: ('A' for Active; 'I' for Inactive)
REMARK    1  A    between atoms: C_6  and  N_7 
REMARK       I    between atoms: N_7  and  C_8 
REMARK       I    between atoms: C_8  and  N_9 
REMARK    2  A    between atoms: N_9  and  C_10 
REMARK    3  A    between atoms: C_11  and  C_12 
ROOT
HETATM    1  C   UNL     1      40.279 -14.902   2.166  1.00  0.00     0.049 A 
HETATM    2  C   UNL     1      40.578 -13.983   3.191  1.00  0.00     0.021 A 
HETATM    3  C   UNL     1      39.793 -12.833   3.362  1.00  0.00     0.016 A 
HETATM    4  C   UNL     1      38.706 -12.600   2.519  1.00  0.00     0.001 A 
HETATM    5  C   UNL     1      38.382 -13.526   1.530  1.00  0.00     0.002 A 
HETATM    6  C   UNL     1      39.156 -14.679   1.363  1.00  0.00     0.030 A 
ENDROOT
BRANCH   1   7
HETATM    7  N   UNL     1      41.041 -16.064   1.915  1.00  0.00    -0.308 N 
HETATM    8  C   UNL     1      42.003 -16.132   0.942  1.00  0.00     0.325 C 
HETATM    9  N   UNL     1      42.830 -17.220   0.977  1.00  0.00    -0.309 N 
HETATM   10  O   UNL     1      42.088 -15.347  -0.002  1.00  0.00    -0.247 OA
HETATM   11  H   UNL     1      43.334 -17.333   0.106  1.00  0.00     0.170 HD
HETATM   12  H   UNL     1      40.618 -16.959   2.119  1.00  0.00     0.170 HD
BRANCH   9  13
HETATM   13  C   UNL     1      43.265 -18.010   2.059  1.00  0.00     0.039 A 
HETATM   14  C   UNL     1      43.640 -17.498   3.300  1.00  0.00     0.072 A 
HETATM   15  C   UNL     1      44.127 -18.354   4.288  1.00  0.00     0.124 A 
HETATM   16  C   UNL     1      44.249 -19.727   4.071  1.00  0.00    -0.023 A 
HETATM   17  F   UNL     1      44.501 -17.829   5.463  1.00  0.00    -0.205 F 
HETATM   18  C   UNL     1      44.825 -20.625   5.122  1.00  0.00     0.051 C 
HETATM   19  C   UNL     1      43.891 -20.237   2.820  1.00  0.00     0.012 A 
HETATM   20  C   UNL     1      43.406 -19.383   1.824  1.00  0.00     0.030 A 
ENDBRANCH   9  13
ENDBRANCH   1   7
BRANCH   2  21
HETATM   21  C   UNL     1      41.582 -14.289   4.238  1.00  0.00     0.089 A 
HETATM   22  N   UNL     1      41.258 -15.079   5.218  1.00  0.00    -0.171 NA
HETATM   23  N   UNL     1      42.226 -15.327   6.148  1.00  0.00    -0.243 N 
HETATM   24  C   UNL     1      43.500 -14.821   6.132  1.00  0.00     0.261 A 
HETATM   25  H   UNL     1      41.978 -15.954   6.904  1.00  0.00     0.192 HD
HETATM   26  O   UNL     1      44.338 -15.080   6.989  1.00  0.00    -0.267 OA
HETATM   27  C   UNL     1      43.823 -13.919   5.010  1.00  0.00     0.078 A 
HETATM   28  C   UNL     1      42.905 -13.641   4.081  1.00  0.00     0.040 A 
ENDBRANCH   2  21
TORSDOF 3
ENDMDL
MODEL 4
REMARK VINA RESULT:      -8.1      3.890      6.674
REMARK  3 active torsions:
REMARK  status: ('A' for Active; 'I' for Inactive)
REMARK    1  A    between atoms: C_6  and  N_7 
REMARK       I    between atoms: N_7  and  C_8 
REMARK       I    between atoms: C_8  and  N_9 
REMARK    2  A    between atoms: N_9  and  C_10 
REMARK    3  A    between atoms: C_11  and  C_12 
ROOT
HETATM    1  C   UNL     1      43.228 -17.625   1.911  1.00  0.00     0.049 A 
HETATM    2  C   UNL     1      43.254 -17.169   3.243  1.00  0.00     0.021 A 
HETATM    3  C   UNL     1      43.768 -17.987   4.261  1.00  0.00     0.016 A 
HETATM    4  C   UNL     1      44.263 -19.253   3.953  1.00  0.00     0.001 A 
HETATM    5  C   UNL     1      44.278 -19.692   2.630  1.00  0.00     0.002 A 
HETATM    6  C   UNL     1      43.776 -18.877   1.612  1.00  0.00     0.030 A 
ENDROOT
BRANCH   1   7
HETATM    7  N   UNL     1      42.699 -16.871   0.840  1.00  0.00    -0.308 N 
HETATM    8  C   UNL     1      41.364 -16.843   0.532  1.00  0.00     0.325 C 
HETATM    9  N   UNL     1      40.963 -15.885  -0.356  1.00  0.00    -0.309 N 
HETATM   10  O   UNL     1      40.549 -17.682   0.914  1.00  0.00    -0.247 OA
HETATM   11  H   UNL     1      40.039 -16.080  -0.723  1.00  0.00     0.170 HD
HETATM   12  H   UNL     1      43.295 -16.705   0.040  1.00  0.00     0.170 HD
BRANCH   9  13
HETATM   13  C   UNL     1      41.488 -14.606  -0.629  1.00  0.00     0.039 A 
HETATM   14  C   UNL     1      41.658 -13.610   0.331  1.00  0.00     0.072 A 
HETATM   15  C   UNL     1      42.119 -12.349  -0.049  1.00  0.00     0.124 A 
HETATM   16  C   UNL     1      42.422 -12.050  -1.378  1.00  0.00    -0.023 A 
HETATM   17  F   UNL     1      42.250 -11.404   0.893  1.00  0.00    -0.205 F 
HETATM   18  C   UNL     1      42.862 -10.676  -1.778  1.00  0.00     0.051 C 
HETATM   19  C   UNL     1      42.233 -13.044  -2.343  1.00  0.00     0.012 A 
HETATM   20  C   UNL     1      41.768 -14.309  -1.969  1.00  0.00     0.030 A 
ENDBRANCH   9  13
ENDBRANCH   1   7
BRANCH   2  21
HETATM   21  C   UNL     1      42.939 -15.762   3.588  1.00  0.00     0.089 A 
HETATM   22  N   UNL     1      43.681 -14.809   3.108  1.00  0.00    -0.171 NA
HETATM   23  N   UNL     1      43.338 -13.534   3.456  1.00  0.00    -0.243 N 
HETATM   24  C   UNL     1      42.285 -13.179   4.258  1.00  0.00     0.261 A 
HETATM   25  H   UNL     1      43.908 -12.791   3.071  1.00  0.00     0.192 HD
HETATM   26  O   UNL     1      42.012 -12.017   4.537  1.00  0.00    -0.267 OA
HETATM   27  C   UNL     1      41.475 -14.291   4.792  1.00  0.00     0.078 A 
HETATM   28  C   UNL     1      41.778 -15.555   4.485  1.00  0.00     0.040 A 
ENDBRANCH   2  21
TORSDOF 3
ENDMDL
MODEL 5
REMARK VINA RESULT:      -8.1      2.990      6.715
REMARK  3 active torsions:
REMARK  status: ('A' for Active; 'I' for Inactive)
REMARK    1  A    between atoms: C_6  and  N_7 
REMARK       I    between atoms: N_7  and  C_8 
REMARK       I    between atoms: C_8  and  N_9 
REMARK    2  A    between atoms: N_9  and  C_10 
REMARK    3  A    between atoms: C_11  and  C_12 
ROOT
HETATM    1  C   UNL     1      43.455 -17.328   4.861  1.00  0.00     0.049 A 
HETATM    2  C   UNL     1      44.358 -18.408   4.832  1.00  0.00     0.021 A 
HETATM    3  C   UNL     1      45.276 -18.592   5.877  1.00  0.00     0.016 A 
HETATM    4  C   UNL     1      45.290 -17.707   6.955  1.00  0.00     0.001 A 
HETATM    5  C   UNL     1      44.371 -16.661   7.009  1.00  0.00     0.002 A 
HETATM    6  C   UNL     1      43.448 -16.480   5.974  1.00  0.00     0.030 A 
ENDROOT
BRANCH   1   7
HETATM    7  N   UNL     1      42.524 -17.062   3.833  1.00  0.00    -0.308 N 
HETATM    8  C   UNL     1      41.170 -17.197   3.996  1.00  0.00     0.325 C 
HETATM    9  N   UNL     1      40.382 -16.668   3.013  1.00  0.00    -0.309 N 
HETATM   10  O   UNL     1      40.644 -17.848   4.897  1.00  0.00    -0.247 OA
HETATM   11  H   UNL     1      39.433 -17.017   3.067  1.00  0.00     0.170 HD
HETATM   12  H   UNL     1      42.824 -17.198   2.878  1.00  0.00     0.170 HD
BRANCH   9  13
HETATM   13  C   UNL     1      40.598 -15.577   2.148  1.00  0.00     0.039 A 
HETATM   14  C   UNL     1      40.424 -14.243   2.512  1.00  0.00     0.072 A 
HETATM   15  C   UNL     1      40.593 -13.234   1.564  1.00  0.00     0.124 A 
HETATM   16  C   UNL     1      40.940 -13.522   0.243  1.00  0.00    -0.023 A 
HETATM   17  F   UNL     1      40.396 -11.963   1.938  1.00  0.00    -0.205 F 
HETATM   18  C   UNL     1      41.064 -12.433  -0.777  1.00  0.00     0.051 C 
HETATM   19  C   UNL     1      41.096 -14.861  -0.127  1.00  0.00     0.012 A 
HETATM   20  C   UNL     1      40.924 -15.877   0.819  1.00  0.00     0.030 A 
ENDBRANCH   9  13
ENDBRANCH   1   7
BRANCH   2  21
HETATM   21  C   UNL     1      44.242 -19.488   3.824  1.00  0.00     0.089 A 
HETATM   22  N   UNL     1      43.777 -19.208   2.643  1.00  0.00    -0.171 NA
HETATM   23  N   UNL     1      43.700 -20.243   1.755  1.00  0.00    -0.243 N 
HETATM   24  C   UNL     1      44.070 -21.539   2.003  1.00  0.00     0.261 A 
HETATM   25  H   UNL     1      43.351 -20.021   0.830  1.00  0.00     0.192 HD
HETATM   26  O   UNL     1      43.988 -22.434   1.169  1.00  0.00    -0.267 OA
HETATM   27  C   UNL     1      44.581 -21.818   3.359  1.00  0.00     0.078 A 
HETATM   28  C   UNL     1      44.667 -20.838   4.263  1.00  0.00     0.040 A 
ENDBRANCH   2  21
TORSDOF 3
ENDMDL
MODEL 6
REMARK VINA RESULT:      -7.9      2.776      3.675
REMARK  3 active torsions:
REMARK  status: ('A' for Active; 'I' for Inactive)
REMARK    1  A    between atoms: C_6  and  N_7 
REMARK       I    between atoms: N_7  and  C_8 
REMARK       I    between atoms: C_8  and  N_9 
REMARK    2  A    between atoms: N_9  and  C_10 
REMARK    3  A    between atoms: C_11  and  C_12 
ROOT
HETATM    1  C   UNL     1      39.270 -14.146   1.081  1.00  0.00     0.049 A 
HETATM    2  C   UNL     1      39.478 -13.194   2.099  1.00  0.00     0.021 A 
HETATM    3  C   UNL     1      38.589 -12.119   2.255  1.00  0.00     0.016 A 
HETATM    4  C   UNL     1      37.490 -11.995   1.405  1.00  0.00     0.001 A 
HETATM    5  C   UNL     1      37.258 -12.957   0.423  1.00  0.00     0.002 A 
HETATM    6  C   UNL     1      38.135 -14.035   0.271  1.00  0.00     0.030 A 
ENDROOT
BRANCH   1   7
HETATM    7  N   UNL     1      40.137 -15.235   0.845  1.00  0.00    -0.308 N 
HETATM    8  C   UNL     1      41.194 -15.176  -0.027  1.00  0.00     0.325 C 
HETATM    9  N   UNL     1      42.091 -16.205   0.032  1.00  0.00    -0.309 N 
HETATM   10  O   UNL     1      41.313 -14.328  -0.910  1.00  0.00    -0.247 OA
HETATM   11  H   UNL     1      42.686 -16.227  -0.788  1.00  0.00     0.170 HD
HETATM   12  H   UNL     1      39.763 -16.168   0.952  1.00  0.00     0.170 HD
BRANCH   9  13
HETATM   13  C   UNL     1      42.474 -17.031   1.107  1.00  0.00     0.039 A 
HETATM   14  C   UNL     1      41.801 -17.090   2.326  1.00  0.00     0.072 A 
HETATM   15  C   UNL     1      42.299 -17.886   3.357  1.00  0.00     0.124 A 
HETATM   16  C   UNL     1      43.465 -18.638   3.205  1.00  0.00    -0.023 A 
HETATM   17  F   UNL     1      41.643 -17.905   4.526  1.00  0.00    -0.205 F 
HETATM   18  C   UNL     1      44.017 -19.444   4.339  1.00  0.00     0.051 C 
HETATM   19  C   UNL     1      44.150 -18.563   1.989  1.00  0.00     0.012 A 
HETATM   20  C   UNL     1      43.658 -17.764   0.952  1.00  0.00     0.030 A 
ENDBRANCH   9  13
ENDBRANCH   1   7
BRANCH   2  21
HETATM   21  C   UNL     1      40.501 -13.396   3.152  1.00  0.00     0.089 A 
HETATM   22  N   UNL     1      41.731 -13.046   2.919  1.00  0.00    -0.171 NA
HETATM   23  N   UNL     1      42.626 -13.252   3.930  1.00  0.00    -0.243 N 
HETATM   24  C   UNL     1      42.338 -13.788   5.158  1.00  0.00     0.261 A 
HETATM   25  H   UNL     1      43.582 -12.966   3.753  1.00  0.00     0.192 HD
HETATM   26  O   UNL     1      43.177 -13.946   6.037  1.00  0.00    -0.267 OA
HETATM   27  C   UNL     1      40.933 -14.182   5.377  1.00  0.00     0.078 A 
HETATM   28  C   UNL     1      40.024 -14.008   4.414  1.00  0.00     0.040 A 
ENDBRANCH   2  21
TORSDOF 3
ENDMDL
MODEL 7
REMARK VINA RESULT:      -7.7      3.416      6.846
REMARK  3 active torsions:
REMARK  status: ('A' for Active; 'I' for Inactive)
REMARK    1  A    between atoms: C_6  and  N_7 
REMARK       I    between atoms: N_7  and  C_8 
REMARK       I    between atoms: C_8  and  N_9 
REMARK    2  A    between atoms: N_9  and  C_10 
REMARK    3  A    between atoms: C_11  and  C_12 
ROOT
HETATM    1  C   UNL     1      42.926 -16.359   2.759  1.00  0.00     0.049 A 
HETATM    2  C   UNL     1      43.227 -17.431   3.621  1.00  0.00     0.021 A 
HETATM    3  C   UNL     1      43.683 -18.652   3.100  1.00  0.00     0.016 A 
HETATM    4  C   UNL     1      43.847 -18.803   1.723  1.00  0.00     0.001 A 
HETATM    5  C   UNL     1      43.590 -17.732   0.869  1.00  0.00     0.002 A 
HETATM    6  C   UNL     1      43.146 -16.511   1.385  1.00  0.00     0.030 A 
ENDROOT
BRANCH   1   7
HETATM    7  N   UNL     1      42.436 -15.113   3.207  1.00  0.00    -0.308 N 
HETATM    8  C   UNL     1      43.229 -14.004   3.353  1.00  0.00     0.325 C 
HETATM    9  N   UNL     1      42.585 -12.815   3.546  1.00  0.00    -0.309 N 
HETATM   10  O   UNL     1      44.456 -14.039   3.429  1.00  0.00    -0.247 OA
HETATM   11  H   UNL     1      43.215 -12.101   3.892  1.00  0.00     0.170 HD
HETATM   12  H   UNL     1      41.639 -15.115   3.829  1.00  0.00     0.170 HD
BRANCH   9  13
HETATM   13  C   UNL     1      41.317 -12.375   3.118  1.00  0.00     0.039 A 
HETATM   14  C   UNL     1      41.012 -12.030   1.802  1.00  0.00     0.072 A 
HETATM   15  C   UNL     1      39.746 -11.536   1.488  1.00  0.00     0.124 A 
HETATM   16  C   UNL     1      38.759 -11.377   2.461  1.00  0.00    -0.023 A 
HETATM   17  F   UNL     1      39.490 -11.190   0.218  1.00  0.00    -0.205 F 
HETATM   18  C   UNL     1      37.424 -10.793   2.118  1.00  0.00     0.051 C 
HETATM   19  C   UNL     1      39.072 -11.705   3.784  1.00  0.00     0.012 A 
HETATM   20  C   UNL     1      40.341 -12.197   4.106  1.00  0.00     0.030 A 
ENDBRANCH   9  13
ENDBRANCH   1   7
BRANCH   2  21
HETATM   21  C   UNL     1      43.273 -17.254   5.092  1.00  0.00     0.089 A 
HETATM   22  N   UNL     1      42.312 -16.610   5.684  1.00  0.00    -0.171 NA
HETATM   23  N   UNL     1      42.406 -16.484   7.040  1.00  0.00    -0.243 N 
HETATM   24  C   UNL     1      43.418 -16.979   7.822  1.00  0.00     0.261 A 
HETATM   25  H   UNL     1      41.650 -15.994   7.503  1.00  0.00     0.192 HD
HETATM   26  O   UNL     1      43.454 -16.846   9.040  1.00  0.00    -0.267 OA
HETATM   27  C   UNL     1      44.494 -17.694   7.109  1.00  0.00     0.078 A 
HETATM   28  C   UNL     1      44.448 -17.833   5.782  1.00  0.00     0.040 A 
ENDBRANCH   2  21
TORSDOF 3
ENDMDL
MODEL 8
REMARK VINA RESULT:      -7.7      2.554      4.925
REMARK  3 active torsions:
REMARK  status: ('A' for Active; 'I' for Inactive)
REMARK    1  A    between atoms: C_6  and  N_7 
REMARK       I    between atoms: N_7  and  C_8 
REMARK       I    between atoms: C_8  and  N_9 
REMARK    2  A    between atoms: N_9  and  C_10 
REMARK    3  A    between atoms: C_11  and  C_12 
ROOT
HETATM    1  C   UNL     1      41.440 -14.603   1.415  1.00  0.00     0.049 A 
HETATM    2  C   UNL     1      41.634 -15.874   0.840  1.00  0.00     0.021 A 
HETATM    3  C   UNL     1      41.406 -16.075  -0.529  1.00  0.00     0.016 A 
HETATM    4  C   UNL     1      40.992 -15.011  -1.330  1.00  0.00     0.001 A 
HETATM    5  C   UNL     1      40.838 -13.741  -0.774  1.00  0.00     0.002 A 
HETATM    6  C   UNL     1      41.075 -13.535   0.588  1.00  0.00     0.030 A 
ENDROOT
BRANCH   1   7
HETATM    7  N   UNL     1      41.621 -14.333   2.789  1.00  0.00    -0.308 N 
HETATM    8  C   UNL     1      40.623 -13.847   3.594  1.00  0.00     0.325 C 
HETATM    9  N   UNL     1      40.859 -13.873   4.940  1.00  0.00    -0.309 N 
HETATM   10  O   UNL     1      39.604 -13.301   3.176  1.00  0.00    -0.247 OA
HETATM   11  H   UNL     1      40.209 -13.282   5.443  1.00  0.00     0.170 HD
HETATM   12  H   UNL     1      42.546 -14.071   3.101  1.00  0.00     0.170 HD
BRANCH   9  13
HETATM   13  C   UNL     1      41.646 -14.744   5.719  1.00  0.00     0.039 A 
HETATM   14  C   UNL     1      42.977 -14.504   6.057  1.00  0.00     0.072 A 
HETATM   15  C   UNL     1      43.696 -15.461   6.773  1.00  0.00     0.124 A 
HETATM   16  C   UNL     1      43.117 -16.667   7.170  1.00  0.00    -0.023 A 
HETATM   17  F   UNL     1      44.981 -15.212   7.063  1.00  0.00    -0.205 F 
HETATM   18  C   UNL     1      43.918 -17.707   7.890  1.00  0.00     0.051 C 
HETATM   19  C   UNL     1      41.788 -16.915   6.814  1.00  0.00     0.012 A 
HETATM   20  C   UNL     1      41.063 -15.961   6.093  1.00  0.00     0.030 A 
ENDBRANCH   9  13
ENDBRANCH   1   7
BRANCH   2  21
HETATM   21  C   UNL     1      42.272 -16.978   1.597  1.00  0.00     0.089 A 
HETATM   22  N   UNL     1      41.787 -17.318   2.754  1.00  0.00    -0.171 NA
HETATM   23  N   UNL     1      42.414 -18.345   3.401  1.00  0.00    -0.243 N 
HETATM   24  C   UNL     1      43.498 -19.041   2.935  1.00  0.00     0.261 A 
HETATM   25  H   UNL     1      42.027 -18.619   4.297  1.00  0.00     0.192 HD
HETATM   26  O   UNL     1      44.022 -19.963   3.551  1.00  0.00    -0.267 OA
HETATM   27  C   UNL     1      44.025 -18.616   1.624  1.00  0.00     0.078 A 
HETATM   28  C   UNL     1      43.449 -17.611   0.959  1.00  0.00     0.040 A 
ENDBRANCH   2  21
TORSDOF 3
ENDMDL
MODEL 9
REMARK VINA RESULT:      -7.7      3.103      5.990
REMARK  3 active torsions:
REMARK  status: ('A' for Active; 'I' for Inactive)
REMARK    1  A    between atoms: C_6  and  N_7 
REMARK       I    between atoms: N_7  and  C_8 
REMARK       I    between atoms: C_8  and  N_9 
REMARK    2  A    between atoms: N_9  and  C_10 
REMARK    3  A    between atoms: C_11  and  C_12 
ROOT
HETATM    1  C   UNL     1      43.381 -17.457   4.917  1.00  0.00     0.049 A 
HETATM    2  C   UNL     1      42.741 -16.888   6.035  1.00  0.00     0.021 A 
HETATM    3  C   UNL     1      43.170 -17.203   7.333  1.00  0.00     0.016 A 
HETATM    4  C   UNL     1      44.241 -18.077   7.520  1.00  0.00     0.001 A 
HETATM    5  C   UNL     1      44.904 -18.610   6.416  1.00  0.00     0.002 A 
HETATM    6  C   UNL     1      44.486 -18.291   5.120  1.00  0.00     0.030 A 
ENDROOT
BRANCH   1   7
HETATM    7  N   UNL     1      42.987 -17.210   3.584  1.00  0.00    -0.308 N 
HETATM    8  C   UNL     1      42.644 -18.208   2.708  1.00  0.00     0.325 C 
HETATM    9  N   UNL     1      42.044 -17.817   1.544  1.00  0.00    -0.309 N 
HETATM   10  O   UNL     1      42.942 -19.392   2.859  1.00  0.00    -0.247 OA
HETATM   11  H   UNL     1      42.051 -18.559   0.854  1.00  0.00     0.170 HD
HETATM   12  H   UNL     1      43.358 -16.390   3.126  1.00  0.00     0.170 HD
BRANCH   9  13
HETATM   13  C   UNL     1      41.230 -16.704   1.258  1.00  0.00     0.039 A 
HETATM   14  C   UNL     1      41.473 -15.803   0.222  1.00  0.00     0.072 A 
HETATM   15  C   UNL     1      40.650 -14.688   0.062  1.00  0.00     0.124 A 
HETATM   16  C   UNL     1      39.573 -14.445   0.915  1.00  0.00    -0.023 A 
HETATM   17  F   UNL     1      40.923 -13.827  -0.928  1.00  0.00    -0.205 F 
HETATM   18  C   UNL     1      38.732 -13.215   0.764  1.00  0.00     0.051 C 
HETATM   19  C   UNL     1      39.341 -15.338   1.964  1.00  0.00     0.012 A 
HETATM   20  C   UNL     1      40.165 -16.456   2.133  1.00  0.00     0.030 A 
ENDBRANCH   9  13
ENDBRANCH   1   7
BRANCH   2  21
HETATM   21  C   UNL     1      41.746 -15.799   5.888  1.00  0.00     0.089 A 
HETATM   22  N   UNL     1      40.479 -16.084   5.944  1.00  0.00    -0.171 NA
HETATM   23  N   UNL     1      39.611 -15.039   5.808  1.00  0.00    -0.243 N 
HETATM   24  C   UNL     1      39.962 -13.727   5.622  1.00  0.00     0.261 A 
HETATM   25  H   UNL     1      38.624 -15.260   5.865  1.00  0.00     0.192 HD
HETATM   26  O   UNL     1      39.143 -12.820   5.512  1.00  0.00    -0.267 OA
HETATM   27  C   UNL     1      41.409 -13.448   5.552  1.00  0.00     0.078 A 
HETATM   28  C   UNL     1      42.294 -14.440   5.672  1.00  0.00     0.040 A 
ENDBRANCH   2  21
TORSDOF 3
ENDMDL
MODEL 10
REMARK VINA RESULT:      -7.5      2.197      5.762
REMARK  3 active torsions:
REMARK  status: ('A' for Active; 'I' for Inactive)
REMARK    1  A    between atoms: C_6  and  N_7 
REMARK       I    between atoms: N_7  and  C_8 
REMARK       I    between atoms: C_8  and  N_9 
REMARK    2  A    between atoms: N_9  and  C_10 
REMARK    3  A    between atoms: C_11  and  C_12 
ROOT
HETATM    1  C   UNL     1      43.069 -17.960   2.820  1.00  0.00     0.049 A 
HETATM    2  C   UNL     1      43.444 -18.711   3.950  1.00  0.00     0.021 A 
HETATM    3  C   UNL     1      44.026 -19.979   3.797  1.00  0.00     0.016 A 
HETATM    4  C   UNL     1      44.243 -20.495   2.519  1.00  0.00     0.001 A 
HETATM    5  C   UNL     1      43.912 -19.737   1.397  1.00  0.00     0.002 A 
HETATM    6  C   UNL     1      43.341 -18.470   1.546  1.00  0.00     0.030 A 
ENDROOT
BRANCH   1   7
HETATM    7  N   UNL     1      42.452 -16.692   2.897  1.00  0.00    -0.308 N 
HETATM    8  C   UNL     1      41.103 -16.505   2.738  1.00  0.00     0.325 C 
HETATM    9  N   UNL     1      40.612 -15.279   3.087  1.00  0.00    -0.309 N 
HETATM   10  O   UNL     1      40.351 -17.321   2.207  1.00  0.00    -0.247 OA
HETATM   11  H   UNL     1      39.682 -15.130   2.714  1.00  0.00     0.170 HD
HETATM   12  H   UNL     1      42.999 -15.884   2.633  1.00  0.00     0.170 HD
BRANCH   9  13
HETATM   13  C   UNL     1      41.059 -14.348   4.046  1.00  0.00     0.039 A 
HETATM   14  C   UNL     1      42.158 -14.550   4.879  1.00  0.00     0.072 A 
HETATM   15  C   UNL     1      42.480 -13.600   5.849  1.00  0.00     0.124 A 
HETATM   16  C   UNL     1      41.728 -12.436   6.011  1.00  0.00    -0.023 A 
HETATM   17  F   UNL     1      43.528 -13.833   6.651  1.00  0.00    -0.205 F 
HETATM   18  C   UNL     1      42.053 -11.452   7.093  1.00  0.00     0.051 C 
HETATM   19  C   UNL     1      40.615 -12.243   5.188  1.00  0.00     0.012 A 
HETATM   20  C   UNL     1      40.284 -13.194   4.217  1.00  0.00     0.030 A 
ENDBRANCH   9  13
ENDBRANCH   1   7
BRANCH   2  21
HETATM   21  C   UNL     1      43.431 -18.124   5.311  1.00  0.00     0.089 A 
HETATM   22  N   UNL     1      42.291 -17.879   5.886  1.00  0.00    -0.171 NA
HETATM   23  N   UNL     1      42.343 -17.343   7.141  1.00  0.00    -0.243 N 
HETATM   24  C   UNL     1      43.485 -17.050   7.839  1.00  0.00     0.261 A 
HETATM   25  H   UNL     1      41.454 -17.165   7.594  1.00  0.00     0.192 HD
HETATM   26  O   UNL     1      43.480 -16.575   8.970  1.00  0.00    -0.267 OA
HETATM   27  C   UNL     1      44.757 -17.333   7.147  1.00  0.00     0.078 A 
HETATM   28  C   UNL     1      44.755 -17.848   5.915  1.00  0.00     0.040 A 
ENDBRANCH   2  21
TORSDOF 3
ENDMDL
