MODEL 1
REMARK VINA RESULT:      -8.2      0.000      0.000
REMARK  9 active torsions:
REMARK  status: ('A' for Active; 'I' for Inactive)
REMARK    1  A    between atoms: C_2  and  O_3 
REMARK    2  A    between atoms: O_3  and  C_4 
REMARK    3  A    between atoms: C_7  and  N_8 
REMARK       I    between atoms: N_8  and  C_9 
REMARK    4  A    between atoms: C_9  and  C_10 
REMARK    5  A    between atoms: C_11  and  N_12 
REMARK       I    between atoms: N_12  and  C_13 
REMARK    6  A    between atoms: C_13  and  C_14 
REMARK    7  A    between atoms: C_14  and  N_15 
REMARK    8  A    between atoms: N_15  and  C_18 
REMARK    9  A    between atoms: C_18  and  C_19 
ROOT
HETATM    1  C   UNL     1      43.130 -18.583   3.550  1.00  0.00     0.073 A 
HETATM    2  C   UNL     1      43.992 -18.499   4.652  1.00  0.00     0.093 A 
HETATM    3  S   UNL     1      45.147 -19.760   4.710  1.00  0.00    -0.075 SA
HETATM    4  C   UNL     1      44.501 -20.448   3.337  1.00  0.00    -0.008 A 
HETATM    5  C   UNL     1      43.437 -19.767   2.812  1.00  0.00    -0.026 A 
HETATM    6  C   UNL     1      42.915 -20.489   1.615  1.00  0.00     0.041 C 
HETATM    7  C   UNL     1      43.606 -21.883   1.724  1.00  0.00     0.010 C 
HETATM    8  C   UNL     1      44.873 -21.680   2.602  1.00  0.00     0.047 C 
ENDROOT
BRANCH   2   9
HETATM    9  N   UNL     1      43.942 -17.525   5.641  1.00  0.00    -0.319 N 
HETATM   10  C   UNL     1      43.657 -17.707   6.974  1.00  0.00     0.248 C 
HETATM   11  O   UNL     1      43.476 -18.757   7.591  1.00  0.00    -0.271 OA
HETATM   12  H   UNL     1      44.179 -16.593   5.291  1.00  0.00     0.169 HD
BRANCH  10  13
HETATM   13  C   UNL     1      43.586 -16.407   7.776  1.00  0.00     0.335 C 
BRANCH  13  14
HETATM   14  N   UNL     1      42.800 -15.388   6.982  1.00  0.00    -0.059 N 
HETATM   15  H   UNL     1      42.499 -15.895   6.129  1.00  0.00     0.278 HD
HETATM   16  H   UNL     1      41.913 -15.205   7.466  1.00  0.00     0.278 HD
BRANCH  14  17
HETATM   17  C   UNL     1      43.461 -14.111   6.582  1.00  0.00     0.215 C 
HETATM   18  C   UNL     1      44.969 -14.223   6.805  1.00  0.00     0.045 C 
BRANCH  17  19
HETATM   19  C   UNL     1      43.012 -13.651   5.212  1.00  0.00    -0.028 A 
HETATM   20  C   UNL     1      43.571 -14.139   4.020  1.00  0.00     0.009 A 
HETATM   21  C   UNL     1      43.100 -13.700   2.779  1.00  0.00     0.001 A 
HETATM   22  C   UNL     1      42.066 -12.772   2.710  1.00  0.00     0.000 A 
HETATM   23  C   UNL     1      41.498 -12.277   3.880  1.00  0.00     0.001 A 
HETATM   24  C   UNL     1      41.963 -12.715   5.120  1.00  0.00     0.009 A 
ENDBRANCH  17  19
ENDBRANCH  14  17
ENDBRANCH  13  14
ENDBRANCH  10  13
ENDBRANCH   2   9
BRANCH   1  25
HETATM   25  C   UNL     1      42.106 -17.548   3.302  1.00  0.00     0.259 C 
HETATM   26  N   UNL     1      41.884 -17.267   1.970  1.00  0.00    -0.323 N 
HETATM   27  H   UNL     1      42.448 -17.765   1.300  1.00  0.00     0.169 HD
HETATM   28  O   UNL     1      41.579 -16.977   4.256  1.00  0.00    -0.267 OA
BRANCH  26  29
HETATM   29  C   UNL     1      41.048 -16.277   1.414  1.00  0.00     0.035 A 
HETATM   30  C   UNL     1      39.891 -15.788   2.020  1.00  0.00     0.032 A 
HETATM   31  C   UNL     1      39.150 -14.760   1.417  1.00  0.00     0.039 A 
HETATM   32  C   UNL     1      39.562 -14.213   0.203  1.00  0.00     0.068 A 
HETATM   33  C   UNL     1      40.694 -14.728  -0.423  1.00  0.00     0.039 A 
HETATM   34  C   UNL     1      41.434 -15.749   0.177  1.00  0.00     0.032 A 
BRANCH  32  35
HETATM   35  O   UNL     1      38.945 -13.197  -0.470  1.00  0.00    -0.352 OA
BRANCH  35  36
HETATM   36  C   UNL     1      39.771 -12.116  -0.899  1.00  0.00     0.171 C 
HETATM   37  C   UNL     1      39.854 -11.112   0.237  1.00  0.00     0.034 C 
ENDBRANCH  35  36
ENDBRANCH  32  35
ENDBRANCH  26  29
ENDBRANCH   1  25
TORSDOF 9
ENDMDL
MODEL 2
REMARK VINA RESULT:      -8.1      2.026      3.260
REMARK  9 active torsions:
REMARK  status: ('A' for Active; 'I' for Inactive)
REMARK    1  A    between atoms: C_2  and  O_3 
REMARK    2  A    between atoms: O_3  and  C_4 
REMARK    3  A    between atoms: C_7  and  N_8 
REMARK       I    between atoms: N_8  and  C_9 
REMARK    4  A    between atoms: C_9  and  C_10 
REMARK    5  A    between atoms: C_11  and  N_12 
REMARK       I    between atoms: N_12  and  C_13 
REMARK    6  A    between atoms: C_13  and  C_14 
REMARK    7  A    between atoms: C_14  and  N_15 
REMARK    8  A    between atoms: N_15  and  C_18 
REMARK    9  A    between atoms: C_18  and  C_19 
ROOT
HETATM    1  C   UNL     1      42.741 -17.879   2.900  1.00  0.00     0.073 A 
HETATM    2  C   UNL     1      43.074 -17.322   4.143  1.00  0.00     0.093 A 
HETATM    3  S   UNL     1      44.205 -18.253   5.025  1.00  0.00    -0.075 SA
HETATM    4  C   UNL     1      44.229 -19.408   3.825  1.00  0.00    -0.008 A 
HETATM    5  C   UNL     1      43.417 -19.130   2.759  1.00  0.00    -0.026 A 
HETATM    6  C   UNL     1      43.484 -20.243   1.768  1.00  0.00     0.041 C 
HETATM    7  C   UNL     1      44.184 -21.381   2.573  1.00  0.00     0.010 C 
HETATM    8  C   UNL     1      44.966 -20.689   3.725  1.00  0.00     0.047 C 
ENDROOT
BRANCH   2   9
HETATM    9  N   UNL     1      42.548 -16.146   4.665  1.00  0.00    -0.319 N 
HETATM   10  C   UNL     1      42.902 -14.859   4.334  1.00  0.00     0.248 C 
HETATM   11  O   UNL     1      43.676 -14.469   3.460  1.00  0.00    -0.271 OA
HETATM   12  H   UNL     1      41.801 -16.314   5.344  1.00  0.00     0.169 HD
BRANCH  10  13
HETATM   13  C   UNL     1      42.198 -13.789   5.169  1.00  0.00     0.335 C 
BRANCH  13  14
HETATM   14  N   UNL     1      40.724 -13.800   4.831  1.00  0.00    -0.059 N 
HETATM   15  H   UNL     1      40.589 -14.662   4.272  1.00  0.00     0.278 HD
HETATM   16  H   UNL     1      40.191 -13.994   5.687  1.00  0.00     0.278 HD
BRANCH  14  17
HETATM   17  C   UNL     1      40.140 -12.642   4.093  1.00  0.00     0.215 C 
HETATM   18  C   UNL     1      41.232 -11.613   3.805  1.00  0.00     0.045 C 
BRANCH  17  19
HETATM   19  C   UNL     1      39.307 -13.092   2.911  1.00  0.00    -0.028 A 
HETATM   20  C   UNL     1      39.164 -14.441   2.547  1.00  0.00     0.009 A 
HETATM   21  C   UNL     1      38.361 -14.804   1.461  1.00  0.00     0.001 A 
HETATM   22  C   UNL     1      37.690 -13.831   0.728  1.00  0.00     0.000 A 
HETATM   23  C   UNL     1      37.818 -12.490   1.075  1.00  0.00     0.001 A 
HETATM   24  C   UNL     1      38.617 -12.123   2.158  1.00  0.00     0.009 A 
ENDBRANCH  17  19
ENDBRANCH  14  17
ENDBRANCH  13  14
ENDBRANCH  10  13
ENDBRANCH   2   9
BRANCH   1  25
HETATM   25  C   UNL     1      41.825 -17.185   1.974  1.00  0.00     0.259 C 
HETATM   26  N   UNL     1      42.436 -16.284   1.127  1.00  0.00    -0.323 N 
HETATM   27  H   UNL     1      43.431 -16.164   1.233  1.00  0.00     0.169 HD
HETATM   28  O   UNL     1      40.615 -17.395   2.049  1.00  0.00    -0.267 OA
BRANCH  26  29
HETATM   29  C   UNL     1      41.834 -15.408   0.202  1.00  0.00     0.035 A 
HETATM   30  C   UNL     1      41.172 -15.814  -0.957  1.00  0.00     0.032 A 
HETATM   31  C   UNL     1      40.553 -14.872  -1.793  1.00  0.00     0.039 A 
HETATM   32  C   UNL     1      40.590 -13.516  -1.475  1.00  0.00     0.068 A 
HETATM   33  C   UNL     1      41.285 -13.104  -0.340  1.00  0.00     0.039 A 
HETATM   34  C   UNL     1      41.900 -14.040   0.494  1.00  0.00     0.032 A 
BRANCH  32  35
HETATM   35  O   UNL     1      40.008 -12.507  -2.189  1.00  0.00    -0.352 OA
BRANCH  35  36
HETATM   36  C   UNL     1      39.155 -12.892  -3.266  1.00  0.00     0.171 C 
HETATM   37  C   UNL     1      37.720 -12.655  -2.832  1.00  0.00     0.034 C 
ENDBRANCH  35  36
ENDBRANCH  32  35
ENDBRANCH  26  29
ENDBRANCH   1  25
TORSDOF 9
ENDMDL
MODEL 3
REMARK VINA RESULT:      -8.0      2.801      6.912
REMARK  9 active torsions:
REMARK  status: ('A' for Active; 'I' for Inactive)
REMARK    1  A    between atoms: C_2  and  O_3 
REMARK    2  A    between atoms: O_3  and  C_4 
REMARK    3  A    between atoms: C_7  and  N_8 
REMARK       I    between atoms: N_8  and  C_9 
REMARK    4  A    between atoms: C_9  and  C_10 
REMARK    5  A    between atoms: C_11  and  N_12 
REMARK       I    between atoms: N_12  and  C_13 
REMARK    6  A    between atoms: C_13  and  C_14 
REMARK    7  A    between atoms: C_14  and  N_15 
REMARK    8  A    between atoms: N_15  and  C_18 
REMARK    9  A    between atoms: C_18  and  C_19 
ROOT
HETATM    1  C   UNL     1      40.850 -14.580   0.257  1.00  0.00     0.073 A 
HETATM    2  C   UNL     1      40.676 -13.293   0.784  1.00  0.00     0.093 A 
HETATM    3  S   UNL     1      40.294 -12.119  -0.399  1.00  0.00    -0.075 SA
HETATM    4  C   UNL     1      40.404 -13.262  -1.605  1.00  0.00    -0.008 A 
HETATM    5  C   UNL     1      40.716 -14.519  -1.165  1.00  0.00    -0.026 A 
HETATM    6  C   UNL     1      40.828 -15.449  -2.326  1.00  0.00     0.041 C 
HETATM    7  C   UNL     1      40.885 -14.477  -3.543  1.00  0.00     0.010 C 
HETATM    8  C   UNL     1      40.239 -13.143  -3.073  1.00  0.00     0.047 C 
ENDROOT
BRANCH   2   9
HETATM    9  N   UNL     1      40.813 -12.947   2.123  1.00  0.00    -0.319 N 
HETATM   10  C   UNL     1      41.965 -12.966   2.873  1.00  0.00     0.248 C 
HETATM   11  O   UNL     1      43.119 -13.199   2.513  1.00  0.00    -0.271 OA
HETATM   12  H   UNL     1      39.935 -12.623   2.539  1.00  0.00     0.169 HD
BRANCH  10  13
HETATM   13  C   UNL     1      41.751 -12.619   4.347  1.00  0.00     0.335 C 
BRANCH  13  14
HETATM   14  N   UNL     1      42.470 -13.643   5.196  1.00  0.00    -0.059 N 
HETATM   15  H   UNL     1      43.121 -14.116   4.543  1.00  0.00     0.278 HD
HETATM   16  H   UNL     1      43.105 -13.151   5.837  1.00  0.00     0.278 HD
BRANCH  14  17
HETATM   17  C   UNL     1      41.673 -14.673   5.924  1.00  0.00     0.215 C 
HETATM   18  C   UNL     1      40.473 -15.087   5.074  1.00  0.00     0.045 C 
BRANCH  17  19
HETATM   19  C   UNL     1      42.548 -15.791   6.450  1.00  0.00    -0.028 A 
HETATM   20  C   UNL     1      42.034 -17.024   6.882  1.00  0.00     0.009 A 
HETATM   21  C   UNL     1      42.890 -18.034   7.334  1.00  0.00     0.001 A 
HETATM   22  C   UNL     1      44.265 -17.829   7.359  1.00  0.00     0.000 A 
HETATM   23  C   UNL     1      44.794 -16.614   6.933  1.00  0.00     0.001 A 
HETATM   24  C   UNL     1      43.943 -15.605   6.479  1.00  0.00     0.009 A 
ENDBRANCH  17  19
ENDBRANCH  14  17
ENDBRANCH  13  14
ENDBRANCH  10  13
ENDBRANCH   2   9
BRANCH   1  25
HETATM   25  C   UNL     1      41.126 -15.734   1.135  1.00  0.00     0.259 C 
HETATM   26  N   UNL     1      42.452 -16.106   1.197  1.00  0.00    -0.323 N 
HETATM   27  H   UNL     1      43.098 -15.583   0.627  1.00  0.00     0.169 HD
HETATM   28  O   UNL     1      40.190 -16.311   1.688  1.00  0.00    -0.267 OA
BRANCH  26  29
HETATM   29  C   UNL     1      43.020 -17.211   1.864  1.00  0.00     0.035 A 
HETATM   30  C   UNL     1      43.420 -17.207   3.201  1.00  0.00     0.032 A 
HETATM   31  C   UNL     1      43.925 -18.372   3.798  1.00  0.00     0.039 A 
HETATM   32  C   UNL     1      44.032 -19.551   3.062  1.00  0.00     0.068 A 
HETATM   33  C   UNL     1      43.672 -19.546   1.717  1.00  0.00     0.039 A 
HETATM   34  C   UNL     1      43.166 -18.389   1.122  1.00  0.00     0.032 A 
BRANCH  32  35
HETATM   35  O   UNL     1      44.482 -20.752   3.532  1.00  0.00    -0.352 OA
BRANCH  35  36
HETATM   36  C   UNL     1      44.792 -20.822   4.923  1.00  0.00     0.171 C 
HETATM   37  C   UNL     1      45.036 -22.279   5.274  1.00  0.00     0.034 C 
ENDBRANCH  35  36
ENDBRANCH  32  35
ENDBRANCH  26  29
ENDBRANCH   1  25
TORSDOF 9
ENDMDL
MODEL 4
REMARK VINA RESULT:      -7.8      2.936      7.796
REMARK  9 active torsions:
REMARK  status: ('A' for Active; 'I' for Inactive)
REMARK    1  A    between atoms: C_2  and  O_3 
REMARK    2  A    between atoms: O_3  and  C_4 
REMARK    3  A    between atoms: C_7  and  N_8 
REMARK       I    between atoms: N_8  and  C_9 
REMARK    4  A    between atoms: C_9  and  C_10 
REMARK    5  A    between atoms: C_11  and  N_12 
REMARK       I    between atoms: N_12  and  C_13 
REMARK    6  A    between atoms: C_13  and  C_14 
REMARK    7  A    between atoms: C_14  and  N_15 
REMARK    8  A    between atoms: N_15  and  C_18 
REMARK    9  A    between atoms: C_18  and  C_19 
ROOT
HETATM    1  C   UNL     1      43.220 -12.868   6.979  1.00  0.00     0.073 A 
HETATM    2  C   UNL     1      42.090 -12.149   6.566  1.00  0.00     0.093 A 
HETATM    3  S   UNL     1      41.738 -10.804   7.563  1.00  0.00    -0.075 SA
HETATM    4  C   UNL     1      43.016 -11.179   8.563  1.00  0.00    -0.008 A 
HETATM    5  C   UNL     1      43.723 -12.287   8.184  1.00  0.00    -0.026 A 
HETATM    6  C   UNL     1      44.814 -12.553   9.167  1.00  0.00     0.041 C 
HETATM    7  C   UNL     1      44.422 -11.644  10.372  1.00  0.00     0.010 C 
HETATM    8  C   UNL     1      43.503 -10.527   9.801  1.00  0.00     0.047 C 
ENDROOT
BRANCH   2   9
HETATM    9  N   UNL     1      41.287 -12.467   5.478  1.00  0.00    -0.319 N 
HETATM   10  C   UNL     1      40.496 -13.581   5.327  1.00  0.00     0.248 C 
HETATM   11  O   UNL     1      40.256 -14.477   6.137  1.00  0.00    -0.271 OA
HETATM   12  H   UNL     1      41.302 -11.746   4.751  1.00  0.00     0.169 HD
BRANCH  10  13
HETATM   13  C   UNL     1      39.814 -13.676   3.961  1.00  0.00     0.335 C 
BRANCH  13  14
HETATM   14  N   UNL     1      39.736 -15.131   3.557  1.00  0.00    -0.059 N 
HETATM   15  H   UNL     1      40.410 -15.614   4.179  1.00  0.00     0.278 HD
HETATM   16  H   UNL     1      38.831 -15.510   3.860  1.00  0.00     0.278 HD
BRANCH  14  17
HETATM   17  C   UNL     1      40.022 -15.509   2.142  1.00  0.00     0.215 C 
HETATM   18  C   UNL     1      39.697 -14.333   1.221  1.00  0.00     0.045 C 
BRANCH  17  19
HETATM   19  C   UNL     1      41.398 -16.124   1.992  1.00  0.00    -0.028 A 
HETATM   20  C   UNL     1      42.579 -15.448   2.336  1.00  0.00     0.009 A 
HETATM   21  C   UNL     1      43.822 -16.073   2.202  1.00  0.00     0.001 A 
HETATM   22  C   UNL     1      43.904 -17.378   1.728  1.00  0.00     0.000 A 
HETATM   23  C   UNL     1      42.744 -18.065   1.384  1.00  0.00     0.001 A 
HETATM   24  C   UNL     1      41.502 -17.446   1.517  1.00  0.00     0.009 A 
ENDBRANCH  17  19
ENDBRANCH  14  17
ENDBRANCH  13  14
ENDBRANCH  10  13
ENDBRANCH   2   9
BRANCH   1  25
HETATM   25  C   UNL     1      43.713 -14.026   6.207  1.00  0.00     0.259 C 
HETATM   26  N   UNL     1      43.343 -15.255   6.712  1.00  0.00    -0.323 N 
HETATM   27  H   UNL     1      42.802 -15.252   7.562  1.00  0.00     0.169 HD
HETATM   28  O   UNL     1      44.444 -13.839   5.235  1.00  0.00    -0.267 OA
BRANCH  26  29
HETATM   29  C   UNL     1      43.725 -16.535   6.263  1.00  0.00     0.035 A 
HETATM   30  C   UNL     1      44.960 -17.128   6.524  1.00  0.00     0.032 A 
HETATM   31  C   UNL     1      45.233 -18.432   6.083  1.00  0.00     0.039 A 
HETATM   32  C   UNL     1      44.271 -19.153   5.379  1.00  0.00     0.068 A 
HETATM   33  C   UNL     1      43.052 -18.548   5.081  1.00  0.00     0.039 A 
HETATM   34  C   UNL     1      42.778 -17.252   5.522  1.00  0.00     0.032 A 
BRANCH  32  35
HETATM   35  O   UNL     1      44.404 -20.433   4.919  1.00  0.00    -0.352 OA
BRANCH  35  36
HETATM   36  C   UNL     1      44.681 -20.590   3.528  1.00  0.00     0.171 C 
HETATM   37  C   UNL     1      44.492 -22.054   3.176  1.00  0.00     0.034 C 
ENDBRANCH  35  36
ENDBRANCH  32  35
ENDBRANCH  26  29
ENDBRANCH   1  25
TORSDOF 9
ENDMDL
MODEL 5
REMARK VINA RESULT:      -7.7      2.850      7.005
REMARK  9 active torsions:
REMARK  status: ('A' for Active; 'I' for Inactive)
REMARK    1  A    between atoms: C_2  and  O_3 
REMARK    2  A    between atoms: O_3  and  C_4 
REMARK    3  A    between atoms: C_7  and  N_8 
REMARK       I    between atoms: N_8  and  C_9 
REMARK    4  A    between atoms: C_9  and  C_10 
REMARK    5  A    between atoms: C_11  and  N_12 
REMARK       I    between atoms: N_12  and  C_13 
REMARK    6  A    between atoms: C_13  and  C_14 
REMARK    7  A    between atoms: C_14  and  N_15 
REMARK    8  A    between atoms: N_15  and  C_18 
REMARK    9  A    between atoms: C_18  and  C_19 
ROOT
HETATM    1  C   UNL     1      41.584 -12.831   1.392  1.00  0.00     0.073 A 
HETATM    2  C   UNL     1      40.588 -12.241   2.183  1.00  0.00     0.093 A 
HETATM    3  S   UNL     1      39.659 -11.073   1.347  1.00  0.00    -0.075 SA
HETATM    4  C   UNL     1      40.577 -11.289  -0.026  1.00  0.00    -0.008 A 
HETATM    5  C   UNL     1      41.572 -12.219   0.101  1.00  0.00    -0.026 A 
HETATM    6  C   UNL     1      42.353 -12.301  -1.168  1.00  0.00     0.041 C 
HETATM    7  C   UNL     1      41.893 -11.028  -1.940  1.00  0.00     0.010 C 
HETATM    8  C   UNL     1      40.509 -10.631  -1.352  1.00  0.00     0.047 C 
ENDROOT
BRANCH   2   9
HETATM    9  N   UNL     1      40.351 -12.523   3.522  1.00  0.00    -0.319 N 
HETATM   10  C   UNL     1      39.830 -13.682   4.049  1.00  0.00     0.248 C 
HETATM   11  O   UNL     1      39.549 -14.734   3.476  1.00  0.00    -0.271 OA
HETATM   12  H   UNL     1      40.641 -11.762   4.144  1.00  0.00     0.169 HD
BRANCH  10  13
HETATM   13  C   UNL     1      39.605 -13.629   5.560  1.00  0.00     0.335 C 
BRANCH  13  14
HETATM   14  N   UNL     1      40.560 -14.591   6.229  1.00  0.00    -0.059 N 
HETATM   15  H   UNL     1      40.502 -14.361   7.237  1.00  0.00     0.278 HD
HETATM   16  H   UNL     1      40.161 -15.536   6.185  1.00  0.00     0.278 HD
BRANCH  14  17
HETATM   17  C   UNL     1      41.993 -14.600   5.812  1.00  0.00     0.215 C 
HETATM   18  C   UNL     1      42.640 -13.263   6.172  1.00  0.00     0.045 C 
BRANCH  17  19
HETATM   19  C   UNL     1      42.709 -15.847   6.286  1.00  0.00    -0.028 A 
HETATM   20  C   UNL     1      42.045 -16.923   6.896  1.00  0.00     0.009 A 
HETATM   21  C   UNL     1      42.750 -18.064   7.291  1.00  0.00     0.001 A 
HETATM   22  C   UNL     1      44.123 -18.147   7.084  1.00  0.00     0.000 A 
HETATM   23  C   UNL     1      44.798 -17.091   6.480  1.00  0.00     0.001 A 
HETATM   24  C   UNL     1      44.098 -15.952   6.081  1.00  0.00     0.009 A 
ENDBRANCH  17  19
ENDBRANCH  14  17
ENDBRANCH  13  14
ENDBRANCH  10  13
ENDBRANCH   2   9
BRANCH   1  25
HETATM   25  C   UNL     1      42.446 -13.904   1.926  1.00  0.00     0.259 C 
HETATM   26  N   UNL     1      42.081 -15.178   1.546  1.00  0.00    -0.323 N 
HETATM   27  H   UNL     1      41.258 -15.262   0.970  1.00  0.00     0.169 HD
HETATM   28  O   UNL     1      43.363 -13.618   2.696  1.00  0.00    -0.267 OA
BRANCH  26  29
HETATM   29  C   UNL     1      42.638 -16.406   1.957  1.00  0.00     0.035 A 
HETATM   30  C   UNL     1      43.794 -16.970   1.418  1.00  0.00     0.032 A 
HETATM   31  C   UNL     1      44.307 -18.172   1.929  1.00  0.00     0.039 A 
HETATM   32  C   UNL     1      43.668 -18.819   2.985  1.00  0.00     0.068 A 
HETATM   33  C   UNL     1      42.491 -18.279   3.498  1.00  0.00     0.039 A 
HETATM   34  C   UNL     1      41.980 -17.081   2.992  1.00  0.00     0.032 A 
BRANCH  32  35
HETATM   35  O   UNL     1      44.078 -19.975   3.585  1.00  0.00    -0.352 OA
BRANCH  35  36
HETATM   36  C   UNL     1      44.709 -20.943   2.749  1.00  0.00     0.171 C 
HETATM   37  C   UNL     1      43.637 -21.590   1.892  1.00  0.00     0.034 C 
ENDBRANCH  35  36
ENDBRANCH  32  35
ENDBRANCH  26  29
ENDBRANCH   1  25
TORSDOF 9
ENDMDL
MODEL 6
REMARK VINA RESULT:      -7.7      4.411      7.929
REMARK  9 active torsions:
REMARK  status: ('A' for Active; 'I' for Inactive)
REMARK    1  A    between atoms: C_2  and  O_3 
REMARK    2  A    between atoms: O_3  and  C_4 
REMARK    3  A    between atoms: C_7  and  N_8 
REMARK       I    between atoms: N_8  and  C_9 
REMARK    4  A    between atoms: C_9  and  C_10 
REMARK    5  A    between atoms: C_11  and  N_12 
REMARK       I    between atoms: N_12  and  C_13 
REMARK    6  A    between atoms: C_13  and  C_14 
REMARK    7  A    between atoms: C_14  and  N_15 
REMARK    8  A    between atoms: N_15  and  C_18 
REMARK    9  A    between atoms: C_18  and  C_19 
ROOT
HETATM    1  C   UNL     1      42.641 -10.631   9.485  1.00  0.00     0.073 A 
HETATM    2  C   UNL     1      43.523 -11.693   9.730  1.00  0.00     0.093 A 
HETATM    3  S   UNL     1      44.132 -11.716  11.328  1.00  0.00    -0.075 SA
HETATM    4  C   UNL     1      43.297 -10.322  11.694  1.00  0.00    -0.008 A 
HETATM    5  C   UNL     1      42.557  -9.820  10.659  1.00  0.00    -0.026 A 
HETATM    6  C   UNL     1      41.887  -8.556  11.082  1.00  0.00     0.041 C 
HETATM    7  C   UNL     1      42.626  -8.200  12.407  1.00  0.00     0.010 C 
HETATM    8  C   UNL     1      43.237  -9.526  12.942  1.00  0.00     0.047 C 
ENDROOT
BRANCH   2   9
HETATM    9  N   UNL     1      43.916 -12.644   8.797  1.00  0.00    -0.319 N 
HETATM   10  C   UNL     1      45.153 -12.770   8.209  1.00  0.00     0.248 C 
HETATM   11  O   UNL     1      46.187 -12.144   8.439  1.00  0.00    -0.271 OA
HETATM   12  H   UNL     1      43.175 -13.316   8.581  1.00  0.00     0.169 HD
BRANCH  10  13
HETATM   13  C   UNL     1      45.224 -13.867   7.146  1.00  0.00     0.335 C 
BRANCH  13  14
HETATM   14  N   UNL     1      43.885 -14.565   7.077  1.00  0.00    -0.059 N 
HETATM   15  H   UNL     1      43.456 -14.405   8.007  1.00  0.00     0.278 HD
HETATM   16  H   UNL     1      43.270 -14.037   6.447  1.00  0.00     0.278 HD
BRANCH  14  17
HETATM   17  C   UNL     1      43.840 -16.024   6.764  1.00  0.00     0.215 C 
HETATM   18  C   UNL     1      43.475 -16.807   8.025  1.00  0.00     0.045 C 
BRANCH  17  19
HETATM   19  C   UNL     1      43.014 -16.308   5.528  1.00  0.00    -0.028 A 
HETATM   20  C   UNL     1      41.979 -17.256   5.502  1.00  0.00     0.009 A 
HETATM   21  C   UNL     1      41.229 -17.460   4.339  1.00  0.00     0.001 A 
HETATM   22  C   UNL     1      41.500 -16.723   3.191  1.00  0.00     0.000 A 
HETATM   23  C   UNL     1      42.521 -15.778   3.198  1.00  0.00     0.001 A 
HETATM   24  C   UNL     1      43.270 -15.569   4.357  1.00  0.00     0.009 A 
ENDBRANCH  17  19
ENDBRANCH  14  17
ENDBRANCH  13  14
ENDBRANCH  10  13
ENDBRANCH   2   9
BRANCH   1  25
HETATM   25  C   UNL     1      41.969 -10.483   8.179  1.00  0.00     0.259 C 
HETATM   26  N   UNL     1      41.210 -11.569   7.796  1.00  0.00    -0.323 N 
HETATM   27  H   UNL     1      41.205 -12.361   8.418  1.00  0.00     0.169 HD
HETATM   28  O   UNL     1      42.165  -9.470   7.509  1.00  0.00    -0.267 OA
BRANCH  26  29
HETATM   29  C   UNL     1      40.529 -11.773   6.578  1.00  0.00     0.035 A 
HETATM   30  C   UNL     1      39.576 -10.903   6.050  1.00  0.00     0.032 A 
HETATM   31  C   UNL     1      38.988 -11.160   4.802  1.00  0.00     0.039 A 
HETATM   32  C   UNL     1      39.352 -12.290   4.072  1.00  0.00     0.068 A 
HETATM   33  C   UNL     1      40.273 -13.182   4.616  1.00  0.00     0.039 A 
HETATM   34  C   UNL     1      40.860 -12.926   5.856  1.00  0.00     0.032 A 
BRANCH  32  35
HETATM   35  O   UNL     1      38.874 -12.637   2.840  1.00  0.00    -0.352 OA
BRANCH  35  36
HETATM   36  C   UNL     1      39.659 -13.556   2.083  1.00  0.00     0.171 C 
HETATM   37  C   UNL     1      38.742 -14.661   1.591  1.00  0.00     0.034 C 
ENDBRANCH  35  36
ENDBRANCH  32  35
ENDBRANCH  26  29
ENDBRANCH   1  25
TORSDOF 9
ENDMDL
MODEL 7
REMARK VINA RESULT:      -7.5      3.207      7.466
REMARK  9 active torsions:
REMARK  status: ('A' for Active; 'I' for Inactive)
REMARK    1  A    between atoms: C_2  and  O_3 
REMARK    2  A    between atoms: O_3  and  C_4 
REMARK    3  A    between atoms: C_7  and  N_8 
REMARK       I    between atoms: N_8  and  C_9 
REMARK    4  A    between atoms: C_9  and  C_10 
REMARK    5  A    between atoms: C_11  and  N_12 
REMARK       I    between atoms: N_12  and  C_13 
REMARK    6  A    between atoms: C_13  and  C_14 
REMARK    7  A    between atoms: C_14  and  N_15 
REMARK    8  A    between atoms: N_15  and  C_18 
REMARK    9  A    between atoms: C_18  and  C_19 
ROOT
HETATM    1  C   UNL     1      40.336 -14.121  -0.549  1.00  0.00     0.073 A 
HETATM    2  C   UNL     1      41.118 -15.184  -1.023  1.00  0.00     0.093 A 
HETATM    3  S   UNL     1      40.709 -15.675  -2.609  1.00  0.00    -0.075 SA
HETATM    4  C   UNL     1      39.484 -14.548  -2.669  1.00  0.00    -0.008 A 
HETATM    5  C   UNL     1      39.356 -13.792  -1.536  1.00  0.00    -0.026 A 
HETATM    6  C   UNL     1      38.210 -12.849  -1.682  1.00  0.00     0.041 C 
HETATM    7  C   UNL     1      37.461 -13.407  -2.930  1.00  0.00     0.010 C 
HETATM    8  C   UNL     1      38.500 -14.240  -3.733  1.00  0.00     0.047 C 
ENDROOT
BRANCH   2   9
HETATM    9  N   UNL     1      42.120 -15.827  -0.307  1.00  0.00    -0.319 N 
HETATM   10  C   UNL     1      41.962 -16.775   0.677  1.00  0.00     0.248 C 
HETATM   11  O   UNL     1      40.930 -17.318   1.070  1.00  0.00    -0.271 OA
HETATM   12  H   UNL     1      43.059 -15.549  -0.605  1.00  0.00     0.169 HD
BRANCH  10  13
HETATM   13  C   UNL     1      43.273 -17.209   1.334  1.00  0.00     0.335 C 
BRANCH  13  14
HETATM   14  N   UNL     1      42.956 -18.146   2.478  1.00  0.00    -0.059 N 
HETATM   15  H   UNL     1      42.141 -17.715   2.953  1.00  0.00     0.278 HD
HETATM   16  H   UNL     1      42.565 -19.015   2.094  1.00  0.00     0.278 HD
BRANCH  14  17
HETATM   17  C   UNL     1      44.012 -18.440   3.491  1.00  0.00     0.215 C 
HETATM   18  C   UNL     1      43.691 -17.707   4.793  1.00  0.00     0.045 C 
BRANCH  17  19
HETATM   19  C   UNL     1      44.287 -19.924   3.600  1.00  0.00    -0.028 A 
HETATM   20  C   UNL     1      44.667 -20.545   4.801  1.00  0.00     0.009 A 
HETATM   21  C   UNL     1      44.883 -21.925   4.853  1.00  0.00     0.001 A 
HETATM   22  C   UNL     1      44.723 -22.704   3.711  1.00  0.00     0.000 A 
HETATM   23  C   UNL     1      44.345 -22.107   2.512  1.00  0.00     0.001 A 
HETATM   24  C   UNL     1      44.126 -20.730   2.457  1.00  0.00     0.009 A 
ENDBRANCH  17  19
ENDBRANCH  14  17
ENDBRANCH  13  14
ENDBRANCH  10  13
ENDBRANCH   2   9
BRANCH   1  25
HETATM   25  C   UNL     1      40.585 -13.523   0.778  1.00  0.00     0.259 C 
HETATM   26  N   UNL     1      39.526 -13.614   1.657  1.00  0.00    -0.323 N 
HETATM   27  H   UNL     1      38.685 -14.048   1.312  1.00  0.00     0.169 HD
HETATM   28  O   UNL     1      41.651 -12.949   0.993  1.00  0.00    -0.267 OA
BRANCH  26  29
HETATM   29  C   UNL     1      39.416 -13.066   2.951  1.00  0.00     0.035 A 
HETATM   30  C   UNL     1      39.935 -13.653   4.105  1.00  0.00     0.032 A 
HETATM   31  C   UNL     1      39.825 -13.007   5.346  1.00  0.00     0.039 A 
HETATM   32  C   UNL     1      39.197 -11.767   5.442  1.00  0.00     0.068 A 
HETATM   33  C   UNL     1      38.642 -11.198   4.298  1.00  0.00     0.039 A 
HETATM   34  C   UNL     1      38.753 -11.838   3.062  1.00  0.00     0.032 A 
BRANCH  32  35
HETATM   35  O   UNL     1      39.049 -11.028   6.581  1.00  0.00    -0.352 OA
BRANCH  35  36
HETATM   36  C   UNL     1      39.532 -11.610   7.791  1.00  0.00     0.171 C 
HETATM   37  C   UNL     1      39.108 -10.714   8.941  1.00  0.00     0.034 C 
ENDBRANCH  35  36
ENDBRANCH  32  35
ENDBRANCH  26  29
ENDBRANCH   1  25
TORSDOF 9
ENDMDL
MODEL 8
REMARK VINA RESULT:      -7.4      1.593      2.236
REMARK  9 active torsions:
REMARK  status: ('A' for Active; 'I' for Inactive)
REMARK    1  A    between atoms: C_2  and  O_3 
REMARK    2  A    between atoms: O_3  and  C_4 
REMARK    3  A    between atoms: C_7  and  N_8 
REMARK       I    between atoms: N_8  and  C_9 
REMARK    4  A    between atoms: C_9  and  C_10 
REMARK    5  A    between atoms: C_11  and  N_12 
REMARK       I    between atoms: N_12  and  C_13 
REMARK    6  A    between atoms: C_13  and  C_14 
REMARK    7  A    between atoms: C_14  and  N_15 
REMARK    8  A    between atoms: N_15  and  C_18 
REMARK    9  A    between atoms: C_18  and  C_19 
ROOT
HETATM    1  C   UNL     1      43.709 -18.618   3.620  1.00  0.00     0.073 A 
HETATM    2  C   UNL     1      43.620 -18.376   4.998  1.00  0.00     0.093 A 
HETATM    3  S   UNL     1      44.133 -19.697   5.956  1.00  0.00    -0.075 SA
HETATM    4  C   UNL     1      44.423 -20.607   4.591  1.00  0.00    -0.008 A 
HETATM    5  C   UNL     1      44.156 -19.961   3.415  1.00  0.00    -0.026 A 
HETATM    6  C   UNL     1      44.411 -20.876   2.265  1.00  0.00     0.041 C 
HETATM    7  C   UNL     1      44.528 -22.270   2.952  1.00  0.00     0.010 C 
HETATM    8  C   UNL     1      44.903 -22.000   4.437  1.00  0.00     0.047 C 
ENDROOT
BRANCH   2   9
HETATM    9  N   UNL     1      43.146 -17.207   5.581  1.00  0.00    -0.319 N 
HETATM   10  C   UNL     1      41.834 -16.822   5.724  1.00  0.00     0.248 C 
HETATM   11  O   UNL     1      40.809 -17.451   5.458  1.00  0.00    -0.271 OA
HETATM   12  H   UNL     1      43.897 -16.618   5.952  1.00  0.00     0.169 HD
BRANCH  10  13
HETATM   13  C   UNL     1      41.659 -15.426   6.321  1.00  0.00     0.335 C 
BRANCH  13  14
HETATM   14  N   UNL     1      42.956 -14.664   6.163  1.00  0.00    -0.059 N 
HETATM   15  H   UNL     1      43.176 -14.319   7.115  1.00  0.00     0.278 HD
HETATM   16  H   UNL     1      43.712 -15.335   5.982  1.00  0.00     0.278 HD
BRANCH  14  17
HETATM   17  C   UNL     1      43.016 -13.522   5.204  1.00  0.00     0.215 C 
HETATM   18  C   UNL     1      43.473 -14.026   3.836  1.00  0.00     0.045 C 
BRANCH  17  19
HETATM   19  C   UNL     1      41.746 -12.698   5.232  1.00  0.00    -0.028 A 
HETATM   20  C   UNL     1      40.790 -12.732   4.205  1.00  0.00     0.009 A 
HETATM   21  C   UNL     1      39.621 -11.970   4.294  1.00  0.00     0.001 A 
HETATM   22  C   UNL     1      39.389 -11.168   5.406  1.00  0.00     0.000 A 
HETATM   23  C   UNL     1      40.325 -11.122   6.435  1.00  0.00     0.001 A 
HETATM   24  C   UNL     1      41.492 -11.882   6.352  1.00  0.00     0.009 A 
ENDBRANCH  17  19
ENDBRANCH  14  17
ENDBRANCH  13  14
ENDBRANCH  10  13
ENDBRANCH   2   9
BRANCH   1  25
HETATM   25  C   UNL     1      43.367 -17.571   2.637  1.00  0.00     0.259 C 
HETATM   26  N   UNL     1      42.015 -17.346   2.484  1.00  0.00    -0.323 N 
HETATM   27  H   UNL     1      41.394 -17.924   3.028  1.00  0.00     0.169 HD
HETATM   28  O   UNL     1      44.264 -17.028   1.994  1.00  0.00    -0.267 OA
BRANCH  26  29
HETATM   29  C   UNL     1      41.370 -16.490   1.569  1.00  0.00     0.035 A 
HETATM   30  C   UNL     1      40.449 -15.503   1.923  1.00  0.00     0.032 A 
HETATM   31  C   UNL     1      39.898 -14.658   0.948  1.00  0.00     0.039 A 
HETATM   32  C   UNL     1      40.265 -14.792  -0.389  1.00  0.00     0.068 A 
HETATM   33  C   UNL     1      41.153 -15.803  -0.751  1.00  0.00     0.039 A 
HETATM   34  C   UNL     1      41.705 -16.643   0.218  1.00  0.00     0.032 A 
BRANCH  32  35
HETATM   35  O   UNL     1      39.821 -14.020  -1.425  1.00  0.00    -0.352 OA
BRANCH  35  36
HETATM   36  C   UNL     1      38.413 -13.806  -1.509  1.00  0.00     0.171 C 
HETATM   37  C   UNL     1      37.926 -14.411  -2.813  1.00  0.00     0.034 C 
ENDBRANCH  35  36
ENDBRANCH  32  35
ENDBRANCH  26  29
ENDBRANCH   1  25
TORSDOF 9
ENDMDL
MODEL 9
REMARK VINA RESULT:      -7.3      2.945      8.244
REMARK  9 active torsions:
REMARK  status: ('A' for Active; 'I' for Inactive)
REMARK    1  A    between atoms: C_2  and  O_3 
REMARK    2  A    between atoms: O_3  and  C_4 
REMARK    3  A    between atoms: C_7  and  N_8 
REMARK       I    between atoms: N_8  and  C_9 
REMARK    4  A    between atoms: C_9  and  C_10 
REMARK    5  A    between atoms: C_11  and  N_12 
REMARK       I    between atoms: N_12  and  C_13 
REMARK    6  A    between atoms: C_13  and  C_14 
REMARK    7  A    between atoms: C_14  and  N_15 
REMARK    8  A    between atoms: N_15  and  C_18 
REMARK    9  A    between atoms: C_18  and  C_19 
ROOT
HETATM    1  C   UNL     1      41.278 -12.207   5.342  1.00  0.00     0.073 A 
HETATM    2  C   UNL     1      40.864 -11.649   4.124  1.00  0.00     0.093 A 
HETATM    3  S   UNL     1      40.846  -9.939   4.131  1.00  0.00    -0.075 SA
HETATM    4  C   UNL     1      41.323  -9.914   5.726  1.00  0.00    -0.008 A 
HETATM    5  C   UNL     1      41.509 -11.152   6.278  1.00  0.00    -0.026 A 
HETATM    6  C   UNL     1      41.894 -11.014   7.713  1.00  0.00     0.041 C 
HETATM    7  C   UNL     1      41.561  -9.522   8.018  1.00  0.00     0.010 C 
HETATM    8  C   UNL     1      41.562  -8.781   6.650  1.00  0.00     0.047 C 
ENDROOT
BRANCH   2   9
HETATM    9  N   UNL     1      40.474 -12.368   3.001  1.00  0.00    -0.319 N 
HETATM   10  C   UNL     1      41.226 -12.633   1.881  1.00  0.00     0.248 C 
HETATM   11  O   UNL     1      42.411 -12.378   1.666  1.00  0.00    -0.271 OA
HETATM   12  H   UNL     1      39.524 -12.743   3.082  1.00  0.00     0.169 HD
BRANCH  10  13
HETATM   13  C   UNL     1      40.460 -13.369   0.781  1.00  0.00     0.335 C 
BRANCH  13  14
HETATM   14  N   UNL     1      41.022 -14.766   0.648  1.00  0.00    -0.059 N 
HETATM   15  H   UNL     1      40.475 -15.198  -0.120  1.00  0.00     0.278 HD
HETATM   16  H   UNL     1      41.967 -14.705   0.251  1.00  0.00     0.278 HD
BRANCH  14  17
HETATM   17  C   UNL     1      41.001 -15.674   1.832  1.00  0.00     0.215 C 
HETATM   18  C   UNL     1      39.571 -16.150   2.088  1.00  0.00     0.045 C 
BRANCH  17  19
HETATM   19  C   UNL     1      42.064 -16.747   1.736  1.00  0.00    -0.028 A 
HETATM   20  C   UNL     1      43.406 -16.469   1.433  1.00  0.00     0.009 A 
HETATM   21  C   UNL     1      44.353 -17.496   1.383  1.00  0.00     0.001 A 
HETATM   22  C   UNL     1      43.977 -18.811   1.635  1.00  0.00     0.000 A 
HETATM   23  C   UNL     1      42.651 -19.107   1.939  1.00  0.00     0.001 A 
HETATM   24  C   UNL     1      41.703 -18.084   1.992  1.00  0.00     0.009 A 
ENDBRANCH  17  19
ENDBRANCH  14  17
ENDBRANCH  13  14
ENDBRANCH  10  13
ENDBRANCH   2   9
BRANCH   1  25
HETATM   25  C   UNL     1      41.414 -13.668   5.506  1.00  0.00     0.259 C 
HETATM   26  N   UNL     1      42.631 -14.080   6.008  1.00  0.00    -0.323 N 
HETATM   27  H   UNL     1      43.314 -13.362   6.190  1.00  0.00     0.169 HD
HETATM   28  O   UNL     1      40.499 -14.405   5.142  1.00  0.00    -0.267 OA
BRANCH  26  29
HETATM   29  C   UNL     1      43.099 -15.397   6.190  1.00  0.00     0.035 A 
HETATM   30  C   UNL     1      43.386 -15.969   7.430  1.00  0.00     0.032 A 
HETATM   31  C   UNL     1      43.796 -17.308   7.520  1.00  0.00     0.039 A 
HETATM   32  C   UNL     1      43.922 -18.085   6.370  1.00  0.00     0.068 A 
HETATM   33  C   UNL     1      43.676 -17.504   5.128  1.00  0.00     0.039 A 
HETATM   34  C   UNL     1      43.265 -16.173   5.037  1.00  0.00     0.032 A 
BRANCH  32  35
HETATM   35  O   UNL     1      44.287 -19.401   6.326  1.00  0.00    -0.352 OA
BRANCH  35  36
HETATM   36  C   UNL     1      44.595 -19.939   5.042  1.00  0.00     0.171 C 
HETATM   37  C   UNL     1      44.811 -21.434   5.201  1.00  0.00     0.034 C 
ENDBRANCH  35  36
ENDBRANCH  32  35
ENDBRANCH  26  29
ENDBRANCH   1  25
TORSDOF 9
ENDMDL
MODEL 10
REMARK VINA RESULT:      -7.3      3.922      5.460
REMARK  9 active torsions:
REMARK  status: ('A' for Active; 'I' for Inactive)
REMARK    1  A    between atoms: C_2  and  O_3 
REMARK    2  A    between atoms: O_3  and  C_4 
REMARK    3  A    between atoms: C_7  and  N_8 
REMARK       I    between atoms: N_8  and  C_9 
REMARK    4  A    between atoms: C_9  and  C_10 
REMARK    5  A    between atoms: C_11  and  N_12 
REMARK       I    between atoms: N_12  and  C_13 
REMARK    6  A    between atoms: C_13  and  C_14 
REMARK    7  A    between atoms: C_14  and  N_15 
REMARK    8  A    between atoms: N_15  and  C_18 
REMARK    9  A    between atoms: C_18  and  C_19 
ROOT
HETATM    1  C   UNL     1      43.275 -15.348   5.376  1.00  0.00     0.073 A 
HETATM    2  C   UNL     1      44.028 -15.424   6.556  1.00  0.00     0.093 A 
HETATM    3  S   UNL     1      44.752 -16.953   6.804  1.00  0.00    -0.075 SA
HETATM    4  C   UNL     1      44.049 -17.540   5.413  1.00  0.00    -0.008 A 
HETATM    5  C   UNL     1      43.281 -16.629   4.741  1.00  0.00    -0.026 A 
HETATM    6  C   UNL     1      42.671 -17.269   3.539  1.00  0.00     0.041 C 
HETATM    7  C   UNL     1      42.910 -18.788   3.798  1.00  0.00     0.010 C 
HETATM    8  C   UNL     1      44.102 -18.884   4.791  1.00  0.00     0.047 C 
ENDROOT
BRANCH   2   9
HETATM    9  N   UNL     1      44.185 -14.396   7.478  1.00  0.00    -0.319 N 
HETATM   10  C   UNL     1      45.183 -13.451   7.507  1.00  0.00     0.248 C 
HETATM   11  O   UNL     1      46.086 -13.253   6.695  1.00  0.00    -0.271 OA
HETATM   12  H   UNL     1      43.432 -14.368   8.171  1.00  0.00     0.169 HD
BRANCH  10  13
HETATM   13  C   UNL     1      45.118 -12.519   8.718  1.00  0.00     0.335 C 
BRANCH  13  14
HETATM   14  N   UNL     1      43.667 -12.270   9.062  1.00  0.00    -0.059 N 
HETATM   15  H   UNL     1      43.138 -12.627   8.246  1.00  0.00     0.278 HD
HETATM   16  H   UNL     1      43.391 -12.914   9.814  1.00  0.00     0.278 HD
BRANCH  14  17
HETATM   17  C   UNL     1      43.220 -10.879   9.363  1.00  0.00     0.215 C 
HETATM   18  C   UNL     1      42.141 -10.460   8.365  1.00  0.00     0.045 C 
BRANCH  17  19
HETATM   19  C   UNL     1      42.890 -10.700  10.830  1.00  0.00    -0.028 A 
HETATM   20  C   UNL     1      41.720 -11.206  11.418  1.00  0.00     0.009 A 
HETATM   21  C   UNL     1      41.477 -11.035  12.784  1.00  0.00     0.001 A 
HETATM   22  C   UNL     1      42.396 -10.361  13.581  1.00  0.00     0.000 A 
HETATM   23  C   UNL     1      43.563  -9.853  13.017  1.00  0.00     0.001 A 
HETATM   24  C   UNL     1      43.810 -10.023  11.654  1.00  0.00     0.009 A 
ENDBRANCH  17  19
ENDBRANCH  14  17
ENDBRANCH  13  14
ENDBRANCH  10  13
ENDBRANCH   2   9
BRANCH   1  25
HETATM   25  C   UNL     1      42.626 -14.088   4.963  1.00  0.00     0.259 C 
HETATM   26  N   UNL     1      41.254 -14.077   5.096  1.00  0.00    -0.323 N 
HETATM   27  H   UNL     1      40.823 -14.924   5.431  1.00  0.00     0.169 HD
HETATM   28  O   UNL     1      43.310 -13.182   4.488  1.00  0.00    -0.267 OA
BRANCH  26  29
HETATM   29  C   UNL     1      40.346 -13.071   4.707  1.00  0.00     0.035 A 
HETATM   30  C   UNL     1      39.916 -12.032   5.532  1.00  0.00     0.032 A 
HETATM   31  C   UNL     1      39.052 -11.042   5.041  1.00  0.00     0.039 A 
HETATM   32  C   UNL     1      38.612 -11.083   3.719  1.00  0.00     0.068 A 
HETATM   33  C   UNL     1      39.007 -12.141   2.905  1.00  0.00     0.039 A 
HETATM   34  C   UNL     1      39.870 -13.126   3.391  1.00  0.00     0.032 A 
BRANCH  32  35
HETATM   35  O   UNL     1      37.794 -10.169   3.117  1.00  0.00    -0.352 OA
BRANCH  35  36
HETATM   36  C   UNL     1      38.161  -9.744   1.806  1.00  0.00     0.171 C 
HETATM   37  C   UNL     1      39.030  -8.507   1.942  1.00  0.00     0.034 C 
ENDBRANCH  35  36
ENDBRANCH  32  35
ENDBRANCH  26  29
ENDBRANCH   1  25
TORSDOF 9
ENDMDL
