MODEL 1
REMARK VINA RESULT:      -9.3      0.000      0.000
REMARK  5 active torsions:
REMARK  status: ('A' for Active; 'I' for Inactive)
REMARK    1  A    between atoms: C_3  and  N_4 
REMARK       I    between atoms: N_4  and  C_5 
REMARK    2  A    between atoms: C_5  and  C_6 
REMARK    3  A    between atoms: C_6  and  C_7 
REMARK    4  A    between atoms: C_9  and  N_10 
REMARK       I    between atoms: N_10  and  C_11 
REMARK       I    between atoms: C_11  and  N_12 
REMARK    5  A    between atoms: N_12  and  C_13 
ROOT
HETATM    1  C   UNL     1      42.354 -14.533   4.367  1.00  0.00     0.052 A 
HETATM    2  N   UNL     1      43.233 -14.443   5.442  1.00  0.00    -0.228 NA
HETATM    3  C   UNL     1      42.876 -13.450   6.226  1.00  0.00     0.174 A 
HETATM    4  S   UNL     1      41.464 -12.615   5.775  1.00  0.00    -0.062 SA
HETATM    5  C   UNL     1      41.325 -13.611   4.387  1.00  0.00     0.081 A 
ENDROOT
BRANCH   1   6
HETATM    6  C   UNL     1      42.647 -15.540   3.302  1.00  0.00     0.163 C 
BRANCH   6   7
HETATM    7  C   UNL     1      42.622 -16.972   3.831  1.00  0.00     0.227 C 
HETATM    8  N   UNL     1      43.825 -17.639   3.699  1.00  0.00    -0.326 N 
HETATM    9  H   UNL     1      44.615 -17.026   3.501  1.00  0.00     0.169 HD
HETATM   10  O   UNL     1      41.619 -17.393   4.402  1.00  0.00    -0.273 OA
BRANCH   8  11
HETATM   11  C   UNL     1      44.154 -18.996   3.907  1.00  0.00     0.042 A 
HETATM   12  C   UNL     1      44.500 -19.606   5.127  1.00  0.00    -0.035 A 
HETATM   13  C   UNL     1      44.533 -18.913   6.459  1.00  0.00     0.050 C 
HETATM   14  C   UNL     1      44.803 -20.987   5.136  1.00  0.00     0.011 A 
HETATM   15  C   UNL     1      44.716 -21.761   3.980  1.00  0.00     0.024 A 
HETATM   16  C   UNL     1      44.325 -21.163   2.793  1.00  0.00     0.036 A 
HETATM   17  C   UNL     1      44.044 -19.798   2.755  1.00  0.00     0.053 A 
HETATM   18 CL   UNL     1      44.185 -22.107   1.361  1.00  0.00    -0.084 Cl
ENDBRANCH   8  11
ENDBRANCH   6   7
ENDBRANCH   1   6
BRANCH   3  19
HETATM   19  N   UNL     1      43.580 -13.161   7.364  1.00  0.00    -0.287 N 
HETATM   20  C   UNL     1      44.934 -13.222   7.514  1.00  0.00     0.326 C 
HETATM   21  N   UNL     1      45.411 -12.898   8.760  1.00  0.00    -0.309 N 
HETATM   22  O   UNL     1      45.740 -13.636   6.684  1.00  0.00    -0.247 OA
HETATM   23  H   UNL     1      46.351 -13.250   8.900  1.00  0.00     0.170 HD
HETATM   24  H   UNL     1      43.030 -13.223   8.206  1.00  0.00     0.172 HD
BRANCH  21  25
HETATM   25  C   UNL     1      44.848 -12.148   9.807  1.00  0.00     0.036 A 
HETATM   26  C   UNL     1      44.313 -12.859  10.889  1.00  0.00     0.032 A 
HETATM   27  C   UNL     1      43.744 -12.181  11.970  1.00  0.00     0.044 A 
HETATM   28  C   UNL     1      43.739 -10.793  11.981  1.00  0.00     0.116 A 
HETATM   29  F   UNL     1      43.202 -10.142  13.021  1.00  0.00    -0.206 F 
HETATM   30  C   UNL     1      44.296 -10.072  10.933  1.00  0.00     0.044 A 
HETATM   31  C   UNL     1      44.855 -10.748   9.845  1.00  0.00     0.032 A 
ENDBRANCH  21  25
ENDBRANCH   3  19
TORSDOF 5
ENDMDL
MODEL 2
REMARK VINA RESULT:      -9.1      6.467      9.310
REMARK  5 active torsions:
REMARK  status: ('A' for Active; 'I' for Inactive)
REMARK    1  A    between atoms: C_3  and  N_4 
REMARK       I    between atoms: N_4  and  C_5 
REMARK    2  A    between atoms: C_5  and  C_6 
REMARK    3  A    between atoms: C_6  and  C_7 
REMARK    4  A    between atoms: C_9  and  N_10 
REMARK       I    between atoms: N_10  and  C_11 
REMARK       I    between atoms: C_11  and  N_12 
REMARK    5  A    between atoms: N_12  and  C_13 
ROOT
HETATM    1  C   UNL     1      39.608 -15.376   2.430  1.00  0.00     0.052 A 
HETATM    2  N   UNL     1      40.306 -16.499   1.996  1.00  0.00    -0.228 NA
HETATM    3  C   UNL     1      41.315 -16.734   2.804  1.00  0.00     0.174 A 
HETATM    4  S   UNL     1      41.457 -15.692   4.142  1.00  0.00    -0.062 SA
HETATM    5  C   UNL     1      40.098 -14.807   3.589  1.00  0.00     0.081 A 
ENDROOT
BRANCH   1   6
HETATM    6  C   UNL     1      38.478 -14.881   1.584  1.00  0.00     0.163 C 
BRANCH   6   7
HETATM    7  C   UNL     1      38.961 -14.078   0.379  1.00  0.00     0.227 C 
HETATM    8  N   UNL     1      40.096 -14.591  -0.218  1.00  0.00    -0.326 N 
HETATM    9  H   UNL     1      40.312 -15.546   0.063  1.00  0.00     0.169 HD
HETATM   10  O   UNL     1      38.292 -13.131  -0.029  1.00  0.00    -0.273 OA
BRANCH   8  11
HETATM   11  C   UNL     1      40.928 -14.058  -1.226  1.00  0.00     0.042 A 
HETATM   12  C   UNL     1      41.055 -14.519  -2.550  1.00  0.00    -0.035 A 
HETATM   13  C   UNL     1      40.274 -15.656  -3.146  1.00  0.00     0.050 C 
HETATM   14  C   UNL     1      41.948 -13.854  -3.420  1.00  0.00     0.011 A 
HETATM   15  C   UNL     1      42.661 -12.728  -3.013  1.00  0.00     0.024 A 
HETATM   16  C   UNL     1      42.491 -12.249  -1.724  1.00  0.00     0.036 A 
HETATM   17  C   UNL     1      41.634 -12.902  -0.841  1.00  0.00     0.053 A 
HETATM   18 CL   UNL     1      43.341 -10.844  -1.211  1.00  0.00    -0.084 Cl
ENDBRANCH   8  11
ENDBRANCH   6   7
ENDBRANCH   1   6
BRANCH   3  19
HETATM   19  N   UNL     1      42.154 -17.796   2.595  1.00  0.00    -0.287 N 
HETATM   20  C   UNL     1      43.005 -17.959   1.543  1.00  0.00     0.326 C 
HETATM   21  N   UNL     1      43.738 -19.120   1.544  1.00  0.00    -0.309 N 
HETATM   22  O   UNL     1      43.095 -17.227   0.560  1.00  0.00    -0.247 OA
HETATM   23  H   UNL     1      44.103 -19.327   0.621  1.00  0.00     0.170 HD
HETATM   24  H   UNL     1      41.875 -18.632   3.084  1.00  0.00     0.172 HD
BRANCH  21  25
HETATM   25  C   UNL     1      44.090 -19.999   2.582  1.00  0.00     0.036 A 
HETATM   26  C   UNL     1      44.115 -21.367   2.282  1.00  0.00     0.032 A 
HETATM   27  C   UNL     1      44.463 -22.300   3.261  1.00  0.00     0.044 A 
HETATM   28  C   UNL     1      44.816 -21.862   4.530  1.00  0.00     0.116 A 
HETATM   29  F   UNL     1      45.159 -22.755   5.466  1.00  0.00    -0.206 F 
HETATM   30  C   UNL     1      44.831 -20.507   4.835  1.00  0.00     0.044 A 
HETATM   31  C   UNL     1      44.471 -19.572   3.860  1.00  0.00     0.032 A 
ENDBRANCH  21  25
ENDBRANCH   3  19
TORSDOF 5
ENDMDL
MODEL 3
REMARK VINA RESULT:      -9.1      5.021      8.110
REMARK  5 active torsions:
REMARK  status: ('A' for Active; 'I' for Inactive)
REMARK    1  A    between atoms: C_3  and  N_4 
REMARK       I    between atoms: N_4  and  C_5 
REMARK    2  A    between atoms: C_5  and  C_6 
REMARK    3  A    between atoms: C_6  and  C_7 
REMARK    4  A    between atoms: C_9  and  N_10 
REMARK       I    between atoms: N_10  and  C_11 
REMARK       I    between atoms: C_11  and  N_12 
REMARK    5  A    between atoms: N_12  and  C_13 
ROOT
HETATM    1  C   UNL     1      42.731 -14.764   4.908  1.00  0.00     0.052 A 
HETATM    2  N   UNL     1      42.315 -15.193   3.652  1.00  0.00    -0.228 NA
HETATM    3  C   UNL     1      41.772 -14.192   2.997  1.00  0.00     0.174 A 
HETATM    4  S   UNL     1      41.777 -12.689   3.796  1.00  0.00    -0.062 SA
HETATM    5  C   UNL     1      42.515 -13.423   5.158  1.00  0.00     0.081 A 
ENDROOT
BRANCH   1   6
HETATM    6  C   UNL     1      43.286 -15.783   5.851  1.00  0.00     0.163 C 
BRANCH   6   7
HETATM    7  C   UNL     1      43.013 -17.213   5.391  1.00  0.00     0.227 C 
HETATM    8  N   UNL     1      44.011 -17.747   4.599  1.00  0.00    -0.326 N 
HETATM    9  H   UNL     1      44.885 -17.223   4.630  1.00  0.00     0.169 HD
HETATM   10  O   UNL     1      42.024 -17.809   5.810  1.00  0.00    -0.273 OA
BRANCH   8  11
HETATM   11  C   UNL     1      44.056 -18.947   3.856  1.00  0.00     0.042 A 
HETATM   12  C   UNL     1      43.757 -19.109   2.491  1.00  0.00    -0.035 A 
HETATM   13  C   UNL     1      43.375 -17.998   1.553  1.00  0.00     0.050 C 
HETATM   14  C   UNL     1      43.856 -20.398   1.920  1.00  0.00     0.011 A 
HETATM   15  C   UNL     1      44.292 -21.494   2.663  1.00  0.00     0.024 A 
HETATM   16  C   UNL     1      44.633 -21.315   3.994  1.00  0.00     0.036 A 
HETATM   17  C   UNL     1      44.521 -20.058   4.585  1.00  0.00     0.053 A 
HETATM   18 CL   UNL     1      45.199 -22.650   4.922  1.00  0.00    -0.084 Cl
ENDBRANCH   8  11
ENDBRANCH   6   7
ENDBRANCH   1   6
BRANCH   3  19
HETATM   19  N   UNL     1      41.290 -14.357   1.726  1.00  0.00    -0.287 N 
HETATM   20  C   UNL     1      40.094 -14.912   1.381  1.00  0.00     0.326 C 
HETATM   21  N   UNL     1      39.836 -14.983   0.034  1.00  0.00    -0.309 N 
HETATM   22  O   UNL     1      39.290 -15.440   2.145  1.00  0.00    -0.247 OA
HETATM   23  H   UNL     1      39.109 -15.659  -0.168  1.00  0.00     0.170 HD
HETATM   24  H   UNL     1      42.009 -14.358   1.020  1.00  0.00     0.172 HD
BRANCH  21  25
HETATM   25  C   UNL     1      40.361 -14.264  -1.054  1.00  0.00     0.036 A 
HETATM   26  C   UNL     1      40.978 -15.003  -2.072  1.00  0.00     0.032 A 
HETATM   27  C   UNL     1      41.515 -14.359  -3.188  1.00  0.00     0.044 A 
HETATM   28  C   UNL     1      41.407 -12.979  -3.300  1.00  0.00     0.116 A 
HETATM   29  F   UNL     1      41.913 -12.362  -4.375  1.00  0.00    -0.206 F 
HETATM   30  C   UNL     1      40.767 -12.235  -2.318  1.00  0.00     0.044 A 
HETATM   31  C   UNL     1      40.240 -12.877  -1.194  1.00  0.00     0.032 A 
ENDBRANCH  21  25
ENDBRANCH   3  19
TORSDOF 5
ENDMDL
MODEL 4
REMARK VINA RESULT:      -8.9      5.516      8.535
REMARK  5 active torsions:
REMARK  status: ('A' for Active; 'I' for Inactive)
REMARK    1  A    between atoms: C_3  and  N_4 
REMARK       I    between atoms: N_4  and  C_5 
REMARK    2  A    between atoms: C_5  and  C_6 
REMARK    3  A    between atoms: C_6  and  C_7 
REMARK    4  A    between atoms: C_9  and  N_10 
REMARK       I    between atoms: N_10  and  C_11 
REMARK       I    between atoms: C_11  and  N_12 
REMARK    5  A    between atoms: N_12  and  C_13 
ROOT
HETATM    1  C   UNL     1      41.617 -14.665   4.476  1.00  0.00     0.052 A 
HETATM    2  N   UNL     1      41.817 -14.667   3.099  1.00  0.00    -0.228 NA
HETATM    3  C   UNL     1      40.916 -13.908   2.518  1.00  0.00     0.174 A 
HETATM    4  S   UNL     1      39.831 -13.109   3.558  1.00  0.00    -0.062 SA
HETATM    5  C   UNL     1      40.574 -13.867   4.904  1.00  0.00     0.081 A 
ENDROOT
BRANCH   1   6
HETATM    6  C   UNL     1      42.481 -15.553   5.313  1.00  0.00     0.163 C 
BRANCH   6   7
HETATM    7  C   UNL     1      42.394 -17.018   4.891  1.00  0.00     0.227 C 
HETATM    8  N   UNL     1      43.554 -17.505   4.321  1.00  0.00    -0.326 N 
HETATM    9  H   UNL     1      44.370 -16.915   4.479  1.00  0.00     0.169 HD
HETATM   10  O   UNL     1      41.388 -17.669   5.159  1.00  0.00    -0.273 OA
BRANCH   8  11
HETATM   11  C   UNL     1      43.815 -18.728   3.665  1.00  0.00     0.042 A 
HETATM   12  C   UNL     1      43.698 -18.992   2.288  1.00  0.00    -0.035 A 
HETATM   13  C   UNL     1      43.310 -17.982   1.246  1.00  0.00     0.050 C 
HETATM   14  C   UNL     1      44.002 -20.288   1.815  1.00  0.00     0.011 A 
HETATM   15  C   UNL     1      44.464 -21.288   2.670  1.00  0.00     0.024 A 
HETATM   16  C   UNL     1      44.626 -21.005   4.016  1.00  0.00     0.036 A 
HETATM   17  C   UNL     1      44.309 -19.740   4.510  1.00  0.00     0.053 A 
HETATM   18 CL   UNL     1      45.220 -22.217   5.083  1.00  0.00    -0.084 Cl
ENDBRANCH   8  11
ENDBRANCH   6   7
ENDBRANCH   1   6
BRANCH   3  19
HETATM   19  N   UNL     1      40.906 -13.737   1.160  1.00  0.00    -0.287 N 
HETATM   20  C   UNL     1      41.730 -12.922   0.441  1.00  0.00     0.326 C 
HETATM   21  N   UNL     1      41.518 -12.907  -0.915  1.00  0.00    -0.309 N 
HETATM   22  O   UNL     1      42.555 -12.136   0.899  1.00  0.00    -0.247 OA
HETATM   23  H   UNL     1      41.928 -12.086  -1.345  1.00  0.00     0.170 HD
HETATM   24  H   UNL     1      40.030 -13.987   0.728  1.00  0.00     0.172 HD
BRANCH  21  25
HETATM   25  C   UNL     1      40.897 -13.833  -1.772  1.00  0.00     0.036 A 
HETATM   26  C   UNL     1      39.827 -13.368  -2.548  1.00  0.00     0.032 A 
HETATM   27  C   UNL     1      39.166 -14.228  -3.428  1.00  0.00     0.044 A 
HETATM   28  C   UNL     1      39.595 -15.542  -3.554  1.00  0.00     0.116 A 
HETATM   29  F   UNL     1      38.968 -16.364  -4.404  1.00  0.00    -0.206 F 
HETATM   30  C   UNL     1      40.676 -16.010  -2.818  1.00  0.00     0.044 A 
HETATM   31  C   UNL     1      41.332 -15.154  -1.928  1.00  0.00     0.032 A 
ENDBRANCH  21  25
ENDBRANCH   3  19
TORSDOF 5
ENDMDL
MODEL 5
REMARK VINA RESULT:      -8.8      5.719      8.648
REMARK  5 active torsions:
REMARK  status: ('A' for Active; 'I' for Inactive)
REMARK    1  A    between atoms: C_3  and  N_4 
REMARK       I    between atoms: N_4  and  C_5 
REMARK    2  A    between atoms: C_5  and  C_6 
REMARK    3  A    between atoms: C_6  and  C_7 
REMARK    4  A    between atoms: C_9  and  N_10 
REMARK       I    between atoms: N_10  and  C_11 
REMARK       I    between atoms: C_11  and  N_12 
REMARK    5  A    between atoms: N_12  and  C_13 
ROOT
HETATM    1  C   UNL     1      41.234 -14.202   4.283  1.00  0.00     0.052 A 
HETATM    2  N   UNL     1      42.203 -15.130   3.914  1.00  0.00    -0.228 NA
HETATM    3  C   UNL     1      42.161 -16.163   4.725  1.00  0.00     0.174 A 
HETATM    4  S   UNL     1      40.948 -16.125   5.918  1.00  0.00    -0.062 SA
HETATM    5  C   UNL     1      40.456 -14.581   5.359  1.00  0.00     0.081 A 
ENDROOT
BRANCH   1   6
HETATM    6  C   UNL     1      41.186 -12.904   3.543  1.00  0.00     0.163 C 
BRANCH   6   7
HETATM    7  C   UNL     1      41.524 -13.063   2.063  1.00  0.00     0.227 C 
HETATM    8  N   UNL     1      40.617 -13.834   1.361  1.00  0.00    -0.326 N 
HETATM    9  H   UNL     1      39.737 -13.984   1.853  1.00  0.00     0.169 HD
HETATM   10  O   UNL     1      42.474 -12.449   1.586  1.00  0.00    -0.273 OA
BRANCH   8  11
HETATM   11  C   UNL     1      40.664 -14.343   0.046  1.00  0.00     0.042 A 
HETATM   12  C   UNL     1      41.187 -15.584  -0.364  1.00  0.00    -0.035 A 
HETATM   13  C   UNL     1      41.757 -16.626   0.555  1.00  0.00     0.050 C 
HETATM   14  C   UNL     1      41.147 -15.919  -1.737  1.00  0.00     0.011 A 
HETATM   15  C   UNL     1      40.558 -15.077  -2.678  1.00  0.00     0.024 A 
HETATM   16  C   UNL     1      39.999 -13.881  -2.258  1.00  0.00     0.036 A 
HETATM   17  C   UNL     1      40.047 -13.517  -0.914  1.00  0.00     0.053 A 
HETATM   18 CL   UNL     1      39.242 -12.839  -3.400  1.00  0.00    -0.084 Cl
ENDBRANCH   8  11
ENDBRANCH   6   7
ENDBRANCH   1   6
BRANCH   3  19
HETATM   19  N   UNL     1      43.014 -17.222   4.563  1.00  0.00    -0.287 N 
HETATM   20  C   UNL     1      43.924 -17.672   5.474  1.00  0.00     0.326 C 
HETATM   21  N   UNL     1      44.681 -18.747   5.077  1.00  0.00    -0.309 N 
HETATM   22  O   UNL     1      44.196 -17.148   6.551  1.00  0.00    -0.247 OA
HETATM   23  H   UNL     1      45.519 -18.837   5.640  1.00  0.00     0.170 HD
HETATM   24  H   UNL     1      43.185 -17.459   3.599  1.00  0.00     0.172 HD
BRANCH  21  25
HETATM   25  C   UNL     1      44.465 -19.727   4.093  1.00  0.00     0.036 A 
HETATM   26  C   UNL     1      43.984 -19.292   2.851  1.00  0.00     0.032 A 
HETATM   27  C   UNL     1      43.753 -20.207   1.822  1.00  0.00     0.044 A 
HETATM   28  C   UNL     1      44.031 -21.552   2.026  1.00  0.00     0.116 A 
HETATM   29  F   UNL     1      43.818 -22.429   1.037  1.00  0.00    -0.206 F 
HETATM   30  C   UNL     1      44.540 -21.996   3.239  1.00  0.00     0.044 A 
HETATM   31  C   UNL     1      44.762 -21.083   4.275  1.00  0.00     0.032 A 
ENDBRANCH  21  25
ENDBRANCH   3  19
TORSDOF 5
ENDMDL
MODEL 6
REMARK VINA RESULT:      -8.7      1.981      2.263
REMARK  5 active torsions:
REMARK  status: ('A' for Active; 'I' for Inactive)
REMARK    1  A    between atoms: C_3  and  N_4 
REMARK       I    between atoms: N_4  and  C_5 
REMARK    2  A    between atoms: C_5  and  C_6 
REMARK    3  A    between atoms: C_6  and  C_7 
REMARK    4  A    between atoms: C_9  and  N_10 
REMARK       I    between atoms: N_10  and  C_11 
REMARK       I    between atoms: C_11  and  N_12 
REMARK    5  A    between atoms: N_12  and  C_13 
ROOT
HETATM    1  C   UNL     1      41.202 -14.236   4.300  1.00  0.00     0.052 A 
HETATM    2  N   UNL     1      41.929 -13.492   5.223  1.00  0.00    -0.228 NA
HETATM    3  C   UNL     1      41.112 -12.762   5.949  1.00  0.00     0.174 A 
HETATM    4  S   UNL     1      39.452 -12.959   5.628  1.00  0.00    -0.062 SA
HETATM    5  C   UNL     1      39.832 -14.069   4.378  1.00  0.00     0.081 A 
ENDROOT
BRANCH   1   6
HETATM    6  C   UNL     1      41.958 -15.059   3.308  1.00  0.00     0.163 C 
BRANCH   6   7
HETATM    7  C   UNL     1      42.114 -16.512   3.752  1.00  0.00     0.227 C 
HETATM    8  N   UNL     1      43.421 -16.960   3.753  1.00  0.00    -0.326 N 
HETATM    9  H   UNL     1      44.112 -16.212   3.699  1.00  0.00     0.169 HD
HETATM   10  O   UNL     1      41.135 -17.133   4.156  1.00  0.00    -0.273 OA
BRANCH   8  11
HETATM   11  C   UNL     1      43.951 -18.256   3.933  1.00  0.00     0.042 A 
HETATM   12  C   UNL     1      44.613 -18.749   5.073  1.00  0.00    -0.035 A 
HETATM   13  C   UNL     1      44.833 -17.979   6.344  1.00  0.00     0.050 C 
HETATM   14  C   UNL     1      45.079 -20.083   5.065  1.00  0.00     0.011 A 
HETATM   15  C   UNL     1      44.853 -20.930   3.981  1.00  0.00     0.024 A 
HETATM   16  C   UNL     1      44.155 -20.451   2.884  1.00  0.00     0.036 A 
HETATM   17  C   UNL     1      43.706 -19.132   2.859  1.00  0.00     0.053 A 
HETATM   18 CL   UNL     1      43.842 -21.488   1.547  1.00  0.00    -0.084 Cl
ENDBRANCH   8  11
ENDBRANCH   6   7
ENDBRANCH   1   6
BRANCH   3  19
HETATM   19  N   UNL     1      41.586 -11.944   6.940  1.00  0.00    -0.287 N 
HETATM   20  C   UNL     1      41.616 -10.581   6.917  1.00  0.00     0.326 C 
HETATM   21  N   UNL     1      42.156  -9.979   8.026  1.00  0.00    -0.309 N 
HETATM   22  O   UNL     1      41.310  -9.863   5.968  1.00  0.00    -0.247 OA
HETATM   23  H   UNL     1      42.431  -9.023   7.831  1.00  0.00     0.170 HD
HETATM   24  H   UNL     1      42.234 -12.399   7.563  1.00  0.00     0.172 HD
BRANCH  21  25
HETATM   25  C   UNL     1      42.332 -10.438   9.343  1.00  0.00     0.036 A 
HETATM   26  C   UNL     1      43.645 -10.689   9.763  1.00  0.00     0.032 A 
HETATM   27  C   UNL     1      43.899 -11.139  11.060  1.00  0.00     0.044 A 
HETATM   28  C   UNL     1      42.843 -11.309  11.945  1.00  0.00     0.116 A 
HETATM   29  F   UNL     1      43.087 -11.731  13.192  1.00  0.00    -0.206 F 
HETATM   30  C   UNL     1      41.539 -11.031  11.557  1.00  0.00     0.044 A 
HETATM   31  C   UNL     1      41.281 -10.591  10.255  1.00  0.00     0.032 A 
ENDBRANCH  21  25
ENDBRANCH   3  19
TORSDOF 5
ENDMDL
MODEL 7
REMARK VINA RESULT:      -8.6      2.338      3.179
REMARK  5 active torsions:
REMARK  status: ('A' for Active; 'I' for Inactive)
REMARK    1  A    between atoms: C_3  and  N_4 
REMARK       I    between atoms: N_4  and  C_5 
REMARK    2  A    between atoms: C_5  and  C_6 
REMARK    3  A    between atoms: C_6  and  C_7 
REMARK    4  A    between atoms: C_9  and  N_10 
REMARK       I    between atoms: N_10  and  C_11 
REMARK       I    between atoms: C_11  and  N_12 
REMARK    5  A    between atoms: N_12  and  C_13 
ROOT
HETATM    1  C   UNL     1      43.366 -13.767   5.855  1.00  0.00     0.052 A 
HETATM    2  N   UNL     1      42.760 -12.809   6.661  1.00  0.00    -0.228 NA
HETATM    3  C   UNL     1      43.528 -12.547   7.694  1.00  0.00     0.174 A 
HETATM    4  S   UNL     1      45.020 -13.364   7.740  1.00  0.00    -0.062 SA
HETATM    5  C   UNL     1      44.608 -14.185   6.293  1.00  0.00     0.081 A 
ENDROOT
BRANCH   1   6
HETATM    6  C   UNL     1      42.603 -14.278   4.675  1.00  0.00     0.163 C 
BRANCH   6   7
HETATM    7  C   UNL     1      42.544 -15.803   4.634  1.00  0.00     0.227 C 
HETATM    8  N   UNL     1      43.508 -16.380   3.831  1.00  0.00    -0.326 N 
HETATM    9  H   UNL     1      44.265 -15.746   3.577  1.00  0.00     0.169 HD
HETATM   10  O   UNL     1      41.749 -16.401   5.355  1.00  0.00    -0.273 OA
BRANCH   8  11
HETATM   11  C   UNL     1      43.677 -17.716   3.407  1.00  0.00     0.042 A 
HETATM   12  C   UNL     1      43.588 -18.203   2.090  1.00  0.00    -0.035 A 
HETATM   13  C   UNL     1      43.340 -17.360   0.872  1.00  0.00     0.050 C 
HETATM   14  C   UNL     1      43.786 -19.584   1.860  1.00  0.00     0.011 A 
HETATM   15  C   UNL     1      44.117 -20.456   2.896  1.00  0.00     0.024 A 
HETATM   16  C   UNL     1      44.253 -19.959   4.181  1.00  0.00     0.036 A 
HETATM   17  C   UNL     1      44.040 -18.605   4.436  1.00  0.00     0.053 A 
HETATM   18 CL   UNL     1      44.687 -21.014   5.469  1.00  0.00    -0.084 Cl
ENDBRANCH   8  11
ENDBRANCH   6   7
ENDBRANCH   1   6
BRANCH   3  19
HETATM   19  N   UNL     1      43.156 -11.625   8.635  1.00  0.00    -0.287 N 
HETATM   20  C   UNL     1      42.389 -10.517   8.422  1.00  0.00     0.326 C 
HETATM   21  N   UNL     1      42.161  -9.730   9.524  1.00  0.00    -0.309 N 
HETATM   22  O   UNL     1      41.983 -10.112   7.336  1.00  0.00    -0.247 OA
HETATM   23  H   UNL     1      41.866  -8.798   9.257  1.00  0.00     0.170 HD
HETATM   24  H   UNL     1      43.755 -11.609   9.445  1.00  0.00     0.172 HD
BRANCH  21  25
HETATM   25  C   UNL     1      42.220 -10.012  10.899  1.00  0.00     0.036 A 
HETATM   26  C   UNL     1      43.318  -9.510  11.610  1.00  0.00     0.032 A 
HETATM   27  C   UNL     1      43.440  -9.743  12.981  1.00  0.00     0.044 A 
HETATM   28  C   UNL     1      42.449 -10.452  13.646  1.00  0.00     0.116 A 
HETATM   29  F   UNL     1      42.561 -10.667  14.963  1.00  0.00    -0.206 F 
HETATM   30  C   UNL     1      41.336 -10.927  12.965  1.00  0.00     0.044 A 
HETATM   31  C   UNL     1      41.218 -10.705  11.590  1.00  0.00     0.032 A 
ENDBRANCH  21  25
ENDBRANCH   3  19
TORSDOF 5
ENDMDL
MODEL 8
REMARK VINA RESULT:      -8.6      4.644      9.120
REMARK  5 active torsions:
REMARK  status: ('A' for Active; 'I' for Inactive)
REMARK    1  A    between atoms: C_3  and  N_4 
REMARK       I    between atoms: N_4  and  C_5 
REMARK    2  A    between atoms: C_5  and  C_6 
REMARK    3  A    between atoms: C_6  and  C_7 
REMARK    4  A    between atoms: C_9  and  N_10 
REMARK       I    between atoms: N_10  and  C_11 
REMARK       I    between atoms: C_11  and  N_12 
REMARK    5  A    between atoms: N_12  and  C_13 
ROOT
HETATM    1  C   UNL     1      40.802 -11.478   5.313  1.00  0.00     0.052 A 
HETATM    2  N   UNL     1      40.811 -12.866   5.397  1.00  0.00    -0.228 NA
HETATM    3  C   UNL     1      41.059 -13.382   4.215  1.00  0.00     0.174 A 
HETATM    4  S   UNL     1      41.356 -12.268   2.963  1.00  0.00    -0.062 SA
HETATM    5  C   UNL     1      41.081 -10.977   4.056  1.00  0.00     0.081 A 
ENDROOT
BRANCH   1   6
HETATM    6  C   UNL     1      40.436 -10.701   6.537  1.00  0.00     0.163 C 
BRANCH   6   7
HETATM    7  C   UNL     1      41.656 -10.315   7.370  1.00  0.00     0.227 C 
HETATM    8  N   UNL     1      42.228 -11.374   8.048  1.00  0.00    -0.326 N 
HETATM    9  H   UNL     1      41.923 -12.288   7.716  1.00  0.00     0.169 HD
HETATM   10  O   UNL     1      42.094  -9.169   7.314  1.00  0.00    -0.273 OA
BRANCH   8  11
HETATM   11  C   UNL     1      43.241 -11.399   9.031  1.00  0.00     0.042 A 
HETATM   12  C   UNL     1      44.461 -12.100   8.972  1.00  0.00    -0.035 A 
HETATM   13  C   UNL     1      44.927 -12.924   7.805  1.00  0.00     0.050 C 
HETATM   14  C   UNL     1      45.354 -12.005  10.063  1.00  0.00     0.011 A 
HETATM   15  C   UNL     1      45.078 -11.197  11.164  1.00  0.00     0.024 A 
HETATM   16  C   UNL     1      43.899 -10.470  11.191  1.00  0.00     0.036 A 
HETATM   17  C   UNL     1      42.991 -10.566  10.137  1.00  0.00     0.053 A 
HETATM   18 CL   UNL     1      43.551  -9.445  12.529  1.00  0.00    -0.084 Cl
ENDBRANCH   8  11
ENDBRANCH   6   7
ENDBRANCH   1   6
BRANCH   3  19
HETATM   19  N   UNL     1      41.130 -14.738   4.037  1.00  0.00    -0.287 N 
HETATM   20  C   UNL     1      40.352 -15.485   3.202  1.00  0.00     0.326 C 
HETATM   21  N   UNL     1      40.600 -16.835   3.206  1.00  0.00    -0.309 N 
HETATM   22  O   UNL     1      39.398 -15.081   2.542  1.00  0.00    -0.247 OA
HETATM   23  H   UNL     1      39.819 -17.356   2.824  1.00  0.00     0.170 HD
HETATM   24  H   UNL     1      41.562 -15.225   4.806  1.00  0.00     0.172 HD
BRANCH  21  25
HETATM   25  C   UNL     1      41.733 -17.574   3.591  1.00  0.00     0.036 A 
HETATM   26  C   UNL     1      42.717 -17.790   2.617  1.00  0.00     0.032 A 
HETATM   27  C   UNL     1      43.874 -18.507   2.928  1.00  0.00     0.044 A 
HETATM   28  C   UNL     1      44.059 -18.982   4.219  1.00  0.00     0.116 A 
HETATM   29  F   UNL     1      45.173 -19.662   4.520  1.00  0.00    -0.206 F 
HETATM   30  C   UNL     1      43.110 -18.747   5.205  1.00  0.00     0.044 A 
HETATM   31  C   UNL     1      41.946 -18.039   4.894  1.00  0.00     0.032 A 
ENDBRANCH  21  25
ENDBRANCH   3  19
TORSDOF 5
ENDMDL
MODEL 9
REMARK VINA RESULT:      -8.3      5.604      8.848
REMARK  5 active torsions:
REMARK  status: ('A' for Active; 'I' for Inactive)
REMARK    1  A    between atoms: C_3  and  N_4 
REMARK       I    between atoms: N_4  and  C_5 
REMARK    2  A    between atoms: C_5  and  C_6 
REMARK    3  A    between atoms: C_6  and  C_7 
REMARK    4  A    between atoms: C_9  and  N_10 
REMARK       I    between atoms: N_10  and  C_11 
REMARK       I    between atoms: C_11  and  N_12 
REMARK    5  A    between atoms: N_12  and  C_13 
ROOT
HETATM    1  C   UNL     1      41.469 -13.458   3.602  1.00  0.00     0.052 A 
HETATM    2  N   UNL     1      42.435 -14.444   3.431  1.00  0.00    -0.228 NA
HETATM    3  C   UNL     1      42.108 -15.511   4.123  1.00  0.00     0.174 A 
HETATM    4  S   UNL     1      40.626 -15.434   4.957  1.00  0.00    -0.062 SA
HETATM    5  C   UNL     1      40.407 -13.826   4.405  1.00  0.00     0.081 A 
ENDROOT
BRANCH   1   6
HETATM    6  C   UNL     1      41.709 -12.122   2.974  1.00  0.00     0.163 C 
BRANCH   6   7
HETATM    7  C   UNL     1      41.231 -12.064   1.525  1.00  0.00     0.227 C 
HETATM    8  N   UNL     1      41.891 -12.938   0.682  1.00  0.00    -0.326 N 
HETATM    9  H   UNL     1      42.419 -13.660   1.170  1.00  0.00     0.169 HD
HETATM   10  O   UNL     1      40.272 -11.356   1.228  1.00  0.00    -0.273 OA
BRANCH   8  11
HETATM   11  C   UNL     1      41.858 -13.064  -0.723  1.00  0.00     0.042 A 
HETATM   12  C   UNL     1      42.402 -12.172  -1.666  1.00  0.00    -0.035 A 
HETATM   13  C   UNL     1      43.169 -10.924  -1.332  1.00  0.00     0.050 C 
HETATM   14  C   UNL     1      42.266 -12.468  -3.041  1.00  0.00     0.011 A 
HETATM   15  C   UNL     1      41.656 -13.643  -3.478  1.00  0.00     0.024 A 
HETATM   16  C   UNL     1      41.171 -14.541  -2.542  1.00  0.00     0.036 A 
HETATM   17  C   UNL     1      41.272 -14.259  -1.181  1.00  0.00     0.053 A 
HETATM   18 CL   UNL     1      40.439 -16.010  -3.060  1.00  0.00    -0.084 Cl
ENDBRANCH   8  11
ENDBRANCH   6   7
ENDBRANCH   1   6
BRANCH   3  19
HETATM   19  N   UNL     1      42.898 -16.630   4.113  1.00  0.00    -0.287 N 
HETATM   20  C   UNL     1      43.625 -17.115   5.159  1.00  0.00     0.326 C 
HETATM   21  N   UNL     1      44.356 -18.249   4.901  1.00  0.00    -0.309 N 
HETATM   22  O   UNL     1      43.768 -16.581   6.256  1.00  0.00    -0.247 OA
HETATM   23  H   UNL     1      45.090 -18.380   5.587  1.00  0.00     0.170 HD
HETATM   24  H   UNL     1      43.195 -16.905   3.190  1.00  0.00     0.172 HD
BRANCH  21  25
HETATM   25  C   UNL     1      44.222 -19.239   3.913  1.00  0.00     0.036 A 
HETATM   26  C   UNL     1      44.761 -20.502   4.195  1.00  0.00     0.032 A 
HETATM   27  C   UNL     1      44.659 -21.538   3.264  1.00  0.00     0.044 A 
HETATM   28  C   UNL     1      43.992 -21.320   2.066  1.00  0.00     0.116 A 
HETATM   29  F   UNL     1      43.886 -22.316   1.178  1.00  0.00    -0.206 F 
HETATM   30  C   UNL     1      43.422 -20.086   1.786  1.00  0.00     0.044 A 
HETATM   31  C   UNL     1      43.533 -19.043   2.710  1.00  0.00     0.032 A 
ENDBRANCH  21  25
ENDBRANCH   3  19
TORSDOF 5
ENDMDL
MODEL 10
REMARK VINA RESULT:      -8.2      2.208      2.994
REMARK  5 active torsions:
REMARK  status: ('A' for Active; 'I' for Inactive)
REMARK    1  A    between atoms: C_3  and  N_4 
REMARK       I    between atoms: N_4  and  C_5 
REMARK    2  A    between atoms: C_5  and  C_6 
REMARK    3  A    between atoms: C_6  and  C_7 
REMARK    4  A    between atoms: C_9  and  N_10 
REMARK       I    between atoms: N_10  and  C_11 
REMARK       I    between atoms: C_11  and  N_12 
REMARK    5  A    between atoms: N_12  and  C_13 
ROOT
HETATM    1  C   UNL     1      41.658 -11.962   5.120  1.00  0.00     0.052 A 
HETATM    2  N   UNL     1      42.092 -12.298   6.398  1.00  0.00    -0.228 NA
HETATM    3  C   UNL     1      42.056 -11.237   7.173  1.00  0.00     0.174 A 
HETATM    4  S   UNL     1      41.455  -9.813   6.459  1.00  0.00    -0.062 SA
HETATM    5  C   UNL     1      41.270 -10.644   4.972  1.00  0.00     0.081 A 
ENDROOT
BRANCH   1   6
HETATM    6  C   UNL     1      41.720 -13.012   4.058  1.00  0.00     0.163 C 
BRANCH   6   7
HETATM    7  C   UNL     1      42.910 -13.952   4.236  1.00  0.00     0.227 C 
HETATM    8  N   UNL     1      42.561 -15.228   4.634  1.00  0.00    -0.326 N 
HETATM    9  H   UNL     1      41.570 -15.438   4.519  1.00  0.00     0.169 HD
HETATM   10  O   UNL     1      44.038 -13.570   3.936  1.00  0.00    -0.273 OA
BRANCH   8  11
HETATM   11  C   UNL     1      43.359 -16.312   5.058  1.00  0.00     0.042 A 
HETATM   12  C   UNL     1      44.020 -16.445   6.293  1.00  0.00    -0.035 A 
HETATM   13  C   UNL     1      43.951 -15.453   7.420  1.00  0.00     0.050 C 
HETATM   14  C   UNL     1      44.782 -17.611   6.537  1.00  0.00     0.011 A 
HETATM   15  C   UNL     1      44.848 -18.647   5.607  1.00  0.00     0.024 A 
HETATM   16  C   UNL     1      44.151 -18.531   4.415  1.00  0.00     0.036 A 
HETATM   17  C   UNL     1      43.413 -17.381   4.142  1.00  0.00     0.053 A 
HETATM   18 CL   UNL     1      44.198 -19.811   3.265  1.00  0.00    -0.084 Cl
ENDBRANCH   8  11
ENDBRANCH   6   7
ENDBRANCH   1   6
BRANCH   3  19
HETATM   19  N   UNL     1      42.429 -11.310   8.488  1.00  0.00    -0.287 N 
HETATM   20  C   UNL     1      43.628 -11.752   8.965  1.00  0.00     0.326 C 
HETATM   21  N   UNL     1      43.763 -11.746  10.332  1.00  0.00    -0.309 N 
HETATM   22  O   UNL     1      44.537 -12.245   8.303  1.00  0.00    -0.247 OA
HETATM   23  H   UNL     1      44.518 -12.353  10.631  1.00  0.00     0.170 HD
HETATM   24  H   UNL     1      41.650 -11.340   9.127  1.00  0.00     0.172 HD
BRANCH  21  25
HETATM   25  C   UNL     1      43.087 -11.027  11.332  1.00  0.00     0.036 A 
HETATM   26  C   UNL     1      41.738 -11.341  11.545  1.00  0.00     0.032 A 
HETATM   27  C   UNL     1      41.003 -10.674  12.528  1.00  0.00     0.044 A 
HETATM   28  C   UNL     1      41.626  -9.717  13.317  1.00  0.00     0.116 A 
HETATM   29  F   UNL     1      40.925  -9.084  14.266  1.00  0.00    -0.206 F 
HETATM   30  C   UNL     1      42.971  -9.419  13.144  1.00  0.00     0.044 A 
HETATM   31  C   UNL     1      43.706 -10.076  12.153  1.00  0.00     0.032 A 
ENDBRANCH  21  25
ENDBRANCH   3  19
TORSDOF 5
ENDMDL
