MODEL 1
REMARK VINA RESULT:      -9.1      0.000      0.000
REMARK  6 active torsions:
REMARK  status: ('A' for Active; 'I' for Inactive)
REMARK    1  A    between atoms: C_3  and  C_4 
REMARK    2  A    between atoms: C_4  and  N_5 
REMARK    3  A    between atoms: C_4  and  C_9 
REMARK       I    between atoms: N_5  and  C_6 
REMARK       I    between atoms: C_6  and  N_7 
REMARK    4  A    between atoms: C_9  and  C_10 
REMARK       I    between atoms: C_10  and  N_11 
REMARK    5  A    between atoms: N_11  and  C_12 
REMARK    6  A    between atoms: C_14  and  C_15 
ROOT
HETATM    1  C   UNL     1      43.764 -17.417   1.503  1.00  0.00     0.133 C 
ENDROOT
BRANCH   1   2
HETATM    2  C   UNL     1      43.542 -17.961   2.918  1.00  0.00     0.128 C 
BRANCH   2   3
HETATM    3  C   UNL     1      43.861 -19.456   2.978  1.00  0.00    -0.029 A 
HETATM    4  C   UNL     1      44.493 -20.031   4.108  1.00  0.00    -0.054 A 
HETATM    5  C   UNL     1      44.872 -19.217   5.318  1.00  0.00     0.049 C 
HETATM    6  C   UNL     1      44.783 -21.406   4.115  1.00  0.00     0.007 A 
HETATM    7  C   UNL     1      44.470 -22.211   3.021  1.00  0.00     0.001 A 
HETATM    8  C   UNL     1      43.870 -21.650   1.901  1.00  0.00     0.001 A 
HETATM    9  C   UNL     1      43.576 -20.286   1.876  1.00  0.00     0.010 A 
ENDBRANCH   2   3
BRANCH   2  10
HETATM   10  N   UNL     1      42.242 -17.653   3.524  1.00  0.00    -0.334 N 
HETATM   11  C   UNL     1      42.010 -16.828   4.576  1.00  0.00     0.314 C 
HETATM   12  N   UNL     1      40.690 -16.730   4.875  1.00  0.00    -0.352 N 
HETATM   13  O   UNL     1      42.851 -16.224   5.224  1.00  0.00    -0.248 OA
HETATM   14  H   UNL     1      40.032 -16.757   4.109  1.00  0.00     0.160 HD
HETATM   15  H   UNL     1      40.484 -16.044   5.590  1.00  0.00     0.160 HD
HETATM   16  H   UNL     1      41.460 -18.198   3.197  1.00  0.00     0.165 HD
ENDBRANCH   2  10
ENDBRANCH   1   2
BRANCH   1  17
HETATM   17  C   UNL     1      42.455 -16.933   0.914  1.00  0.00     0.224 C 
HETATM   18  N   UNL     1      42.513 -15.627   0.467  1.00  0.00    -0.327 N 
HETATM   19  H   UNL     1      43.425 -15.183   0.494  1.00  0.00     0.169 HD
HETATM   20  O   UNL     1      41.466 -17.660   0.920  1.00  0.00    -0.273 OA
BRANCH  18  21
HETATM   21  C   UNL     1      41.465 -14.854  -0.074  1.00  0.00     0.035 A 
HETATM   22  C   UNL     1      40.735 -15.211  -1.212  1.00  0.00     0.042 A 
HETATM   23  C   UNL     1      39.699 -14.395  -1.702  1.00  0.00    -0.021 A 
HETATM   24  C   UNL     1      39.392 -13.215  -1.011  1.00  0.00     0.012 A 
HETATM   25  C   UNL     1      40.115 -12.848   0.123  1.00  0.00     0.003 A 
HETATM   26  C   UNL     1      41.153 -13.659   0.584  1.00  0.00     0.029 A 
BRANCH  23  27
HETATM   27  C   UNL     1      38.972 -14.782  -2.904  1.00  0.00     0.010 A 
HETATM   28  C   UNL     1      37.643 -14.508  -3.312  1.00  0.00     0.152 A 
HETATM   29  N   UNL     1      37.332 -15.063  -4.487  1.00  0.00    -0.187 NA
HETATM   30  N   UNL     1      38.458 -15.703  -4.836  1.00  0.00    -0.289 N 
HETATM   31  H   UNL     1      38.467 -16.218  -5.709  1.00  0.00     0.188 HD
HETATM   32  C   UNL     1      39.466 -15.568  -3.925  1.00  0.00     0.123 A 
ENDBRANCH  23  27
ENDBRANCH  18  21
ENDBRANCH   1  17
TORSDOF 6
ENDMDL
MODEL 2
REMARK VINA RESULT:      -8.8      1.418      1.523
REMARK  6 active torsions:
REMARK  status: ('A' for Active; 'I' for Inactive)
REMARK    1  A    between atoms: C_3  and  C_4 
REMARK    2  A    between atoms: C_4  and  N_5 
REMARK    3  A    between atoms: C_4  and  C_9 
REMARK       I    between atoms: N_5  and  C_6 
REMARK       I    between atoms: C_6  and  N_7 
REMARK    4  A    between atoms: C_9  and  C_10 
REMARK       I    between atoms: C_10  and  N_11 
REMARK    5  A    between atoms: N_11  and  C_12 
REMARK    6  A    between atoms: C_14  and  C_15 
ROOT
HETATM    1  C   UNL     1      43.254 -17.479   1.455  1.00  0.00     0.133 C 
ENDROOT
BRANCH   1   2
HETATM    2  C   UNL     1      43.272 -18.007   2.894  1.00  0.00     0.128 C 
BRANCH   2   3
HETATM    3  C   UNL     1      43.705 -19.474   2.924  1.00  0.00    -0.029 A 
HETATM    4  C   UNL     1      44.449 -20.001   4.009  1.00  0.00    -0.054 A 
HETATM    5  C   UNL     1      44.842 -19.163   5.198  1.00  0.00     0.049 C 
HETATM    6  C   UNL     1      44.841 -21.351   3.989  1.00  0.00     0.007 A 
HETATM    7  C   UNL     1      44.520 -22.176   2.912  1.00  0.00     0.001 A 
HETATM    8  C   UNL     1      43.810 -21.660   1.835  1.00  0.00     0.001 A 
HETATM    9  C   UNL     1      43.414 -20.322   1.838  1.00  0.00     0.010 A 
ENDBRANCH   2   3
BRANCH   2  10
HETATM   10  N   UNL     1      42.052 -17.780   3.674  1.00  0.00    -0.334 N 
HETATM   11  C   UNL     1      41.865 -16.843   4.638  1.00  0.00     0.314 C 
HETATM   12  N   UNL     1      40.608 -16.869   5.147  1.00  0.00    -0.352 N 
HETATM   13  O   UNL     1      42.696 -16.047   5.047  1.00  0.00    -0.248 OA
HETATM   14  H   UNL     1      39.850 -17.095   4.519  1.00  0.00     0.160 HD
HETATM   15  H   UNL     1      40.415 -16.115   5.795  1.00  0.00     0.160 HD
HETATM   16  H   UNL     1      41.319 -18.463   3.561  1.00  0.00     0.165 HD
ENDBRANCH   2  10
ENDBRANCH   1   2
BRANCH   1  17
HETATM   17  C   UNL     1      41.843 -17.103   1.052  1.00  0.00     0.224 C 
HETATM   18  N   UNL     1      41.669 -15.741   0.898  1.00  0.00    -0.327 N 
HETATM   19  H   UNL     1      42.505 -15.170   0.976  1.00  0.00     0.169 HD
HETATM   20  O   UNL     1      40.976 -17.966   0.948  1.00  0.00    -0.273 OA
BRANCH  18  21
HETATM   21  C   UNL     1      40.477 -15.053   0.592  1.00  0.00     0.035 A 
HETATM   22  C   UNL     1      40.236 -14.408  -0.625  1.00  0.00     0.042 A 
HETATM   23  C   UNL     1      39.023 -13.738  -0.870  1.00  0.00    -0.021 A 
HETATM   24  C   UNL     1      38.041 -13.745   0.128  1.00  0.00     0.012 A 
HETATM   25  C   UNL     1      38.271 -14.383   1.346  1.00  0.00     0.003 A 
HETATM   26  C   UNL     1      39.487 -15.025   1.580  1.00  0.00     0.029 A 
BRANCH  23  27
HETATM   27  C   UNL     1      38.811 -13.054  -2.140  1.00  0.00     0.010 A 
HETATM   28  C   UNL     1      37.648 -12.460  -2.690  1.00  0.00     0.152 A 
HETATM   29  N   UNL     1      37.850 -11.943  -3.905  1.00  0.00    -0.187 NA
HETATM   30  N   UNL     1      39.142 -12.210  -4.145  1.00  0.00    -0.289 N 
HETATM   31  H   UNL     1      39.537 -11.915  -5.032  1.00  0.00     0.188 HD
HETATM   32  C   UNL     1      39.761 -12.872  -3.125  1.00  0.00     0.123 A 
ENDBRANCH  23  27
ENDBRANCH  18  21
ENDBRANCH   1  17
TORSDOF 6
ENDMDL
MODEL 3
REMARK VINA RESULT:      -8.7      2.251      3.199
REMARK  6 active torsions:
REMARK  status: ('A' for Active; 'I' for Inactive)
REMARK    1  A    between atoms: C_3  and  C_4 
REMARK    2  A    between atoms: C_4  and  N_5 
REMARK    3  A    between atoms: C_4  and  C_9 
REMARK       I    between atoms: N_5  and  C_6 
REMARK       I    between atoms: C_6  and  N_7 
REMARK    4  A    between atoms: C_9  and  C_10 
REMARK       I    between atoms: C_10  and  N_11 
REMARK    5  A    between atoms: N_11  and  C_12 
REMARK    6  A    between atoms: C_14  and  C_15 
ROOT
HETATM    1  C   UNL     1      41.400 -17.449   4.682  1.00  0.00     0.133 C 
ENDROOT
BRANCH   1   2
HETATM    2  C   UNL     1      42.904 -17.305   4.936  1.00  0.00     0.128 C 
BRANCH   2   3
HETATM    3  C   UNL     1      43.612 -18.650   4.764  1.00  0.00    -0.029 A 
HETATM    4  C   UNL     1      44.067 -19.087   3.496  1.00  0.00    -0.054 A 
HETATM    5  C   UNL     1      43.900 -18.255   2.250  1.00  0.00     0.049 C 
HETATM    6  C   UNL     1      44.698 -20.338   3.379  1.00  0.00     0.007 A 
HETATM    7  C   UNL     1      44.871 -21.161   4.491  1.00  0.00     0.001 A 
HETATM    8  C   UNL     1      44.407 -20.748   5.733  1.00  0.00     0.001 A 
HETATM    9  C   UNL     1      43.778 -19.511   5.867  1.00  0.00     0.010 A 
ENDBRANCH   2   3
BRANCH   2  10
HETATM   10  N   UNL     1      43.280 -16.644   6.190  1.00  0.00    -0.334 N 
HETATM   11  C   UNL     1      43.719 -15.369   6.338  1.00  0.00     0.314 C 
HETATM   12  N   UNL     1      43.951 -15.049   7.637  1.00  0.00    -0.352 N 
HETATM   13  O   UNL     1      43.911 -14.559   5.445  1.00  0.00    -0.248 OA
HETATM   14  H   UNL     1      43.342 -15.451   8.335  1.00  0.00     0.160 HD
HETATM   15  H   UNL     1      44.182 -14.075   7.781  1.00  0.00     0.160 HD
HETATM   16  H   UNL     1      43.324 -17.234   7.007  1.00  0.00     0.165 HD
ENDBRANCH   2  10
ENDBRANCH   1   2
BRANCH   1  17
HETATM   17  C   UNL     1      40.875 -16.242   3.932  1.00  0.00     0.224 C 
HETATM   18  N   UNL     1      40.525 -16.526   2.626  1.00  0.00    -0.327 N 
HETATM   19  H   UNL     1      40.567 -17.503   2.352  1.00  0.00     0.169 HD
HETATM   20  O   UNL     1      40.847 -15.140   4.473  1.00  0.00    -0.273 OA
BRANCH  18  21
HETATM   21  C   UNL     1      40.065 -15.628   1.642  1.00  0.00     0.035 A 
HETATM   22  C   UNL     1      40.817 -15.232   0.530  1.00  0.00     0.042 A 
HETATM   23  C   UNL     1      40.300 -14.331  -0.419  1.00  0.00    -0.021 A 
HETATM   24  C   UNL     1      38.997 -13.846  -0.242  1.00  0.00     0.012 A 
HETATM   25  C   UNL     1      38.240 -14.232   0.863  1.00  0.00     0.003 A 
HETATM   26  C   UNL     1      38.776 -15.110   1.806  1.00  0.00     0.029 A 
BRANCH  23  27
HETATM   27  C   UNL     1      41.116 -13.920  -1.554  1.00  0.00     0.010 A 
HETATM   28  C   UNL     1      42.223 -13.038  -1.629  1.00  0.00     0.152 A 
HETATM   29  N   UNL     1      42.698 -12.900  -2.870  1.00  0.00    -0.187 NA
HETATM   30  N   UNL     1      41.893 -13.686  -3.600  1.00  0.00    -0.289 N 
HETATM   31  H   UNL     1      42.054 -13.741  -4.600  1.00  0.00     0.188 HD
HETATM   32  C   UNL     1      40.932 -14.316  -2.863  1.00  0.00     0.123 A 
ENDBRANCH  23  27
ENDBRANCH  18  21
ENDBRANCH   1  17
TORSDOF 6
ENDMDL
MODEL 4
REMARK VINA RESULT:      -8.6      2.001      2.844
REMARK  6 active torsions:
REMARK  status: ('A' for Active; 'I' for Inactive)
REMARK    1  A    between atoms: C_3  and  C_4 
REMARK    2  A    between atoms: C_4  and  N_5 
REMARK    3  A    between atoms: C_4  and  C_9 
REMARK       I    between atoms: N_5  and  C_6 
REMARK       I    between atoms: C_6  and  N_7 
REMARK    4  A    between atoms: C_9  and  C_10 
REMARK       I    between atoms: C_10  and  N_11 
REMARK    5  A    between atoms: N_11  and  C_12 
REMARK    6  A    between atoms: C_14  and  C_15 
ROOT
HETATM    1  C   UNL     1      43.639 -17.450   1.378  1.00  0.00     0.133 C 
ENDROOT
BRANCH   1   2
HETATM    2  C   UNL     1      43.468 -17.962   2.812  1.00  0.00     0.128 C 
BRANCH   2   3
HETATM    3  C   UNL     1      43.805 -19.452   2.898  1.00  0.00    -0.029 A 
HETATM    4  C   UNL     1      44.477 -19.993   4.022  1.00  0.00    -0.054 A 
HETATM    5  C   UNL     1      44.883 -19.147   5.201  1.00  0.00     0.049 C 
HETATM    6  C   UNL     1      44.781 -21.365   4.052  1.00  0.00     0.007 A 
HETATM    7  C   UNL     1      44.444 -22.199   2.987  1.00  0.00     0.001 A 
HETATM    8  C   UNL     1      43.806 -21.670   1.873  1.00  0.00     0.001 A 
HETATM    9  C   UNL     1      43.497 -20.311   1.825  1.00  0.00     0.010 A 
ENDBRANCH   2   3
BRANCH   2  10
HETATM   10  N   UNL     1      42.187 -17.652   3.454  1.00  0.00    -0.334 N 
HETATM   11  C   UNL     1      41.981 -16.806   4.495  1.00  0.00     0.314 C 
HETATM   12  N   UNL     1      40.670 -16.712   4.834  1.00  0.00    -0.352 N 
HETATM   13  O   UNL     1      42.836 -16.181   5.102  1.00  0.00    -0.248 OA
HETATM   14  H   UNL     1      39.988 -16.763   4.091  1.00  0.00     0.160 HD
HETATM   15  H   UNL     1      40.481 -16.013   5.540  1.00  0.00     0.160 HD
HETATM   16  H   UNL     1      41.399 -18.211   3.164  1.00  0.00     0.165 HD
ENDBRANCH   2  10
ENDBRANCH   1   2
BRANCH   1  17
HETATM   17  C   UNL     1      42.294 -17.068   0.794  1.00  0.00     0.224 C 
HETATM   18  N   UNL     1      42.299 -15.821   0.198  1.00  0.00    -0.327 N 
HETATM   19  H   UNL     1      43.199 -15.356   0.136  1.00  0.00     0.169 HD
HETATM   20  O   UNL     1      41.326 -17.812   0.924  1.00  0.00    -0.273 OA
BRANCH  18  21
HETATM   21  C   UNL     1      41.210 -15.139  -0.382  1.00  0.00     0.035 A 
HETATM   22  C   UNL     1      40.388 -14.244   0.311  1.00  0.00     0.042 A 
HETATM   23  C   UNL     1      39.315 -13.593  -0.326  1.00  0.00    -0.021 A 
HETATM   24  C   UNL     1      39.093 -13.842  -1.687  1.00  0.00     0.012 A 
HETATM   25  C   UNL     1      39.905 -14.734  -2.387  1.00  0.00     0.003 A 
HETATM   26  C   UNL     1      40.951 -15.387  -1.734  1.00  0.00     0.029 A 
BRANCH  23  27
HETATM   27  C   UNL     1      38.462 -12.683   0.429  1.00  0.00     0.010 A 
HETATM   28  C   UNL     1      38.677 -12.021   1.663  1.00  0.00     0.152 A 
HETATM   29  N   UNL     1      37.635 -11.277   2.045  1.00  0.00    -0.187 NA
HETATM   30  N   UNL     1      36.743 -11.463   1.061  1.00  0.00    -0.289 N 
HETATM   31  H   UNL     1      35.846 -10.995   1.130  1.00  0.00     0.188 HD
HETATM   32  C   UNL     1      37.187 -12.295   0.073  1.00  0.00     0.123 A 
ENDBRANCH  23  27
ENDBRANCH  18  21
ENDBRANCH   1  17
TORSDOF 6
ENDMDL
MODEL 5
REMARK VINA RESULT:      -8.5      3.743      8.034
REMARK  6 active torsions:
REMARK  status: ('A' for Active; 'I' for Inactive)
REMARK    1  A    between atoms: C_3  and  C_4 
REMARK    2  A    between atoms: C_4  and  N_5 
REMARK    3  A    between atoms: C_4  and  C_9 
REMARK       I    between atoms: N_5  and  C_6 
REMARK       I    between atoms: C_6  and  N_7 
REMARK    4  A    between atoms: C_9  and  C_10 
REMARK       I    between atoms: C_10  and  N_11 
REMARK    5  A    between atoms: N_11  and  C_12 
REMARK    6  A    between atoms: C_14  and  C_15 
ROOT
HETATM    1  C   UNL     1      41.699 -12.953   3.156  1.00  0.00     0.133 C 
ENDROOT
BRANCH   1   2
HETATM    2  C   UNL     1      40.342 -13.475   3.641  1.00  0.00     0.128 C 
BRANCH   2   3
HETATM    3  C   UNL     1      39.273 -13.282   2.564  1.00  0.00    -0.029 A 
HETATM    4  C   UNL     1      38.877 -14.347   1.718  1.00  0.00    -0.054 A 
HETATM    5  C   UNL     1      39.466 -15.730   1.836  1.00  0.00     0.049 C 
HETATM    6  C   UNL     1      37.903 -14.122   0.730  1.00  0.00     0.007 A 
HETATM    7  C   UNL     1      37.330 -12.863   0.561  1.00  0.00     0.001 A 
HETATM    8  C   UNL     1      37.730 -11.809   1.372  1.00  0.00     0.001 A 
HETATM    9  C   UNL     1      38.696 -12.014   2.357  1.00  0.00     0.010 A 
ENDBRANCH   2   3
BRANCH   2  10
HETATM   10  N   UNL     1      39.898 -12.982   4.948  1.00  0.00    -0.334 N 
HETATM   11  C   UNL     1      39.951 -13.647   6.130  1.00  0.00     0.314 C 
HETATM   12  N   UNL     1      39.491 -12.900   7.165  1.00  0.00    -0.352 N 
HETATM   13  O   UNL     1      40.347 -14.789   6.303  1.00  0.00    -0.248 OA
HETATM   14  H   UNL     1      39.673 -11.907   7.145  1.00  0.00     0.160 HD
HETATM   15  H   UNL     1      39.614 -13.338   8.069  1.00  0.00     0.160 HD
HETATM   16  H   UNL     1      39.400 -12.105   4.946  1.00  0.00     0.165 HD
ENDBRANCH   2  10
ENDBRANCH   1   2
BRANCH   1  17
HETATM   17  C   UNL     1      42.790 -13.956   3.469  1.00  0.00     0.224 C 
HETATM   18  N   UNL     1      42.299 -15.161   3.935  1.00  0.00    -0.327 N 
HETATM   19  H   UNL     1      41.290 -15.269   3.925  1.00  0.00     0.169 HD
HETATM   20  O   UNL     1      43.972 -13.644   3.354  1.00  0.00    -0.273 OA
BRANCH  18  21
HETATM   21  C   UNL     1      43.036 -16.280   4.375  1.00  0.00     0.035 A 
HETATM   22  C   UNL     1      43.190 -17.456   3.633  1.00  0.00     0.042 A 
HETATM   23  C   UNL     1      43.940 -18.539   4.128  1.00  0.00    -0.021 A 
HETATM   24  C   UNL     1      44.555 -18.412   5.381  1.00  0.00     0.012 A 
HETATM   25  C   UNL     1      44.406 -17.244   6.129  1.00  0.00     0.003 A 
HETATM   26  C   UNL     1      43.642 -16.188   5.632  1.00  0.00     0.029 A 
BRANCH  23  27
HETATM   27  C   UNL     1      44.063 -19.760   3.342  1.00  0.00     0.010 A 
HETATM   28  C   UNL     1      43.519 -20.110   2.081  1.00  0.00     0.152 A 
HETATM   29  N   UNL     1      43.845 -21.346   1.696  1.00  0.00    -0.187 NA
HETATM   30  N   UNL     1      44.594 -21.801   2.711  1.00  0.00    -0.289 N 
HETATM   31  H   UNL     1      44.961 -22.744   2.653  1.00  0.00     0.188 HD
HETATM   32  C   UNL     1      44.753 -20.894   3.719  1.00  0.00     0.123 A 
ENDBRANCH  23  27
ENDBRANCH  18  21
ENDBRANCH   1  17
TORSDOF 6
ENDMDL
MODEL 6
REMARK VINA RESULT:      -8.4      1.725      2.508
REMARK  6 active torsions:
REMARK  status: ('A' for Active; 'I' for Inactive)
REMARK    1  A    between atoms: C_3  and  C_4 
REMARK    2  A    between atoms: C_4  and  N_5 
REMARK    3  A    between atoms: C_4  and  C_9 
REMARK       I    between atoms: N_5  and  C_6 
REMARK       I    between atoms: C_6  and  N_7 
REMARK    4  A    between atoms: C_9  and  C_10 
REMARK       I    between atoms: C_10  and  N_11 
REMARK    5  A    between atoms: N_11  and  C_12 
REMARK    6  A    between atoms: C_14  and  C_15 
ROOT
HETATM    1  C   UNL     1      41.423 -17.238   4.202  1.00  0.00     0.133 C 
ENDROOT
BRANCH   1   2
HETATM    2  C   UNL     1      42.928 -17.089   4.447  1.00  0.00     0.128 C 
BRANCH   2   3
HETATM    3  C   UNL     1      43.624 -18.450   4.376  1.00  0.00    -0.029 A 
HETATM    4  C   UNL     1      44.066 -18.989   3.143  1.00  0.00    -0.054 A 
HETATM    5  C   UNL     1      43.897 -18.254   1.837  1.00  0.00     0.049 C 
HETATM    6  C   UNL     1      44.686 -20.250   3.120  1.00  0.00     0.007 A 
HETATM    7  C   UNL     1      44.861 -20.986   4.291  1.00  0.00     0.001 A 
HETATM    8  C   UNL     1      44.409 -20.473   5.500  1.00  0.00     0.001 A 
HETATM    9  C   UNL     1      43.791 -19.224   5.542  1.00  0.00     0.010 A 
ENDBRANCH   2   3
BRANCH   2  10
HETATM   10  N   UNL     1      43.309 -16.342   5.650  1.00  0.00    -0.334 N 
HETATM   11  C   UNL     1      43.468 -14.998   5.757  1.00  0.00     0.314 C 
HETATM   12  N   UNL     1      43.791 -14.615   7.018  1.00  0.00    -0.352 N 
HETATM   13  O   UNL     1      43.354 -14.180   4.858  1.00  0.00    -0.248 OA
HETATM   14  H   UNL     1      43.385 -15.131   7.785  1.00  0.00     0.160 HD
HETATM   15  H   UNL     1      43.816 -13.611   7.144  1.00  0.00     0.160 HD
HETATM   16  H   UNL     1      43.591 -16.894   6.445  1.00  0.00     0.165 HD
ENDBRANCH   2  10
ENDBRANCH   1   2
BRANCH   1  17
HETATM   17  C   UNL     1      41.039 -16.593   2.887  1.00  0.00     0.224 C 
HETATM   18  N   UNL     1      41.797 -15.476   2.591  1.00  0.00    -0.327 N 
HETATM   19  H   UNL     1      42.567 -15.275   3.222  1.00  0.00     0.169 HD
HETATM   20  O   UNL     1      40.101 -17.033   2.229  1.00  0.00    -0.273 OA
BRANCH  18  21
HETATM   21  C   UNL     1      41.663 -14.610   1.486  1.00  0.00     0.035 A 
HETATM   22  C   UNL     1      41.100 -14.985   0.262  1.00  0.00     0.042 A 
HETATM   23  C   UNL     1      40.993 -14.073  -0.804  1.00  0.00    -0.021 A 
HETATM   24  C   UNL     1      41.445 -12.760  -0.610  1.00  0.00     0.012 A 
HETATM   25  C   UNL     1      42.009 -12.376   0.606  1.00  0.00     0.003 A 
HETATM   26  C   UNL     1      42.126 -13.300   1.645  1.00  0.00     0.029 A 
BRANCH  23  27
HETATM   27  C   UNL     1      40.424 -14.500  -2.076  1.00  0.00     0.010 A 
HETATM   28  C   UNL     1      40.790 -15.556  -2.947  1.00  0.00     0.152 A 
HETATM   29  N   UNL     1      40.030 -15.617  -4.043  1.00  0.00    -0.187 NA
HETATM   30  N   UNL     1      39.176 -14.595  -3.886  1.00  0.00    -0.289 N 
HETATM   31  H   UNL     1      38.488 -14.427  -4.612  1.00  0.00     0.188 HD
HETATM   32  C   UNL     1      39.370 -13.896  -2.729  1.00  0.00     0.123 A 
ENDBRANCH  23  27
ENDBRANCH  18  21
ENDBRANCH   1  17
TORSDOF 6
ENDMDL
MODEL 7
REMARK VINA RESULT:      -8.1      3.705      8.687
REMARK  6 active torsions:
REMARK  status: ('A' for Active; 'I' for Inactive)
REMARK    1  A    between atoms: C_3  and  C_4 
REMARK    2  A    between atoms: C_4  and  N_5 
REMARK    3  A    between atoms: C_4  and  C_9 
REMARK       I    between atoms: N_5  and  C_6 
REMARK       I    between atoms: C_6  and  N_7 
REMARK    4  A    between atoms: C_9  and  C_10 
REMARK       I    between atoms: C_10  and  N_11 
REMARK    5  A    between atoms: N_11  and  C_12 
REMARK    6  A    between atoms: C_14  and  C_15 
ROOT
HETATM    1  C   UNL     1      41.678 -12.880   3.102  1.00  0.00     0.133 C 
ENDROOT
BRANCH   1   2
HETATM    2  C   UNL     1      40.299 -13.394   3.529  1.00  0.00     0.128 C 
BRANCH   2   3
HETATM    3  C   UNL     1      39.233 -12.988   2.510  1.00  0.00    -0.029 A 
HETATM    4  C   UNL     1      38.628 -13.944   1.655  1.00  0.00    -0.054 A 
HETATM    5  C   UNL     1      38.981 -15.408   1.709  1.00  0.00     0.049 C 
HETATM    6  C   UNL     1      37.665 -13.526   0.721  1.00  0.00     0.007 A 
HETATM    7  C   UNL     1      37.304 -12.184   0.613  1.00  0.00     0.001 A 
HETATM    8  C   UNL     1      37.909 -11.239   1.432  1.00  0.00     0.001 A 
HETATM    9  C   UNL     1      38.868 -11.636   2.364  1.00  0.00     0.010 A 
ENDBRANCH   2   3
BRANCH   2  10
HETATM   10  N   UNL     1      39.893 -13.073   4.902  1.00  0.00    -0.334 N 
HETATM   11  C   UNL     1      40.081 -13.840   6.006  1.00  0.00     0.314 C 
HETATM   12  N   UNL     1      39.621 -13.243   7.134  1.00  0.00    -0.352 N 
HETATM   13  O   UNL     1      40.591 -14.949   6.041  1.00  0.00    -0.248 OA
HETATM   14  H   UNL     1      39.708 -12.239   7.204  1.00  0.00     0.160 HD
HETATM   15  H   UNL     1      39.840 -13.750   7.982  1.00  0.00     0.160 HD
HETATM   16  H   UNL     1      39.318 -12.253   5.015  1.00  0.00     0.165 HD
ENDBRANCH   2  10
ENDBRANCH   1   2
BRANCH   1  17
HETATM   17  C   UNL     1      42.699 -13.997   3.173  1.00  0.00     0.224 C 
HETATM   18  N   UNL     1      42.124 -15.251   3.241  1.00  0.00    -0.327 N 
HETATM   19  H   UNL     1      41.114 -15.289   3.143  1.00  0.00     0.169 HD
HETATM   20  O   UNL     1      43.898 -13.739   3.219  1.00  0.00    -0.273 OA
BRANCH  18  21
HETATM   21  C   UNL     1      42.778 -16.493   3.378  1.00  0.00     0.035 A 
HETATM   22  C   UNL     1      42.874 -17.198   4.583  1.00  0.00     0.042 A 
HETATM   23  C   UNL     1      43.541 -18.435   4.654  1.00  0.00    -0.021 A 
HETATM   24  C   UNL     1      44.095 -18.966   3.482  1.00  0.00     0.012 A 
HETATM   25  C   UNL     1      44.007 -18.270   2.277  1.00  0.00     0.003 A 
HETATM   26  C   UNL     1      43.360 -17.035   2.228  1.00  0.00     0.029 A 
BRANCH  23  27
HETATM   27  C   UNL     1      43.645 -19.135   5.929  1.00  0.00     0.010 A 
HETATM   28  C   UNL     1      43.773 -20.516   6.220  1.00  0.00     0.152 A 
HETATM   29  N   UNL     1      43.818 -20.770   7.531  1.00  0.00    -0.187 NA
HETATM   30  N   UNL     1      43.711 -19.555   8.088  1.00  0.00    -0.289 N 
HETATM   31  H   UNL     1      43.714 -19.489   9.100  1.00  0.00     0.188 HD
HETATM   32  C   UNL     1      43.604 -18.545   7.176  1.00  0.00     0.123 A 
ENDBRANCH  23  27
ENDBRANCH  18  21
ENDBRANCH   1  17
TORSDOF 6
ENDMDL
MODEL 8
REMARK VINA RESULT:      -8.1      2.510      8.698
REMARK  6 active torsions:
REMARK  status: ('A' for Active; 'I' for Inactive)
REMARK    1  A    between atoms: C_3  and  C_4 
REMARK    2  A    between atoms: C_4  and  N_5 
REMARK    3  A    between atoms: C_4  and  C_9 
REMARK       I    between atoms: N_5  and  C_6 
REMARK       I    between atoms: C_6  and  N_7 
REMARK    4  A    between atoms: C_9  and  C_10 
REMARK       I    between atoms: C_10  and  N_11 
REMARK    5  A    between atoms: N_11  and  C_12 
REMARK    6  A    between atoms: C_14  and  C_15 
ROOT
HETATM    1  C   UNL     1      39.889 -16.053   2.043  1.00  0.00     0.133 C 
ENDROOT
BRANCH   1   2
HETATM    2  C   UNL     1      40.297 -14.978   1.031  1.00  0.00     0.128 C 
BRANCH   2   3
HETATM    3  C   UNL     1      39.309 -13.810   1.057  1.00  0.00    -0.029 A 
HETATM    4  C   UNL     1      39.689 -12.533   1.541  1.00  0.00    -0.054 A 
HETATM    5  C   UNL     1      41.082 -12.244   2.039  1.00  0.00     0.049 C 
HETATM    6  C   UNL     1      38.746 -11.492   1.563  1.00  0.00     0.007 A 
HETATM    7  C   UNL     1      37.438 -11.699   1.128  1.00  0.00     0.001 A 
HETATM    8  C   UNL     1      37.053 -12.954   0.674  1.00  0.00     0.001 A 
HETATM    9  C   UNL     1      37.975 -13.999   0.646  1.00  0.00     0.010 A 
ENDBRANCH   2   3
BRANCH   2  10
HETATM   10  N   UNL     1      40.552 -15.449  -0.334  1.00  0.00    -0.334 N 
HETATM   11  C   UNL     1      41.301 -14.830  -1.282  1.00  0.00     0.314 C 
HETATM   12  N   UNL     1      41.369 -15.543  -2.434  1.00  0.00    -0.352 N 
HETATM   13  O   UNL     1      41.865 -13.752  -1.172  1.00  0.00    -0.248 OA
HETATM   14  H   UNL     1      41.389 -16.550  -2.363  1.00  0.00     0.160 HD
HETATM   15  H   UNL     1      42.003 -15.151  -3.119  1.00  0.00     0.160 HD
HETATM   16  H   UNL     1      40.025 -16.255  -0.631  1.00  0.00     0.165 HD
ENDBRANCH   2  10
ENDBRANCH   1   2
BRANCH   1  17
HETATM   17  C   UNL     1      41.045 -16.998   2.301  1.00  0.00     0.224 C 
HETATM   18  N   UNL     1      41.510 -16.941   3.601  1.00  0.00    -0.327 N 
HETATM   19  H   UNL     1      40.980 -16.360   4.243  1.00  0.00     0.169 HD
HETATM   20  O   UNL     1      41.510 -17.673   1.388  1.00  0.00    -0.273 OA
BRANCH  18  21
HETATM   21  C   UNL     1      42.604 -17.635   4.156  1.00  0.00     0.035 A 
HETATM   22  C   UNL     1      42.976 -18.932   3.789  1.00  0.00     0.042 A 
HETATM   23  C   UNL     1      44.081 -19.572   4.381  1.00  0.00    -0.021 A 
HETATM   24  C   UNL     1      44.825 -18.872   5.340  1.00  0.00     0.012 A 
HETATM   25  C   UNL     1      44.462 -17.579   5.715  1.00  0.00     0.003 A 
HETATM   26  C   UNL     1      43.352 -16.968   5.133  1.00  0.00     0.029 A 
BRANCH  23  27
HETATM   27  C   UNL     1      44.429 -20.933   3.994  1.00  0.00     0.010 A 
HETATM   28  C   UNL     1      44.414 -21.570   2.728  1.00  0.00     0.152 A 
HETATM   29  N   UNL     1      44.787 -22.852   2.784  1.00  0.00    -0.187 NA
HETATM   30  N   UNL     1      45.036 -23.047   4.087  1.00  0.00    -0.289 N 
HETATM   31  H   UNL     1      45.335 -23.968   4.386  1.00  0.00     0.188 HD
HETATM   32  C   UNL     1      44.837 -21.934   4.852  1.00  0.00     0.123 A 
ENDBRANCH  23  27
ENDBRANCH  18  21
ENDBRANCH   1  17
TORSDOF 6
ENDMDL
MODEL 9
REMARK VINA RESULT:      -8.0      2.654      8.557
REMARK  6 active torsions:
REMARK  status: ('A' for Active; 'I' for Inactive)
REMARK    1  A    between atoms: C_3  and  C_4 
REMARK    2  A    between atoms: C_4  and  N_5 
REMARK    3  A    between atoms: C_4  and  C_9 
REMARK       I    between atoms: N_5  and  C_6 
REMARK       I    between atoms: C_6  and  N_7 
REMARK    4  A    between atoms: C_9  and  C_10 
REMARK       I    between atoms: C_10  and  N_11 
REMARK    5  A    between atoms: N_11  and  C_12 
REMARK    6  A    between atoms: C_14  and  C_15 
ROOT
HETATM    1  C   UNL     1      41.962 -12.942   1.585  1.00  0.00     0.133 C 
ENDROOT
BRANCH   1   2
HETATM    2  C   UNL     1      41.186 -13.566   0.421  1.00  0.00     0.128 C 
BRANCH   2   3
HETATM    3  C   UNL     1      41.659 -12.989  -0.915  1.00  0.00    -0.029 A 
HETATM    4  C   UNL     1      41.574 -13.738  -2.114  1.00  0.00    -0.054 A 
HETATM    5  C   UNL     1      41.002 -15.132  -2.153  1.00  0.00     0.049 C 
HETATM    6  C   UNL     1      42.036 -13.176  -3.317  1.00  0.00     0.007 A 
HETATM    7  C   UNL     1      42.588 -11.897  -3.346  1.00  0.00     0.001 A 
HETATM    8  C   UNL     1      42.695 -11.165  -2.169  1.00  0.00     0.001 A 
HETATM    9  C   UNL     1      42.243 -11.708  -0.967  1.00  0.00     0.010 A 
ENDBRANCH   2   3
BRANCH   2  10
HETATM   10  N   UNL     1      39.725 -13.542   0.540  1.00  0.00    -0.334 N 
HETATM   11  C   UNL     1      38.945 -14.457   1.169  1.00  0.00     0.314 C 
HETATM   12  N   UNL     1      37.629 -14.128   1.131  1.00  0.00    -0.352 N 
HETATM   13  O   UNL     1      39.324 -15.482   1.715  1.00  0.00    -0.248 OA
HETATM   14  H   UNL     1      37.388 -13.149   1.183  1.00  0.00     0.160 HD
HETATM   15  H   UNL     1      37.039 -14.742   1.679  1.00  0.00     0.160 HD
HETATM   16  H   UNL     1      39.247 -12.834   0.004  1.00  0.00     0.165 HD
ENDBRANCH   2  10
ENDBRANCH   1   2
BRANCH   1  17
HETATM   17  C   UNL     1      42.778 -14.000   2.299  1.00  0.00     0.224 C 
HETATM   18  N   UNL     1      42.459 -15.286   1.906  1.00  0.00    -0.327 N 
HETATM   19  H   UNL     1      41.801 -15.370   1.137  1.00  0.00     0.169 HD
HETATM   20  O   UNL     1      43.582 -13.681   3.170  1.00  0.00    -0.273 OA
BRANCH  18  21
HETATM   21  C   UNL     1      42.977 -16.495   2.411  1.00  0.00     0.035 A 
HETATM   22  C   UNL     1      42.986 -16.838   3.768  1.00  0.00     0.042 A 
HETATM   23  C   UNL     1      43.518 -18.063   4.209  1.00  0.00    -0.021 A 
HETATM   24  C   UNL     1      44.028 -18.955   3.256  1.00  0.00     0.012 A 
HETATM   25  C   UNL     1      44.026 -18.623   1.901  1.00  0.00     0.003 A 
HETATM   26  C   UNL     1      43.513 -17.395   1.483  1.00  0.00     0.029 A 
BRANCH  23  27
HETATM   27  C   UNL     1      43.534 -18.381   5.631  1.00  0.00     0.010 A 
HETATM   28  C   UNL     1      43.844 -19.587   6.308  1.00  0.00     0.152 A 
HETATM   29  N   UNL     1      43.722 -19.488   7.635  1.00  0.00    -0.187 NA
HETATM   30  N   UNL     1      43.326 -18.219   7.816  1.00  0.00    -0.289 N 
HETATM   31  H   UNL     1      43.157 -17.900   8.764  1.00  0.00     0.188 HD
HETATM   32  C   UNL     1      43.198 -17.517   6.653  1.00  0.00     0.123 A 
ENDBRANCH  23  27
ENDBRANCH  18  21
ENDBRANCH   1  17
TORSDOF 6
ENDMDL
MODEL 10
REMARK VINA RESULT:      -7.9      4.391      6.392
REMARK  6 active torsions:
REMARK  status: ('A' for Active; 'I' for Inactive)
REMARK    1  A    between atoms: C_3  and  C_4 
REMARK    2  A    between atoms: C_4  and  N_5 
REMARK    3  A    between atoms: C_4  and  C_9 
REMARK       I    between atoms: N_5  and  C_6 
REMARK       I    between atoms: C_6  and  N_7 
REMARK    4  A    between atoms: C_9  and  C_10 
REMARK       I    between atoms: C_10  and  N_11 
REMARK    5  A    between atoms: N_11  and  C_12 
REMARK    6  A    between atoms: C_14  and  C_15 
ROOT
HETATM    1  C   UNL     1      43.247 -15.856   3.106  1.00  0.00     0.133 C 
ENDROOT
BRANCH   1   2
HETATM    2  C   UNL     1      43.053 -16.928   4.183  1.00  0.00     0.128 C 
BRANCH   2   3
HETATM    3  C   UNL     1      43.500 -18.298   3.668  1.00  0.00    -0.029 A 
HETATM    4  C   UNL     1      44.388 -19.112   4.413  1.00  0.00    -0.054 A 
HETATM    5  C   UNL     1      44.929 -18.694   5.756  1.00  0.00     0.049 C 
HETATM    6  C   UNL     1      44.787 -20.357   3.895  1.00  0.00     0.007 A 
HETATM    7  C   UNL     1      44.333 -20.796   2.652  1.00  0.00     0.001 A 
HETATM    8  C   UNL     1      43.480 -19.992   1.907  1.00  0.00     0.001 A 
HETATM    9  C   UNL     1      43.075 -18.754   2.405  1.00  0.00     0.010 A 
ENDBRANCH   2   3
BRANCH   2  10
HETATM   10  N   UNL     1      41.724 -16.983   4.800  1.00  0.00    -0.334 N 
HETATM   11  C   UNL     1      41.421 -16.755   6.103  1.00  0.00     0.314 C 
HETATM   12  N   UNL     1      40.090 -16.850   6.349  1.00  0.00    -0.352 N 
HETATM   13  O   UNL     1      42.212 -16.498   6.997  1.00  0.00    -0.248 OA
HETATM   14  H   UNL     1      39.456 -16.537   5.628  1.00  0.00     0.160 HD
HETATM   15  H   UNL     1      39.830 -16.586   7.290  1.00  0.00     0.160 HD
HETATM   16  H   UNL     1      40.979 -17.336   4.219  1.00  0.00     0.165 HD
ENDBRANCH   2  10
ENDBRANCH   1   2
BRANCH   1  17
HETATM   17  C   UNL     1      43.023 -14.477   3.692  1.00  0.00     0.224 C 
HETATM   18  N   UNL     1      41.716 -14.043   3.569  1.00  0.00    -0.327 N 
HETATM   19  H   UNL     1      41.052 -14.716   3.198  1.00  0.00     0.169 HD
HETATM   20  O   UNL     1      43.963 -13.841   4.159  1.00  0.00    -0.273 OA
BRANCH  18  21
HETATM   21  C   UNL     1      41.183 -12.794   3.948  1.00  0.00     0.035 A 
HETATM   22  C   UNL     1      40.677 -12.513   5.221  1.00  0.00     0.042 A 
HETATM   23  C   UNL     1      40.159 -11.244   5.538  1.00  0.00    -0.021 A 
HETATM   24  C   UNL     1      40.177 -10.248   4.552  1.00  0.00     0.012 A 
HETATM   25  C   UNL     1      40.676 -10.518   3.279  1.00  0.00     0.003 A 
HETATM   26  C   UNL     1      41.168 -11.788   2.976  1.00  0.00     0.029 A 
BRANCH  23  27
HETATM   27  C   UNL     1      39.617 -10.988   6.867  1.00  0.00     0.010 A 
HETATM   28  C   UNL     1      39.219  -9.778   7.488  1.00  0.00     0.152 A 
HETATM   29  N   UNL     1      38.787  -9.952   8.741  1.00  0.00    -0.187 NA
HETATM   30  N   UNL     1      38.914 -11.273   8.933  1.00  0.00    -0.289 N 
HETATM   31  H   UNL     1      38.650 -11.655   9.834  1.00  0.00     0.188 HD
HETATM   32  C   UNL     1      39.406 -11.937   7.846  1.00  0.00     0.123 A 
ENDBRANCH  23  27
ENDBRANCH  18  21
ENDBRANCH   1  17
TORSDOF 6
ENDMDL
