MODEL 1
REMARK VINA RESULT:      -8.6      0.000      0.000
REMARK  8 active torsions:
REMARK  status: ('A' for Active; 'I' for Inactive)
REMARK    1  A    between atoms: C_7  and  C_8 
REMARK       I    between atoms: C_8  and  N_9 
REMARK    2  A    between atoms: N_9  and  C_10 
REMARK    3  A    between atoms: C_11  and  C_12 
REMARK       I    between atoms: C_12  and  N_13 
REMARK    4  A    between atoms: N_13  and  C_14 
REMARK    5  A    between atoms: C_14  and  C_15 
REMARK    6  A    between atoms: C_15  and  C_16 
REMARK    7  A    between atoms: C_17  and  O_18 
REMARK    8  A    between atoms: C_21  and  O_22 
ROOT
HETATM    1  C   UNL     1      44.137 -19.301   3.669  1.00  0.00     0.050 A 
HETATM    2  C   UNL     1      43.517 -19.488   2.424  1.00  0.00     0.058 A 
HETATM    3  C   UNL     1      43.516 -20.765   1.828  1.00  0.00     0.019 A 
HETATM    4  C   UNL     1      44.141 -21.842   2.454  1.00  0.00     0.001 A 
HETATM    5  C   UNL     1      44.802 -21.647   3.662  1.00  0.00     0.002 A 
HETATM    6  C   UNL     1      44.811 -20.384   4.259  1.00  0.00     0.030 A 
ENDROOT
BRANCH   2   7
HETATM    7  C   UNL     1      43.076 -18.361   1.558  1.00  0.00     0.253 C 
HETATM    8  N   UNL     1      41.770 -17.963   1.744  1.00  0.00    -0.356 N 
HETATM    9  H   UNL     1      41.315 -18.217   2.612  1.00  0.00     0.162 HD
HETATM   10  O   UNL     1      43.823 -17.917   0.695  1.00  0.00    -0.268 OA
BRANCH   8  11
HETATM   11  C   UNL     1      41.119 -17.005   0.873  1.00  0.00     0.127 C 
BRANCH  11  12
HETATM   12  C   UNL     1      41.536 -15.556   1.132  1.00  0.00     0.061 C 
BRANCH  12  13
HETATM   13  C   UNL     1      41.513 -14.751  -0.154  1.00  0.00    -0.023 A 
HETATM   14  C   UNL     1      41.940 -13.411  -0.204  1.00  0.00     0.077 A 
HETATM   15  C   UNL     1      41.936 -12.723  -1.427  1.00  0.00     0.074 A 
HETATM   16  C   UNL     1      41.519 -13.359  -2.599  1.00  0.00     0.070 A 
HETATM   17  C   UNL     1      41.115 -14.692  -2.550  1.00  0.00     0.037 A 
HETATM   18  C   UNL     1      41.108 -15.383  -1.339  1.00  0.00     0.013 A 
BRANCH  14  19
HETATM   19  O   UNL     1      42.353 -12.874   0.988  1.00  0.00    -0.355 OA
HETATM   20  C   UNL     1      41.513 -11.912   1.610  1.00  0.00     0.210 C 
ENDBRANCH  14  19
BRANCH  16  21
HETATM   21  O   UNL     1      41.477 -12.799  -3.848  1.00  0.00    -0.356 OA
HETATM   22  C   UNL     1      42.256 -11.628  -4.055  1.00  0.00     0.210 C 
ENDBRANCH  16  21
ENDBRANCH  12  13
ENDBRANCH  11  12
ENDBRANCH   8  11
ENDBRANCH   2   7
BRANCH   1  23
HETATM   23  N   UNL     1      44.139 -18.104   4.413  1.00  0.00    -0.321 N 
HETATM   24  C   UNL     1      43.032 -17.523   5.007  1.00  0.00     0.265 C 
HETATM   25  O   UNL     1      41.907 -18.013   5.006  1.00  0.00    -0.267 OA
HETATM   26  H   UNL     1      45.030 -17.774   4.769  1.00  0.00     0.169 HD
BRANCH  24  27
HETATM   27  C   UNL     1      43.364 -16.279   5.820  1.00  0.00     0.097 C 
HETATM   28  C   UNL     1      43.685 -16.362   7.134  1.00  0.00     0.064 C 
HETATM   29  C   UNL     1      43.611 -17.638   7.932  1.00  0.00     0.078 C 
HETATM   30  O   UNL     1      44.078 -15.301   7.938  1.00  0.00    -0.353 OA
HETATM   31  C   UNL     1      44.521 -14.117   7.275  1.00  0.00     0.185 C 
HETATM   32  C   UNL     1      43.473 -13.600   6.314  1.00  0.00     0.106 C 
HETATM   33  S   UNL     1      43.351 -14.762   4.935  1.00  0.00    -0.120 SA
ENDBRANCH  24  27
ENDBRANCH   1  23
TORSDOF 8
ENDMDL
MODEL 2
REMARK VINA RESULT:      -8.4      1.945      2.521
REMARK  8 active torsions:
REMARK  status: ('A' for Active; 'I' for Inactive)
REMARK    1  A    between atoms: C_7  and  C_8 
REMARK       I    between atoms: C_8  and  N_9 
REMARK    2  A    between atoms: N_9  and  C_10 
REMARK    3  A    between atoms: C_11  and  C_12 
REMARK       I    between atoms: C_12  and  N_13 
REMARK    4  A    between atoms: N_13  and  C_14 
REMARK    5  A    between atoms: C_14  and  C_15 
REMARK    6  A    between atoms: C_15  and  C_16 
REMARK    7  A    between atoms: C_17  and  O_18 
REMARK    8  A    between atoms: C_21  and  O_22 
ROOT
HETATM    1  C   UNL     1      44.142 -19.354   3.678  1.00  0.00     0.050 A 
HETATM    2  C   UNL     1      43.542 -19.536   2.423  1.00  0.00     0.058 A 
HETATM    3  C   UNL     1      43.537 -20.814   1.828  1.00  0.00     0.019 A 
HETATM    4  C   UNL     1      44.141 -21.897   2.467  1.00  0.00     0.001 A 
HETATM    5  C   UNL     1      44.783 -21.707   3.685  1.00  0.00     0.002 A 
HETATM    6  C   UNL     1      44.795 -20.442   4.280  1.00  0.00     0.030 A 
ENDROOT
BRANCH   2   7
HETATM    7  C   UNL     1      43.127 -18.407   1.548  1.00  0.00     0.253 C 
HETATM    8  N   UNL     1      41.806 -18.030   1.674  1.00  0.00    -0.356 N 
HETATM    9  H   UNL     1      41.314 -18.300   2.515  1.00  0.00     0.162 HD
HETATM   10  O   UNL     1      43.908 -17.941   0.728  1.00  0.00    -0.268 OA
BRANCH   8  11
HETATM   11  C   UNL     1      41.185 -17.071   0.782  1.00  0.00     0.127 C 
BRANCH  11  12
HETATM   12  C   UNL     1      41.385 -15.616   1.207  1.00  0.00     0.061 C 
BRANCH  12  13
HETATM   13  C   UNL     1      40.223 -14.756   0.746  1.00  0.00    -0.023 A 
HETATM   14  C   UNL     1      40.199 -14.151  -0.525  1.00  0.00     0.077 A 
HETATM   15  C   UNL     1      39.082 -13.397  -0.917  1.00  0.00     0.074 A 
HETATM   16  C   UNL     1      37.989 -13.247  -0.060  1.00  0.00     0.070 A 
HETATM   17  C   UNL     1      38.007 -13.864   1.190  1.00  0.00     0.037 A 
HETATM   18  C   UNL     1      39.114 -14.609   1.593  1.00  0.00     0.013 A 
BRANCH  14  19
HETATM   19  O   UNL     1      41.303 -14.368  -1.307  1.00  0.00    -0.355 OA
HETATM   20  C   UNL     1      41.116 -15.018  -2.556  1.00  0.00     0.210 C 
ENDBRANCH  14  19
BRANCH  16  21
HETATM   21  O   UNL     1      36.844 -12.546  -0.330  1.00  0.00    -0.356 OA
HETATM   22  C   UNL     1      36.436 -11.583   0.634  1.00  0.00     0.210 C 
ENDBRANCH  16  21
ENDBRANCH  12  13
ENDBRANCH  11  12
ENDBRANCH   8  11
ENDBRANCH   2   7
BRANCH   1  23
HETATM   23  N   UNL     1      44.144 -18.156   4.421  1.00  0.00    -0.321 N 
HETATM   24  C   UNL     1      43.032 -17.558   4.987  1.00  0.00     0.265 C 
HETATM   25  O   UNL     1      41.900 -18.033   4.961  1.00  0.00    -0.267 OA
HETATM   26  H   UNL     1      45.031 -17.838   4.797  1.00  0.00     0.169 HD
BRANCH  24  27
HETATM   27  C   UNL     1      43.362 -16.318   5.806  1.00  0.00     0.097 C 
HETATM   28  C   UNL     1      43.678 -16.406   7.122  1.00  0.00     0.064 C 
HETATM   29  C   UNL     1      43.599 -17.685   7.915  1.00  0.00     0.078 C 
HETATM   30  O   UNL     1      44.069 -15.349   7.931  1.00  0.00    -0.353 OA
HETATM   31  C   UNL     1      44.516 -14.163   7.275  1.00  0.00     0.185 C 
HETATM   32  C   UNL     1      43.473 -13.641   6.311  1.00  0.00     0.106 C 
HETATM   33  S   UNL     1      43.355 -14.797   4.927  1.00  0.00    -0.120 SA
ENDBRANCH  24  27
ENDBRANCH   1  23
TORSDOF 8
ENDMDL
MODEL 3
REMARK VINA RESULT:      -8.3      4.120      9.336
REMARK  8 active torsions:
REMARK  status: ('A' for Active; 'I' for Inactive)
REMARK    1  A    between atoms: C_7  and  C_8 
REMARK       I    between atoms: C_8  and  N_9 
REMARK    2  A    between atoms: N_9  and  C_10 
REMARK    3  A    between atoms: C_11  and  C_12 
REMARK       I    between atoms: C_12  and  N_13 
REMARK    4  A    between atoms: N_13  and  C_14 
REMARK    5  A    between atoms: C_14  and  C_15 
REMARK    6  A    between atoms: C_15  and  C_16 
REMARK    7  A    between atoms: C_17  and  O_18 
REMARK    8  A    between atoms: C_21  and  O_22 
ROOT
HETATM    1  C   UNL     1      42.374 -14.632   4.732  1.00  0.00     0.050 A 
HETATM    2  C   UNL     1      42.658 -13.754   5.789  1.00  0.00     0.058 A 
HETATM    3  C   UNL     1      41.866 -12.602   5.974  1.00  0.00     0.019 A 
HETATM    4  C   UNL     1      40.814 -12.316   5.104  1.00  0.00     0.001 A 
HETATM    5  C   UNL     1      40.566 -13.156   4.025  1.00  0.00     0.002 A 
HETATM    6  C   UNL     1      41.348 -14.299   3.832  1.00  0.00     0.030 A 
ENDROOT
BRANCH   2   7
HETATM    7  C   UNL     1      43.911 -13.821   6.588  1.00  0.00     0.253 C 
HETATM    8  N   UNL     1      43.931 -13.014   7.706  1.00  0.00    -0.356 N 
HETATM    9  H   UNL     1      43.045 -12.692   8.074  1.00  0.00     0.162 HD
HETATM   10  O   UNL     1      44.861 -14.485   6.192  1.00  0.00    -0.268 OA
BRANCH   8  11
HETATM   11  C   UNL     1      45.127 -12.819   8.500  1.00  0.00     0.127 C 
BRANCH  11  12
HETATM   12  C   UNL     1      45.200 -11.450   9.177  1.00  0.00     0.061 C 
BRANCH  12  13
HETATM   13  C   UNL     1      44.062 -11.277  10.165  1.00  0.00    -0.023 A 
HETATM   14  C   UNL     1      42.843 -10.673   9.803  1.00  0.00     0.077 A 
HETATM   15  C   UNL     1      41.807 -10.572  10.745  1.00  0.00     0.074 A 
HETATM   16  C   UNL     1      41.973 -11.073  12.039  1.00  0.00     0.070 A 
HETATM   17  C   UNL     1      43.174 -11.688  12.389  1.00  0.00     0.037 A 
HETATM   18  C   UNL     1      44.212 -11.786  11.464  1.00  0.00     0.013 A 
BRANCH  14  19
HETATM   19  O   UNL     1      42.761 -10.231   8.509  1.00  0.00    -0.355 OA
HETATM   20  C   UNL     1      41.615  -9.479   8.134  1.00  0.00     0.210 C 
ENDBRANCH  14  19
BRANCH  16  21
HETATM   21  O   UNL     1      41.039 -11.041  13.040  1.00  0.00    -0.356 OA
HETATM   22  C   UNL     1      41.338 -10.237  14.174  1.00  0.00     0.210 C 
ENDBRANCH  16  21
ENDBRANCH  12  13
ENDBRANCH  11  12
ENDBRANCH   8  11
ENDBRANCH   2   7
BRANCH   1  23
HETATM   23  N   UNL     1      43.027 -15.856   4.484  1.00  0.00    -0.321 N 
HETATM   24  C   UNL     1      42.702 -17.073   5.057  1.00  0.00     0.265 C 
HETATM   25  O   UNL     1      41.757 -17.250   5.820  1.00  0.00    -0.267 OA
HETATM   26  H   UNL     1      43.596 -15.923   3.646  1.00  0.00     0.169 HD
BRANCH  24  27
HETATM   27  C   UNL     1      43.531 -18.234   4.525  1.00  0.00     0.097 C 
HETATM   28  C   UNL     1      44.558 -18.752   5.242  1.00  0.00     0.064 C 
HETATM   29  C   UNL     1      45.057 -18.158   6.535  1.00  0.00     0.078 C 
HETATM   30  O   UNL     1      45.319 -19.855   4.882  1.00  0.00    -0.353 OA
HETATM   31  C   UNL     1      44.774 -20.719   3.886  1.00  0.00     0.185 C 
HETATM   32  C   UNL     1      44.441 -19.959   2.620  1.00  0.00     0.106 C 
HETATM   33  S   UNL     1      43.036 -18.876   2.967  1.00  0.00    -0.120 SA
ENDBRANCH  24  27
ENDBRANCH   1  23
TORSDOF 8
ENDMDL
MODEL 4
REMARK VINA RESULT:      -8.2      3.222      8.276
REMARK  8 active torsions:
REMARK  status: ('A' for Active; 'I' for Inactive)
REMARK    1  A    between atoms: C_7  and  C_8 
REMARK       I    between atoms: C_8  and  N_9 
REMARK    2  A    between atoms: N_9  and  C_10 
REMARK    3  A    between atoms: C_11  and  C_12 
REMARK       I    between atoms: C_12  and  N_13 
REMARK    4  A    between atoms: N_13  and  C_14 
REMARK    5  A    between atoms: C_14  and  C_15 
REMARK    6  A    between atoms: C_15  and  C_16 
REMARK    7  A    between atoms: C_17  and  O_18 
REMARK    8  A    between atoms: C_21  and  O_22 
ROOT
HETATM    1  C   UNL     1      38.985 -14.110  -1.874  1.00  0.00     0.050 A 
HETATM    2  C   UNL     1      40.141 -14.891  -2.028  1.00  0.00     0.058 A 
HETATM    3  C   UNL     1      40.248 -15.773  -3.123  1.00  0.00     0.019 A 
HETATM    4  C   UNL     1      39.208 -15.892  -4.044  1.00  0.00     0.001 A 
HETATM    5  C   UNL     1      38.041 -15.159  -3.863  1.00  0.00     0.002 A 
HETATM    6  C   UNL     1      37.924 -14.285  -2.779  1.00  0.00     0.030 A 
ENDROOT
BRANCH   2   7
HETATM    7  C   UNL     1      41.169 -15.041  -0.964  1.00  0.00     0.253 C 
HETATM    8  N   UNL     1      41.362 -16.333  -0.521  1.00  0.00    -0.356 N 
HETATM    9  H   UNL     1      41.056 -17.090  -1.119  1.00  0.00     0.162 HD
HETATM   10  O   UNL     1      41.709 -14.053  -0.482  1.00  0.00    -0.268 OA
BRANCH   8  11
HETATM   11  C   UNL     1      42.191 -16.644   0.626  1.00  0.00     0.127 C 
BRANCH  11  12
HETATM   12  C   UNL     1      41.522 -17.580   1.633  1.00  0.00     0.061 C 
BRANCH  12  13
HETATM   13  C   UNL     1      42.562 -18.335   2.439  1.00  0.00    -0.023 A 
HETATM   14  C   UNL     1      42.867 -17.994   3.771  1.00  0.00     0.077 A 
HETATM   15  C   UNL     1      43.809 -18.749   4.485  1.00  0.00     0.074 A 
HETATM   16  C   UNL     1      44.443 -19.843   3.889  1.00  0.00     0.070 A 
HETATM   17  C   UNL     1      44.124 -20.190   2.578  1.00  0.00     0.037 A 
HETATM   18  C   UNL     1      43.196 -19.442   1.856  1.00  0.00     0.013 A 
BRANCH  14  19
HETATM   19  O   UNL     1      42.183 -16.922   4.281  1.00  0.00    -0.355 OA
HETATM   20  C   UNL     1      42.904 -15.719   4.507  1.00  0.00     0.210 C 
ENDBRANCH  14  19
BRANCH  16  21
HETATM   21  O   UNL     1      45.370 -20.658   4.483  1.00  0.00    -0.356 OA
HETATM   22  C   UNL     1      44.918 -21.931   4.927  1.00  0.00     0.210 C 
ENDBRANCH  16  21
ENDBRANCH  12  13
ENDBRANCH  11  12
ENDBRANCH   8  11
ENDBRANCH   2   7
BRANCH   1  23
HETATM   23  N   UNL     1      38.782 -13.132  -0.880  1.00  0.00    -0.321 N 
HETATM   24  C   UNL     1      38.125 -13.331   0.322  1.00  0.00     0.265 C 
HETATM   25  O   UNL     1      37.682 -14.411   0.701  1.00  0.00    -0.267 OA
HETATM   26  H   UNL     1      39.368 -12.305  -0.908  1.00  0.00     0.169 HD
BRANCH  24  27
HETATM   27  C   UNL     1      38.142 -12.109   1.231  1.00  0.00     0.097 C 
HETATM   28  C   UNL     1      37.075 -11.278   1.312  1.00  0.00     0.064 C 
HETATM   29  C   UNL     1      35.856 -11.396   0.434  1.00  0.00     0.078 C 
HETATM   30  O   UNL     1      36.962 -10.189   2.165  1.00  0.00    -0.353 OA
HETATM   31  C   UNL     1      37.858 -10.142   3.275  1.00  0.00     0.185 C 
HETATM   32  C   UNL     1      39.300 -10.222   2.823  1.00  0.00     0.106 C 
HETATM   33  S   UNL     1      39.598 -11.888   2.188  1.00  0.00    -0.120 SA
ENDBRANCH  24  27
ENDBRANCH   1  23
TORSDOF 8
ENDMDL
MODEL 5
REMARK VINA RESULT:      -8.1      1.744      2.182
REMARK  8 active torsions:
REMARK  status: ('A' for Active; 'I' for Inactive)
REMARK    1  A    between atoms: C_7  and  C_8 
REMARK       I    between atoms: C_8  and  N_9 
REMARK    2  A    between atoms: N_9  and  C_10 
REMARK    3  A    between atoms: C_11  and  C_12 
REMARK       I    between atoms: C_12  and  N_13 
REMARK    4  A    between atoms: N_13  and  C_14 
REMARK    5  A    between atoms: C_14  and  C_15 
REMARK    6  A    between atoms: C_15  and  C_16 
REMARK    7  A    between atoms: C_17  and  O_18 
REMARK    8  A    between atoms: C_21  and  O_22 
ROOT
HETATM    1  C   UNL     1      44.108 -19.252   3.655  1.00  0.00     0.050 A 
HETATM    2  C   UNL     1      43.497 -19.408   2.401  1.00  0.00     0.058 A 
HETATM    3  C   UNL     1      43.483 -20.674   1.782  1.00  0.00     0.019 A 
HETATM    4  C   UNL     1      44.088 -21.772   2.395  1.00  0.00     0.001 A 
HETATM    5  C   UNL     1      44.741 -21.607   3.611  1.00  0.00     0.002 A 
HETATM    6  C   UNL     1      44.762 -20.355   4.231  1.00  0.00     0.030 A 
ENDROOT
BRANCH   2   7
HETATM    7  C   UNL     1      43.080 -18.261   1.552  1.00  0.00     0.253 C 
HETATM    8  N   UNL     1      41.774 -17.853   1.728  1.00  0.00    -0.356 N 
HETATM    9  H   UNL     1      41.306 -18.119   2.584  1.00  0.00     0.162 HD
HETATM   10  O   UNL     1      43.842 -17.806   0.708  1.00  0.00    -0.268 OA
BRANCH   8  11
HETATM   11  C   UNL     1      41.146 -16.871   0.867  1.00  0.00     0.127 C 
BRANCH  11  12
HETATM   12  C   UNL     1      40.220 -15.906   1.608  1.00  0.00     0.061 C 
BRANCH  12  13
HETATM   13  C   UNL     1      40.588 -14.466   1.305  1.00  0.00    -0.023 A 
HETATM   14  C   UNL     1      39.726 -13.607   0.596  1.00  0.00     0.077 A 
HETATM   15  C   UNL     1      40.098 -12.272   0.376  1.00  0.00     0.074 A 
HETATM   16  C   UNL     1      41.315 -11.784   0.859  1.00  0.00     0.070 A 
HETATM   17  C   UNL     1      42.158 -12.631   1.577  1.00  0.00     0.037 A 
HETATM   18  C   UNL     1      41.802 -13.961   1.795  1.00  0.00     0.013 A 
BRANCH  14  19
HETATM   19  O   UNL     1      38.546 -14.163   0.178  1.00  0.00    -0.355 OA
HETATM   20  C   UNL     1      38.068 -13.817  -1.114  1.00  0.00     0.210 C 
ENDBRANCH  14  19
BRANCH  16  21
HETATM   21  O   UNL     1      41.784 -10.506   0.715  1.00  0.00    -0.356 OA
HETATM   22  C   UNL     1      42.491 -10.211  -0.483  1.00  0.00     0.210 C 
ENDBRANCH  16  21
ENDBRANCH  12  13
ENDBRANCH  11  12
ENDBRANCH   8  11
ENDBRANCH   2   7
BRANCH   1  23
HETATM   23  N   UNL     1      44.121 -18.069   4.420  1.00  0.00    -0.321 N 
HETATM   24  C   UNL     1      43.021 -17.497   5.037  1.00  0.00     0.265 C 
HETATM   25  O   UNL     1      41.895 -17.986   5.040  1.00  0.00    -0.267 OA
HETATM   26  H   UNL     1      45.016 -17.746   4.772  1.00  0.00     0.169 HD
BRANCH  24  27
HETATM   27  C   UNL     1      43.364 -16.268   5.868  1.00  0.00     0.097 C 
HETATM   28  C   UNL     1      43.681 -16.374   7.181  1.00  0.00     0.064 C 
HETATM   29  C   UNL     1      43.593 -17.660   7.961  1.00  0.00     0.078 C 
HETATM   30  O   UNL     1      44.084 -15.328   8.001  1.00  0.00    -0.353 OA
HETATM   31  C   UNL     1      44.540 -14.140   7.357  1.00  0.00     0.185 C 
HETATM   32  C   UNL     1      43.499 -13.598   6.401  1.00  0.00     0.106 C 
HETATM   33  S   UNL     1      43.368 -14.739   5.005  1.00  0.00    -0.120 SA
ENDBRANCH  24  27
ENDBRANCH   1  23
TORSDOF 8
ENDMDL
MODEL 6
REMARK VINA RESULT:      -8.1      2.878      8.466
REMARK  8 active torsions:
REMARK  status: ('A' for Active; 'I' for Inactive)
REMARK    1  A    between atoms: C_7  and  C_8 
REMARK       I    between atoms: C_8  and  N_9 
REMARK    2  A    between atoms: N_9  and  C_10 
REMARK    3  A    between atoms: C_11  and  C_12 
REMARK       I    between atoms: C_12  and  N_13 
REMARK    4  A    between atoms: N_13  and  C_14 
REMARK    5  A    between atoms: C_14  and  C_15 
REMARK    6  A    between atoms: C_15  and  C_16 
REMARK    7  A    between atoms: C_17  and  O_18 
REMARK    8  A    between atoms: C_21  and  O_22 
ROOT
HETATM    1  C   UNL     1      39.636 -13.109   2.725  1.00  0.00     0.050 A 
HETATM    2  C   UNL     1      40.007 -13.881   3.836  1.00  0.00     0.058 A 
HETATM    3  C   UNL     1      39.683 -13.439   5.135  1.00  0.00     0.019 A 
HETATM    4  C   UNL     1      39.015 -12.229   5.328  1.00  0.00     0.001 A 
HETATM    5  C   UNL     1      38.696 -11.437   4.231  1.00  0.00     0.002 A 
HETATM    6  C   UNL     1      39.015 -11.867   2.940  1.00  0.00     0.030 A 
ENDROOT
BRANCH   2   7
HETATM    7  C   UNL     1      40.953 -15.026   3.752  1.00  0.00     0.253 C 
HETATM    8  N   UNL     1      42.260 -14.722   4.067  1.00  0.00    -0.356 N 
HETATM    9  H   UNL     1      42.436 -13.886   4.609  1.00  0.00     0.162 HD
HETATM   10  O   UNL     1      40.571 -16.114   3.338  1.00  0.00    -0.268 OA
BRANCH   8  11
HETATM   11  C   UNL     1      43.344 -15.665   3.872  1.00  0.00     0.127 C 
BRANCH  11  12
HETATM   12  C   UNL     1      43.488 -16.681   5.006  1.00  0.00     0.061 C 
BRANCH  12  13
HETATM   13  C   UNL     1      43.876 -18.043   4.462  1.00  0.00    -0.023 A 
HETATM   14  C   UNL     1      44.532 -19.004   5.255  1.00  0.00     0.077 A 
HETATM   15  C   UNL     1      44.834 -20.264   4.715  1.00  0.00     0.074 A 
HETATM   16  C   UNL     1      44.483 -20.576   3.399  1.00  0.00     0.070 A 
HETATM   17  C   UNL     1      43.816 -19.629   2.624  1.00  0.00     0.037 A 
HETATM   18  C   UNL     1      43.518 -18.372   3.146  1.00  0.00     0.013 A 
BRANCH  14  19
HETATM   19  O   UNL     1      44.819 -18.620   6.538  1.00  0.00    -0.355 OA
HETATM   20  C   UNL     1      43.948 -19.056   7.573  1.00  0.00     0.210 C 
ENDBRANCH  14  19
BRANCH  16  21
HETATM   21  O   UNL     1      44.716 -21.767   2.764  1.00  0.00    -0.356 OA
HETATM   22  C   UNL     1      44.074 -21.966   1.512  1.00  0.00     0.210 C 
ENDBRANCH  16  21
ENDBRANCH  12  13
ENDBRANCH  11  12
ENDBRANCH   8  11
ENDBRANCH   2   7
BRANCH   1  23
HETATM   23  N   UNL     1      39.820 -13.471   1.375  1.00  0.00    -0.321 N 
HETATM   24  C   UNL     1      41.018 -13.413   0.683  1.00  0.00     0.265 C 
HETATM   25  O   UNL     1      42.092 -13.087   1.179  1.00  0.00    -0.267 OA
HETATM   26  H   UNL     1      39.113 -14.057   0.945  1.00  0.00     0.169 HD
BRANCH  24  27
HETATM   27  C   UNL     1      40.923 -13.955  -0.737  1.00  0.00     0.097 C 
HETATM   28  C   UNL     1      41.093 -15.274  -1.000  1.00  0.00     0.064 C 
HETATM   29  C   UNL     1      41.519 -16.283   0.035  1.00  0.00     0.078 C 
HETATM   30  O   UNL     1      40.948 -15.875  -2.242  1.00  0.00    -0.353 OA
HETATM   31  C   UNL     1      40.231 -15.143  -3.235  1.00  0.00     0.185 C 
HETATM   32  C   UNL     1      40.839 -13.775  -3.457  1.00  0.00     0.106 C 
HETATM   33  S   UNL     1      40.533 -12.777  -1.981  1.00  0.00    -0.120 SA
ENDBRANCH  24  27
ENDBRANCH   1  23
TORSDOF 8
ENDMDL
MODEL 7
REMARK VINA RESULT:      -7.8      2.363      7.523
REMARK  8 active torsions:
REMARK  status: ('A' for Active; 'I' for Inactive)
REMARK    1  A    between atoms: C_7  and  C_8 
REMARK       I    between atoms: C_8  and  N_9 
REMARK    2  A    between atoms: N_9  and  C_10 
REMARK    3  A    between atoms: C_11  and  C_12 
REMARK       I    between atoms: C_12  and  N_13 
REMARK    4  A    between atoms: N_13  and  C_14 
REMARK    5  A    between atoms: C_14  and  C_15 
REMARK    6  A    between atoms: C_15  and  C_16 
REMARK    7  A    between atoms: C_17  and  O_18 
REMARK    8  A    between atoms: C_21  and  O_22 
ROOT
HETATM    1  C   UNL     1      43.077 -17.311   1.286  1.00  0.00     0.050 A 
HETATM    2  C   UNL     1      43.484 -16.916   2.569  1.00  0.00     0.058 A 
HETATM    3  C   UNL     1      43.957 -17.881   3.481  1.00  0.00     0.019 A 
HETATM    4  C   UNL     1      44.007 -19.229   3.127  1.00  0.00     0.001 A 
HETATM    5  C   UNL     1      43.553 -19.629   1.875  1.00  0.00     0.002 A 
HETATM    6  C   UNL     1      43.079 -18.679   0.966  1.00  0.00     0.030 A 
ENDROOT
BRANCH   2   7
HETATM    7  C   UNL     1      43.209 -15.566   3.130  1.00  0.00     0.253 C 
HETATM    8  N   UNL     1      41.923 -15.380   3.591  1.00  0.00    -0.356 N 
HETATM    9  H   UNL     1      41.372 -16.201   3.805  1.00  0.00     0.162 HD
HETATM   10  O   UNL     1      44.063 -14.690   3.079  1.00  0.00    -0.268 OA
BRANCH   8  11
HETATM   11  C   UNL     1      41.428 -14.082   4.006  1.00  0.00     0.127 C 
BRANCH  11  12
HETATM   12  C   UNL     1      41.597 -13.810   5.501  1.00  0.00     0.061 C 
BRANCH  12  13
HETATM   13  C   UNL     1      42.212 -15.007   6.201  1.00  0.00    -0.023 A 
HETATM   14  C   UNL     1      43.529 -14.986   6.698  1.00  0.00     0.077 A 
HETATM   15  C   UNL     1      44.038 -16.107   7.372  1.00  0.00     0.074 A 
HETATM   16  C   UNL     1      43.245 -17.242   7.562  1.00  0.00     0.070 A 
HETATM   17  C   UNL     1      41.935 -17.252   7.086  1.00  0.00     0.037 A 
HETATM   18  C   UNL     1      41.422 -16.148   6.408  1.00  0.00     0.013 A 
BRANCH  14  19
HETATM   19  O   UNL     1      44.226 -13.826   6.486  1.00  0.00    -0.355 OA
HETATM   20  C   UNL     1      44.924 -13.259   7.586  1.00  0.00     0.210 C 
ENDBRANCH  14  19
BRANCH  16  21
HETATM   21  O   UNL     1      43.623 -18.390   8.207  1.00  0.00    -0.356 OA
HETATM   22  C   UNL     1      43.831 -19.543   7.401  1.00  0.00     0.210 C 
ENDBRANCH  16  21
ENDBRANCH  12  13
ENDBRANCH  11  12
ENDBRANCH   8  11
ENDBRANCH   2   7
BRANCH   1  23
HETATM   23  N   UNL     1      42.664 -16.445   0.253  1.00  0.00    -0.321 N 
HETATM   24  C   UNL     1      41.401 -15.895   0.121  1.00  0.00     0.265 C 
HETATM   25  O   UNL     1      40.489 -16.049   0.927  1.00  0.00    -0.267 OA
HETATM   26  H   UNL     1      43.386 -15.977  -0.284  1.00  0.00     0.169 HD
BRANCH  24  27
HETATM   27  C   UNL     1      41.282 -14.926  -1.048  1.00  0.00     0.097 C 
HETATM   28  C   UNL     1      41.560 -13.608  -0.901  1.00  0.00     0.064 C 
HETATM   29  C   UNL     1      41.868 -12.963   0.426  1.00  0.00     0.078 C 
HETATM   30  O   UNL     1      41.558 -12.663  -1.918  1.00  0.00    -0.353 OA
HETATM   31  C   UNL     1      41.623 -13.154  -3.256  1.00  0.00     0.185 C 
HETATM   32  C   UNL     1      40.504 -14.133  -3.538  1.00  0.00     0.106 C 
HETATM   33  S   UNL     1      40.817 -15.637  -2.585  1.00  0.00    -0.120 SA
ENDBRANCH  24  27
ENDBRANCH   1  23
TORSDOF 8
ENDMDL
MODEL 8
REMARK VINA RESULT:      -7.8      4.173      8.915
REMARK  8 active torsions:
REMARK  status: ('A' for Active; 'I' for Inactive)
REMARK    1  A    between atoms: C_7  and  C_8 
REMARK       I    between atoms: C_8  and  N_9 
REMARK    2  A    between atoms: N_9  and  C_10 
REMARK    3  A    between atoms: C_11  and  C_12 
REMARK       I    between atoms: C_12  and  N_13 
REMARK    4  A    between atoms: N_13  and  C_14 
REMARK    5  A    between atoms: C_14  and  C_15 
REMARK    6  A    between atoms: C_15  and  C_16 
REMARK    7  A    between atoms: C_17  and  O_18 
REMARK    8  A    between atoms: C_21  and  O_22 
ROOT
HETATM    1  C   UNL     1      42.859 -10.894   9.506  1.00  0.00     0.050 A 
HETATM    2  C   UNL     1      44.093 -11.536   9.690  1.00  0.00     0.058 A 
HETATM    3  C   UNL     1      44.858 -11.267  10.842  1.00  0.00     0.019 A 
HETATM    4  C   UNL     1      44.409 -10.352  11.795  1.00  0.00     0.001 A 
HETATM    5  C   UNL     1      43.213  -9.674  11.588  1.00  0.00     0.002 A 
HETATM    6  C   UNL     1      42.450  -9.933  10.447  1.00  0.00     0.030 A 
ENDROOT
BRANCH   2   7
HETATM    7  C   UNL     1      44.778 -12.302   8.614  1.00  0.00     0.253 C 
HETATM    8  N   UNL     1      44.051 -13.353   8.096  1.00  0.00    -0.356 N 
HETATM    9  H   UNL     1      43.048 -13.348   8.232  1.00  0.00     0.162 HD
HETATM   10  O   UNL     1      45.936 -12.042   8.312  1.00  0.00    -0.268 OA
BRANCH   8  11
HETATM   11  C   UNL     1      44.623 -14.310   7.171  1.00  0.00     0.127 C 
BRANCH  11  12
HETATM   12  C   UNL     1      44.025 -15.712   7.288  1.00  0.00     0.061 C 
BRANCH  12  13
HETATM   13  C   UNL     1      43.755 -16.299   5.915  1.00  0.00    -0.023 A 
HETATM   14  C   UNL     1      44.033 -17.646   5.610  1.00  0.00     0.077 A 
HETATM   15  C   UNL     1      43.728 -18.149   4.336  1.00  0.00     0.074 A 
HETATM   16  C   UNL     1      43.143 -17.328   3.369  1.00  0.00     0.070 A 
HETATM   17  C   UNL     1      42.851 -16.001   3.680  1.00  0.00     0.037 A 
HETATM   18  C   UNL     1      43.157 -15.488   4.940  1.00  0.00     0.013 A 
BRANCH  14  19
HETATM   19  O   UNL     1      44.586 -18.382   6.625  1.00  0.00    -0.355 OA
HETATM   20  C   UNL     1      43.857 -19.502   7.108  1.00  0.00     0.210 C 
ENDBRANCH  14  19
BRANCH  16  21
HETATM   21  O   UNL     1      42.794 -17.703   2.099  1.00  0.00    -0.356 OA
HETATM   22  C   UNL     1      43.815 -17.655   1.110  1.00  0.00     0.210 C 
ENDBRANCH  16  21
ENDBRANCH  12  13
ENDBRANCH  11  12
ENDBRANCH   8  11
ENDBRANCH   2   7
BRANCH   1  23
HETATM   23  N   UNL     1      41.959 -11.132   8.448  1.00  0.00    -0.321 N 
HETATM   24  C   UNL     1      41.667 -10.246   7.425  1.00  0.00     0.265 C 
HETATM   25  O   UNL     1      42.205  -9.152   7.280  1.00  0.00    -0.267 OA
HETATM   26  H   UNL     1      41.699 -12.094   8.259  1.00  0.00     0.169 HD
BRANCH  24  27
HETATM   27  C   UNL     1      40.722 -10.820   6.378  1.00  0.00     0.097 C 
HETATM   28  C   UNL     1      39.520 -10.247   6.126  1.00  0.00     0.064 C 
HETATM   29  C   UNL     1      38.954  -9.105   6.931  1.00  0.00     0.078 C 
HETATM   30  O   UNL     1      38.626 -10.646   5.142  1.00  0.00    -0.353 OA
HETATM   31  C   UNL     1      39.141 -11.469   4.096  1.00  0.00     0.185 C 
HETATM   32  C   UNL     1      39.798 -12.715   4.649  1.00  0.00     0.106 C 
HETATM   33  S   UNL     1      41.315 -12.221   5.500  1.00  0.00    -0.120 SA
ENDBRANCH  24  27
ENDBRANCH   1  23
TORSDOF 8
ENDMDL
MODEL 9
REMARK VINA RESULT:      -7.6      3.128      8.276
REMARK  8 active torsions:
REMARK  status: ('A' for Active; 'I' for Inactive)
REMARK    1  A    between atoms: C_7  and  C_8 
REMARK       I    between atoms: C_8  and  N_9 
REMARK    2  A    between atoms: N_9  and  C_10 
REMARK    3  A    between atoms: C_11  and  C_12 
REMARK       I    between atoms: C_12  and  N_13 
REMARK    4  A    between atoms: N_13  and  C_14 
REMARK    5  A    between atoms: C_14  and  C_15 
REMARK    6  A    between atoms: C_15  and  C_16 
REMARK    7  A    between atoms: C_17  and  O_18 
REMARK    8  A    between atoms: C_21  and  O_22 
ROOT
HETATM    1  C   UNL     1      43.086 -17.774   4.158  1.00  0.00     0.050 A 
HETATM    2  C   UNL     1      43.791 -17.575   5.356  1.00  0.00     0.058 A 
HETATM    3  C   UNL     1      44.783 -18.496   5.745  1.00  0.00     0.019 A 
HETATM    4  C   UNL     1      45.060 -19.617   4.962  1.00  0.00     0.001 A 
HETATM    5  C   UNL     1      44.325 -19.845   3.804  1.00  0.00     0.002 A 
HETATM    6  C   UNL     1      43.337 -18.938   3.411  1.00  0.00     0.030 A 
ENDROOT
BRANCH   2   7
HETATM    7  C   UNL     1      43.382 -16.580   6.383  1.00  0.00     0.253 C 
HETATM    8  N   UNL     1      44.317 -15.603   6.651  1.00  0.00    -0.356 N 
HETATM    9  H   UNL     1      45.038 -15.436   5.961  1.00  0.00     0.162 HD
HETATM   10  O   UNL     1      42.324 -16.714   6.987  1.00  0.00    -0.268 OA
BRANCH   8  11
HETATM   11  C   UNL     1      44.164 -14.661   7.741  1.00  0.00     0.127 C 
BRANCH  11  12
HETATM   12  C   UNL     1      44.844 -13.315   7.491  1.00  0.00     0.061 C 
BRANCH  12  13
HETATM   13  C   UNL     1      44.561 -12.349   8.626  1.00  0.00    -0.023 A 
HETATM   14  C   UNL     1      43.458 -11.474   8.604  1.00  0.00     0.077 A 
HETATM   15  C   UNL     1      43.218 -10.627   9.697  1.00  0.00     0.074 A 
HETATM   16  C   UNL     1      44.061 -10.649  10.811  1.00  0.00     0.070 A 
HETATM   17  C   UNL     1      45.141 -11.530  10.838  1.00  0.00     0.037 A 
HETATM   18  C   UNL     1      45.393 -12.370   9.755  1.00  0.00     0.013 A 
BRANCH  14  19
HETATM   19  O   UNL     1      42.673 -11.535   7.482  1.00  0.00    -0.355 OA
HETATM   20  C   UNL     1      41.358 -11.002   7.561  1.00  0.00     0.210 C 
ENDBRANCH  14  19
BRANCH  16  21
HETATM   21  O   UNL     1      43.928  -9.880  11.937  1.00  0.00    -0.356 OA
HETATM   22  C   UNL     1      43.073 -10.376  12.958  1.00  0.00     0.210 C 
ENDBRANCH  16  21
ENDBRANCH  12  13
ENDBRANCH  11  12
ENDBRANCH   8  11
ENDBRANCH   2   7
BRANCH   1  23
HETATM   23  N   UNL     1      42.133 -16.893   3.610  1.00  0.00    -0.321 N 
HETATM   24  C   UNL     1      42.417 -15.700   2.968  1.00  0.00     0.265 C 
HETATM   25  O   UNL     1      43.549 -15.283   2.744  1.00  0.00    -0.267 OA
HETATM   26  H   UNL     1      41.204 -17.258   3.430  1.00  0.00     0.169 HD
BRANCH  24  27
HETATM   27  C   UNL     1      41.183 -15.008   2.403  1.00  0.00     0.097 C 
HETATM   28  C   UNL     1      40.740 -15.273   1.150  1.00  0.00     0.064 C 
HETATM   29  C   UNL     1      41.482 -16.144   0.169  1.00  0.00     0.078 C 
HETATM   30  O   UNL     1      39.587 -14.757   0.575  1.00  0.00    -0.353 OA
HETATM   31  C   UNL     1      38.615 -14.204   1.461  1.00  0.00     0.185 C 
HETATM   32  C   UNL     1      39.216 -13.121   2.331  1.00  0.00     0.106 C 
HETATM   33  S   UNL     1      40.360 -13.903   3.492  1.00  0.00    -0.120 SA
ENDBRANCH  24  27
ENDBRANCH   1  23
TORSDOF 8
ENDMDL
MODEL 10
REMARK VINA RESULT:      -7.6      2.945      6.269
REMARK  8 active torsions:
REMARK  status: ('A' for Active; 'I' for Inactive)
REMARK    1  A    between atoms: C_7  and  C_8 
REMARK       I    between atoms: C_8  and  N_9 
REMARK    2  A    between atoms: N_9  and  C_10 
REMARK    3  A    between atoms: C_11  and  C_12 
REMARK       I    between atoms: C_12  and  N_13 
REMARK    4  A    between atoms: N_13  and  C_14 
REMARK    5  A    between atoms: C_14  and  C_15 
REMARK    6  A    between atoms: C_15  and  C_16 
REMARK    7  A    between atoms: C_17  and  O_18 
REMARK    8  A    between atoms: C_21  and  O_22 
ROOT
HETATM    1  C   UNL     1      43.204 -17.066   1.675  1.00  0.00     0.050 A 
HETATM    2  C   UNL     1      43.496 -16.924   3.040  1.00  0.00     0.058 A 
HETATM    3  C   UNL     1      43.908 -18.046   3.788  1.00  0.00     0.019 A 
HETATM    4  C   UNL     1      44.010 -19.301   3.188  1.00  0.00     0.001 A 
HETATM    5  C   UNL     1      43.668 -19.454   1.849  1.00  0.00     0.002 A 
HETATM    6  C   UNL     1      43.255 -18.347   1.101  1.00  0.00     0.030 A 
ENDROOT
BRANCH   2   7
HETATM    7  C   UNL     1      43.154 -15.707   3.823  1.00  0.00     0.253 C 
HETATM    8  N   UNL     1      42.509 -15.947   5.018  1.00  0.00    -0.356 N 
HETATM    9  H   UNL     1      42.587 -16.871   5.421  1.00  0.00     0.162 HD
HETATM   10  O   UNL     1      43.363 -14.593   3.357  1.00  0.00    -0.268 OA
BRANCH   8  11
HETATM   11  C   UNL     1      41.947 -14.881   5.824  1.00  0.00     0.127 C 
BRANCH  11  12
HETATM   12  C   UNL     1      40.420 -14.910   5.902  1.00  0.00     0.061 C 
BRANCH  12  13
HETATM   13  C   UNL     1      39.818 -13.789   5.075  1.00  0.00    -0.023 A 
HETATM   14  C   UNL     1      39.393 -12.579   5.654  1.00  0.00     0.077 A 
HETATM   15  C   UNL     1      38.878 -11.558   4.839  1.00  0.00     0.074 A 
HETATM   16  C   UNL     1      38.790 -11.731   3.455  1.00  0.00     0.070 A 
HETATM   17  C   UNL     1      39.230 -12.923   2.883  1.00  0.00     0.037 A 
HETATM   18  C   UNL     1      39.736 -13.946   3.683  1.00  0.00     0.013 A 
BRANCH  14  19
HETATM   19  O   UNL     1      39.535 -12.488   7.014  1.00  0.00    -0.355 OA
HETATM   20  C   UNL     1      39.629 -11.192   7.589  1.00  0.00     0.210 C 
ENDBRANCH  14  19
BRANCH  16  21
HETATM   21  O   UNL     1      38.316 -10.812   2.558  1.00  0.00    -0.356 OA
HETATM   22  C   UNL     1      37.663 -11.319   1.401  1.00  0.00     0.210 C 
ENDBRANCH  16  21
ENDBRANCH  12  13
ENDBRANCH  11  12
ENDBRANCH   8  11
ENDBRANCH   2   7
BRANCH   1  23
HETATM   23  N   UNL     1      42.864 -16.018   0.795  1.00  0.00    -0.321 N 
HETATM   24  C   UNL     1      41.579 -15.581   0.523  1.00  0.00     0.265 C 
HETATM   25  O   UNL     1      40.568 -16.020   1.062  1.00  0.00    -0.267 OA
HETATM   26  H   UNL     1      43.595 -15.363   0.541  1.00  0.00     0.169 HD
BRANCH  24  27
HETATM   27  C   UNL     1      41.535 -14.372  -0.402  1.00  0.00     0.097 C 
HETATM   28  C   UNL     1      41.180 -14.495  -1.704  1.00  0.00     0.064 C 
HETATM   29  C   UNL     1      40.939 -15.819  -2.383  1.00  0.00     0.078 C 
HETATM   30  O   UNL     1      41.033 -13.447  -2.604  1.00  0.00    -0.353 OA
HETATM   31  C   UNL     1      40.892 -12.138  -2.054  1.00  0.00     0.185 C 
HETATM   32  C   UNL     1      42.049 -11.798  -1.139  1.00  0.00     0.106 C 
HETATM   33  S   UNL     1      41.918 -12.827   0.341  1.00  0.00    -0.120 SA
ENDBRANCH  24  27
ENDBRANCH   1  23
TORSDOF 8
ENDMDL
