MODEL 1
REMARK VINA RESULT:      -9.3      0.000      0.000
REMARK  6 active torsions:
REMARK  status: ('A' for Active; 'I' for Inactive)
REMARK    1  A    between atoms: C_4  and  C_5 
REMARK    2  A    between atoms: C_5  and  C_6 
REMARK    3  A    between atoms: C_8  and  C_9 
REMARK    4  A    between atoms: C_9  and  C_10 
REMARK       I    between atoms: C_10  and  N_11 
REMARK    5  A    between atoms: N_11  and  N_12 
REMARK       I    between atoms: N_12  and  C_13 
REMARK       I    between atoms: C_13  and  N_14 
REMARK    6  A    between atoms: N_14  and  C_15 
ROOT
HETATM    1  C   UNL     1      40.839 -12.528   6.065  1.00  0.00     0.238 C 
HETATM    2  N   UNL     1      40.978 -13.899   6.081  1.00  0.00    -0.266 N 
HETATM    3  O   UNL     1      41.690 -11.775   5.595  1.00  0.00    -0.272 OA
HETATM    4  H   UNL     1      40.342 -14.535   6.564  1.00  0.00     0.190 HD
ENDROOT
BRANCH   1   5
HETATM    5  C   UNL     1      39.539 -12.064   6.671  1.00  0.00     0.139 C 
BRANCH   5   6
HETATM    6  C   UNL     1      39.759 -11.175   7.893  1.00  0.00     0.185 C 
HETATM    7  N   UNL     1      41.106 -11.371   8.424  1.00  0.00    -0.363 N 
HETATM    8  C   UNL     1      41.787 -10.303   8.962  1.00  0.00     0.125 C 
HETATM    9  H   UNL     1      41.226 -12.261   8.906  1.00  0.00     0.161 HD
HETATM   10  N   UNL     1      41.470  -9.055   8.776  1.00  0.00    -0.159 NA
HETATM   11  N   UNL     1      40.376  -8.787   8.012  1.00  0.00    -0.244 N 
HETATM   12  C   UNL     1      39.510  -9.719   7.493  1.00  0.00     0.261 C 
HETATM   13  H   UNL     1      40.203  -7.812   7.796  1.00  0.00     0.192 HD
HETATM   14  O   UNL     1      38.560  -9.374   6.788  1.00  0.00    -0.269 OA
BRANCH   8  15
HETATM   15  C   UNL     1      43.000 -10.597   9.839  1.00  0.00     0.118 C 
BRANCH  15  16
HETATM   16  C   UNL     1      42.719 -10.441  11.315  1.00  0.00    -0.051 A 
HETATM   17  C   UNL     1      41.604 -11.065  11.894  1.00  0.00     0.007 A 
HETATM   18  C   UNL     1      41.368 -10.963  13.267  1.00  0.00     0.001 A 
HETATM   19  C   UNL     1      42.243 -10.242  14.077  1.00  0.00     0.000 A 
HETATM   20  C   UNL     1      43.359  -9.626  13.515  1.00  0.00     0.001 A 
HETATM   21  C   UNL     1      43.600  -9.731  12.144  1.00  0.00     0.007 A 
ENDBRANCH  15  16
ENDBRANCH   8  15
ENDBRANCH   5   6
ENDBRANCH   1   5
BRANCH   2  22
HETATM   22  N   UNL     1      42.151 -14.467   5.561  1.00  0.00    -0.249 N 
HETATM   23  C   UNL     1      42.044 -15.754   5.052  1.00  0.00     0.339 C 
HETATM   24  N   UNL     1      43.263 -16.234   4.630  1.00  0.00    -0.308 N 
HETATM   25  O   UNL     1      40.958 -16.320   4.976  1.00  0.00    -0.245 OA
HETATM   26  H   UNL     1      44.019 -15.564   4.639  1.00  0.00     0.170 HD
HETATM   27  H   UNL     1      43.006 -14.175   6.028  1.00  0.00     0.192 HD
BRANCH  24  28
HETATM   28  C   UNL     1      43.540 -17.495   4.061  1.00  0.00     0.038 A 
HETATM   29  C   UNL     1      44.019 -18.590   4.785  1.00  0.00     0.055 A 
HETATM   30  C   UNL     1      44.262 -19.814   4.147  1.00  0.00     0.058 A 
HETATM   31 CL   UNL     1      44.850 -21.123   5.113  1.00  0.00    -0.082 Cl
HETATM   32  C   UNL     1      44.030 -19.948   2.775  1.00  0.00     0.055 A 
HETATM   33 CL   UNL     1      44.305 -21.426   1.923  1.00  0.00    -0.083 Cl
HETATM   34  C   UNL     1      43.560 -18.855   2.047  1.00  0.00     0.028 A 
HETATM   35  C   UNL     1      43.318 -17.636   2.686  1.00  0.00     0.031 A 
ENDBRANCH  24  28
ENDBRANCH   2  22
TORSDOF 6
ENDMDL
MODEL 2
REMARK VINA RESULT:      -9.1      1.700      2.407
REMARK  6 active torsions:
REMARK  status: ('A' for Active; 'I' for Inactive)
REMARK    1  A    between atoms: C_4  and  C_5 
REMARK    2  A    between atoms: C_5  and  C_6 
REMARK    3  A    between atoms: C_8  and  C_9 
REMARK    4  A    between atoms: C_9  and  C_10 
REMARK       I    between atoms: C_10  and  N_11 
REMARK    5  A    between atoms: N_11  and  N_12 
REMARK       I    between atoms: N_12  and  C_13 
REMARK       I    between atoms: C_13  and  N_14 
REMARK    6  A    between atoms: N_14  and  C_15 
ROOT
HETATM    1  C   UNL     1      39.522 -12.286   6.574  1.00  0.00     0.238 C 
HETATM    2  N   UNL     1      40.403 -13.326   6.784  1.00  0.00    -0.266 N 
HETATM    3  O   UNL     1      38.544 -12.378   5.837  1.00  0.00    -0.272 OA
HETATM    4  H   UNL     1      41.280 -13.240   7.299  1.00  0.00     0.190 HD
ENDROOT
BRANCH   1   5
HETATM    5  C   UNL     1      39.886 -11.046   7.350  1.00  0.00     0.139 C 
BRANCH   5   6
HETATM    6  C   UNL     1      39.077 -10.916   8.639  1.00  0.00     0.185 C 
HETATM    7  N   UNL     1      39.871 -11.366   9.781  1.00  0.00    -0.363 N 
HETATM    8  C   UNL     1      39.734 -10.733  10.995  1.00  0.00     0.125 C 
HETATM    9  H   UNL     1      39.987 -12.378   9.819  1.00  0.00     0.161 HD
HETATM   10  N   UNL     1      39.184  -9.566  11.163  1.00  0.00    -0.159 NA
HETATM   11  N   UNL     1      38.689  -8.936  10.062  1.00  0.00    -0.244 N 
HETATM   12  C   UNL     1      38.629  -9.462   8.794  1.00  0.00     0.261 C 
HETATM   13  H   UNL     1      38.355  -7.988  10.196  1.00  0.00     0.192 HD
HETATM   14  O   UNL     1      38.185  -8.797   7.856  1.00  0.00    -0.269 OA
BRANCH   8  15
HETATM   15  C   UNL     1      40.265 -11.444  12.236  1.00  0.00     0.118 C 
BRANCH  15  16
HETATM   16  C   UNL     1      41.417 -10.718  12.891  1.00  0.00    -0.051 A 
HETATM   17  C   UNL     1      42.570 -10.408  12.155  1.00  0.00     0.007 A 
HETATM   18  C   UNL     1      43.616  -9.695  12.744  1.00  0.00     0.001 A 
HETATM   19  C   UNL     1      43.522  -9.281  14.071  1.00  0.00     0.000 A 
HETATM   20  C   UNL     1      42.378  -9.575  14.810  1.00  0.00     0.001 A 
HETATM   21  C   UNL     1      41.329 -10.283  14.222  1.00  0.00     0.007 A 
ENDBRANCH  15  16
ENDBRANCH   8  15
ENDBRANCH   5   6
ENDBRANCH   1   5
BRANCH   2  22
HETATM   22  N   UNL     1      40.192 -14.539   6.110  1.00  0.00    -0.249 N 
HETATM   23  C   UNL     1      41.322 -15.191   5.638  1.00  0.00     0.339 C 
HETATM   24  N   UNL     1      40.994 -16.331   4.940  1.00  0.00    -0.308 N 
HETATM   25  O   UNL     1      42.448 -14.771   5.884  1.00  0.00    -0.245 OA
HETATM   26  H   UNL     1      40.018 -16.591   4.970  1.00  0.00     0.170 HD
HETATM   27  H   UNL     1      39.321 -14.586   5.587  1.00  0.00     0.192 HD
BRANCH  24  28
HETATM   28  C   UNL     1      41.874 -17.241   4.319  1.00  0.00     0.038 A 
HETATM   29  C   UNL     1      42.269 -17.156   2.981  1.00  0.00     0.055 A 
HETATM   30  C   UNL     1      43.155 -18.098   2.439  1.00  0.00     0.058 A 
HETATM   31 CL   UNL     1      43.599 -17.920   0.777  1.00  0.00    -0.082 Cl
HETATM   32  C   UNL     1      43.649 -19.135   3.234  1.00  0.00     0.055 A 
HETATM   33 CL   UNL     1      44.745 -20.328   2.635  1.00  0.00    -0.083 Cl
HETATM   34  C   UNL     1      43.251 -19.229   4.569  1.00  0.00     0.028 A 
HETATM   35  C   UNL     1      42.368 -18.289   5.106  1.00  0.00     0.031 A 
ENDBRANCH  24  28
ENDBRANCH   2  22
TORSDOF 6
ENDMDL
MODEL 3
REMARK VINA RESULT:      -9.1      4.064      6.656
REMARK  6 active torsions:
REMARK  status: ('A' for Active; 'I' for Inactive)
REMARK    1  A    between atoms: C_4  and  C_5 
REMARK    2  A    between atoms: C_5  and  C_6 
REMARK    3  A    between atoms: C_8  and  C_9 
REMARK    4  A    between atoms: C_9  and  C_10 
REMARK       I    between atoms: C_10  and  N_11 
REMARK    5  A    between atoms: N_11  and  N_12 
REMARK       I    between atoms: N_12  and  C_13 
REMARK       I    between atoms: C_13  and  N_14 
REMARK    6  A    between atoms: N_14  and  C_15 
ROOT
HETATM    1  C   UNL     1      42.268 -13.275   5.547  1.00  0.00     0.238 C 
HETATM    2  N   UNL     1      42.237 -14.462   6.247  1.00  0.00    -0.266 N 
HETATM    3  O   UNL     1      43.177 -12.981   4.773  1.00  0.00    -0.272 OA
HETATM    4  H   UNL     1      41.556 -14.679   6.976  1.00  0.00     0.190 HD
ENDROOT
BRANCH   1   5
HETATM    5  C   UNL     1      41.075 -12.398   5.826  1.00  0.00     0.139 C 
BRANCH   5   6
HETATM    6  C   UNL     1      40.570 -11.697   4.566  1.00  0.00     0.185 C 
HETATM    7  N   UNL     1      40.702 -12.580   3.409  1.00  0.00    -0.363 N 
HETATM    8  C   UNL     1      39.751 -12.545   2.415  1.00  0.00     0.125 C 
HETATM    9  H   UNL     1      41.666 -12.697   3.098  1.00  0.00     0.161 HD
HETATM   10  N   UNL     1      38.571 -12.013   2.540  1.00  0.00    -0.159 NA
HETATM   11  N   UNL     1      38.262 -11.431   3.731  1.00  0.00    -0.244 N 
HETATM   12  C   UNL     1      39.119 -11.266   4.792  1.00  0.00     0.261 C 
HETATM   13  H   UNL     1      37.306 -11.111   3.843  1.00  0.00     0.192 HD
HETATM   14  O   UNL     1      38.732 -10.749   5.841  1.00  0.00    -0.269 OA
BRANCH   8  15
HETATM   15  C   UNL     1      40.100 -13.174   1.070  1.00  0.00     0.118 C 
BRANCH  15  16
HETATM   16  C   UNL     1      40.463 -14.637   1.172  1.00  0.00    -0.051 A 
HETATM   17  C   UNL     1      39.669 -15.512   1.927  1.00  0.00     0.007 A 
HETATM   18  C   UNL     1      39.974 -16.874   1.986  1.00  0.00     0.001 A 
HETATM   19  C   UNL     1      41.070 -17.377   1.289  1.00  0.00     0.000 A 
HETATM   20  C   UNL     1      41.861 -16.519   0.528  1.00  0.00     0.001 A 
HETATM   21  C   UNL     1      41.555 -15.158   0.464  1.00  0.00     0.007 A 
ENDBRANCH  15  16
ENDBRANCH   8  15
ENDBRANCH   5   6
ENDBRANCH   1   5
BRANCH   2  22
HETATM   22  N   UNL     1      43.296 -15.369   6.094  1.00  0.00    -0.249 N 
HETATM   23  C   UNL     1      43.059 -16.469   5.282  1.00  0.00     0.339 C 
HETATM   24  N   UNL     1      44.140 -17.321   5.255  1.00  0.00    -0.308 N 
HETATM   25  O   UNL     1      42.008 -16.584   4.658  1.00  0.00    -0.245 OA
HETATM   26  H   UNL     1      44.970 -16.981   5.719  1.00  0.00     0.170 HD
HETATM   27  H   UNL     1      43.897 -15.459   6.909  1.00  0.00     0.192 HD
BRANCH  24  28
HETATM   28  C   UNL     1      44.261 -18.533   4.544  1.00  0.00     0.038 A 
HETATM   29  C   UNL     1      44.629 -19.748   5.127  1.00  0.00     0.055 A 
HETATM   30  C   UNL     1      44.721 -20.912   4.352  1.00  0.00     0.058 A 
HETATM   31 CL   UNL     1      45.178 -22.377   5.150  1.00  0.00    -0.082 Cl
HETATM   32  C   UNL     1      44.446 -20.866   2.983  1.00  0.00     0.055 A 
HETATM   33 CL   UNL     1      44.535 -22.260   1.966  1.00  0.00    -0.083 Cl
HETATM   34  C   UNL     1      44.086 -19.653   2.394  1.00  0.00     0.028 A 
HETATM   35  C   UNL     1      43.996 -18.494   3.170  1.00  0.00     0.031 A 
ENDBRANCH  24  28
ENDBRANCH   2  22
TORSDOF 6
ENDMDL
MODEL 4
REMARK VINA RESULT:      -9.0      5.990      9.383
REMARK  6 active torsions:
REMARK  status: ('A' for Active; 'I' for Inactive)
REMARK    1  A    between atoms: C_4  and  C_5 
REMARK    2  A    between atoms: C_5  and  C_6 
REMARK    3  A    between atoms: C_8  and  C_9 
REMARK    4  A    between atoms: C_9  and  C_10 
REMARK       I    between atoms: C_10  and  N_11 
REMARK    5  A    between atoms: N_11  and  N_12 
REMARK       I    between atoms: N_12  and  C_13 
REMARK       I    between atoms: C_13  and  N_14 
REMARK    6  A    between atoms: N_14  and  C_15 
ROOT
HETATM    1  C   UNL     1      41.089 -15.576   6.011  1.00  0.00     0.238 C 
HETATM    2  N   UNL     1      39.896 -15.514   5.323  1.00  0.00    -0.266 N 
HETATM    3  O   UNL     1      42.004 -14.775   5.834  1.00  0.00    -0.272 OA
HETATM    4  H   UNL     1      39.169 -16.229   5.369  1.00  0.00     0.190 HD
ENDROOT
BRANCH   1   5
HETATM    5  C   UNL     1      41.137 -16.715   6.997  1.00  0.00     0.139 C 
BRANCH   5   6
HETATM    6  C   UNL     1      42.269 -17.693   6.689  1.00  0.00     0.185 C 
HETATM    7  N   UNL     1      42.546 -17.709   5.254  1.00  0.00    -0.363 N 
HETATM    8  C   UNL     1      43.840 -17.871   4.814  1.00  0.00     0.125 C 
HETATM    9  H   UNL     1      41.829 -18.187   4.709  1.00  0.00     0.161 HD
HETATM   10  N   UNL     1      44.898 -17.710   5.553  1.00  0.00    -0.159 NA
HETATM   11  N   UNL     1      44.712 -17.380   6.861  1.00  0.00    -0.244 N 
HETATM   12  C   UNL     1      43.500 -17.293   7.504  1.00  0.00     0.261 C 
HETATM   13  H   UNL     1      45.545 -17.162   7.395  1.00  0.00     0.192 HD
HETATM   14  O   UNL     1      43.437 -16.958   8.687  1.00  0.00    -0.269 OA
BRANCH   8  15
HETATM   15  C   UNL     1      44.055 -18.265   3.356  1.00  0.00     0.118 C 
BRANCH  15  16
HETATM   16  C   UNL     1      44.148 -19.759   3.150  1.00  0.00    -0.051 A 
HETATM   17  C   UNL     1      43.735 -20.334   1.939  1.00  0.00     0.007 A 
HETATM   18  C   UNL     1      43.863 -21.708   1.727  1.00  0.00     0.001 A 
HETATM   19  C   UNL     1      44.408 -22.522   2.717  1.00  0.00     0.000 A 
HETATM   20  C   UNL     1      44.830 -21.961   3.921  1.00  0.00     0.001 A 
HETATM   21  C   UNL     1      44.708 -20.587   4.133  1.00  0.00     0.007 A 
ENDBRANCH  15  16
ENDBRANCH   8  15
ENDBRANCH   5   6
ENDBRANCH   1   5
BRANCH   2  22
HETATM   22  N   UNL     1      39.720 -14.509   4.360  1.00  0.00    -0.249 N 
HETATM   23  C   UNL     1      39.965 -14.862   3.041  1.00  0.00     0.339 C 
HETATM   24  N   UNL     1      39.825 -13.786   2.193  1.00  0.00    -0.308 N 
HETATM   25  O   UNL     1      40.229 -16.020   2.731  1.00  0.00    -0.245 OA
HETATM   26  H   UNL     1      39.459 -12.946   2.618  1.00  0.00     0.170 HD
HETATM   27  H   UNL     1      39.939 -13.570   4.684  1.00  0.00     0.192 HD
BRANCH  24  28
HETATM   28  C   UNL     1      39.997 -13.767   0.794  1.00  0.00     0.038 A 
HETATM   29  C   UNL     1      38.972 -14.020  -0.122  1.00  0.00     0.055 A 
HETATM   30  C   UNL     1      39.221 -13.975  -1.501  1.00  0.00     0.058 A 
HETATM   31 CL   UNL     1      37.899 -14.294  -2.569  1.00  0.00    -0.082 Cl
HETATM   32  C   UNL     1      40.503 -13.678  -1.972  1.00  0.00     0.055 A 
HETATM   33 CL   UNL     1      40.884 -13.602  -3.656  1.00  0.00    -0.083 Cl
HETATM   34  C   UNL     1      41.532 -13.434  -1.061  1.00  0.00     0.028 A 
HETATM   35  C   UNL     1      41.279 -13.480   0.313  1.00  0.00     0.031 A 
ENDBRANCH  24  28
ENDBRANCH   2  22
TORSDOF 6
ENDMDL
MODEL 5
REMARK VINA RESULT:      -8.9      7.256     10.349
REMARK  6 active torsions:
REMARK  status: ('A' for Active; 'I' for Inactive)
REMARK    1  A    between atoms: C_4  and  C_5 
REMARK    2  A    between atoms: C_5  and  C_6 
REMARK    3  A    between atoms: C_8  and  C_9 
REMARK    4  A    between atoms: C_9  and  C_10 
REMARK       I    between atoms: C_10  and  N_11 
REMARK    5  A    between atoms: N_11  and  N_12 
REMARK       I    between atoms: N_12  and  C_13 
REMARK       I    between atoms: C_13  and  N_14 
REMARK    6  A    between atoms: N_14  and  C_15 
ROOT
HETATM    1  C   UNL     1      41.598 -16.968   0.951  1.00  0.00     0.238 C 
HETATM    2  N   UNL     1      41.014 -15.994   0.170  1.00  0.00    -0.266 N 
HETATM    3  O   UNL     1      42.773 -17.307   0.830  1.00  0.00    -0.272 OA
HETATM    4  H   UNL     1      40.017 -15.776   0.174  1.00  0.00     0.190 HD
ENDROOT
BRANCH   1   5
HETATM    5  C   UNL     1      40.646 -17.554   1.963  1.00  0.00     0.139 C 
BRANCH   5   6
HETATM    6  C   UNL     1      41.154 -17.384   3.394  1.00  0.00     0.185 C 
HETATM    7  N   UNL     1      42.423 -18.089   3.566  1.00  0.00    -0.363 N 
HETATM    8  C   UNL     1      43.389 -17.557   4.389  1.00  0.00     0.125 C 
HETATM    9  H   UNL     1      42.322 -19.103   3.599  1.00  0.00     0.161 HD
HETATM   10  N   UNL     1      43.411 -16.324   4.803  1.00  0.00    -0.159 NA
HETATM   11  N   UNL     1      42.393 -15.508   4.414  1.00  0.00    -0.244 N 
HETATM   12  C   UNL     1      41.286 -15.890   3.695  1.00  0.00     0.261 C 
HETATM   13  H   UNL     1      42.478 -14.529   4.663  1.00  0.00     0.192 HD
HETATM   14  O   UNL     1      40.431 -15.066   3.367  1.00  0.00    -0.269 OA
BRANCH   8  15
HETATM   15  C   UNL     1      44.519 -18.473   4.849  1.00  0.00     0.118 C 
BRANCH  15  16
HETATM   16  C   UNL     1      44.477 -19.840   4.207  1.00  0.00    -0.051 A 
HETATM   17  C   UNL     1      44.331 -19.965   2.818  1.00  0.00     0.007 A 
HETATM   18  C   UNL     1      44.340 -21.225   2.215  1.00  0.00     0.001 A 
HETATM   19  C   UNL     1      44.499 -22.372   2.991  1.00  0.00     0.000 A 
HETATM   20  C   UNL     1      44.654 -22.259   4.371  1.00  0.00     0.001 A 
HETATM   21  C   UNL     1      44.650 -21.001   4.975  1.00  0.00     0.007 A 
ENDBRANCH  15  16
ENDBRANCH   8  15
ENDBRANCH   5   6
ENDBRANCH   1   5
BRANCH   2  22
HETATM   22  N   UNL     1      41.783 -15.373  -0.827  1.00  0.00    -0.249 N 
HETATM   23  C   UNL     1      41.614 -14.005  -0.979  1.00  0.00     0.339 C 
HETATM   24  N   UNL     1      42.366 -13.514  -2.023  1.00  0.00    -0.308 N 
HETATM   25  O   UNL     1      40.900 -13.363  -0.215  1.00  0.00    -0.245 OA
HETATM   26  H   UNL     1      43.005 -14.174  -2.443  1.00  0.00     0.170 HD
HETATM   27  H   UNL     1      41.972 -15.956  -1.639  1.00  0.00     0.192 HD
BRANCH  24  28
HETATM   28  C   UNL     1      42.446 -12.180  -2.471  1.00  0.00     0.038 A 
HETATM   29  C   UNL     1      43.099 -11.160  -1.775  1.00  0.00     0.055 A 
HETATM   30  C   UNL     1      43.142  -9.858  -2.292  1.00  0.00     0.058 A 
HETATM   31 CL   UNL     1      43.974  -8.653  -1.372  1.00  0.00    -0.082 Cl
HETATM   32  C   UNL     1      42.525  -9.567  -3.512  1.00  0.00     0.055 A 
HETATM   33 CL   UNL     1      42.539  -7.988  -4.211  1.00  0.00    -0.083 Cl
HETATM   34  C   UNL     1      41.864 -10.581  -4.207  1.00  0.00     0.028 A 
HETATM   35  C   UNL     1      41.824 -11.878  -3.689  1.00  0.00     0.031 A 
ENDBRANCH  24  28
ENDBRANCH   2  22
TORSDOF 6
ENDMDL
MODEL 6
REMARK VINA RESULT:      -8.7      5.990      8.128
REMARK  6 active torsions:
REMARK  status: ('A' for Active; 'I' for Inactive)
REMARK    1  A    between atoms: C_4  and  C_5 
REMARK    2  A    between atoms: C_5  and  C_6 
REMARK    3  A    between atoms: C_8  and  C_9 
REMARK    4  A    between atoms: C_9  and  C_10 
REMARK       I    between atoms: C_10  and  N_11 
REMARK    5  A    between atoms: N_11  and  N_12 
REMARK       I    between atoms: N_12  and  C_13 
REMARK       I    between atoms: C_13  and  N_14 
REMARK    6  A    between atoms: N_14  and  C_15 
ROOT
HETATM    1  C   UNL     1      42.721 -18.680   4.187  1.00  0.00     0.238 C 
HETATM    2  N   UNL     1      42.861 -18.708   2.816  1.00  0.00    -0.266 N 
HETATM    3  O   UNL     1      41.764 -18.154   4.749  1.00  0.00    -0.272 OA
HETATM    4  H   UNL     1      43.698 -19.037   2.331  1.00  0.00     0.190 HD
ENDROOT
BRANCH   1   5
HETATM    5  C   UNL     1      43.854 -19.367   4.905  1.00  0.00     0.139 C 
BRANCH   5   6
HETATM    6  C   UNL     1      44.406 -18.520   6.050  1.00  0.00     0.185 C 
HETATM    7  N   UNL     1      44.131 -17.105   5.810  1.00  0.00    -0.363 N 
HETATM    8  C   UNL     1      43.844 -16.279   6.871  1.00  0.00     0.125 C 
HETATM    9  H   UNL     1      44.712 -16.700   5.076  1.00  0.00     0.161 HD
HETATM   10  N   UNL     1      43.492 -16.690   8.055  1.00  0.00    -0.159 NA
HETATM   11  N   UNL     1      43.424 -18.033   8.263  1.00  0.00    -0.244 N 
HETATM   12  C   UNL     1      43.788 -19.006   7.363  1.00  0.00     0.261 C 
HETATM   13  H   UNL     1      43.054 -18.334   9.157  1.00  0.00     0.192 HD
HETATM   14  O   UNL     1      43.662 -20.200   7.639  1.00  0.00    -0.269 OA
BRANCH   8  15
HETATM   15  C   UNL     1      43.942 -14.772   6.652  1.00  0.00     0.118 C 
BRANCH  15  16
HETATM   16  C   UNL     1      43.092 -14.281   5.503  1.00  0.00    -0.051 A 
HETATM   17  C   UNL     1      43.693 -13.842   4.314  1.00  0.00     0.007 A 
HETATM   18  C   UNL     1      42.910 -13.433   3.233  1.00  0.00     0.001 A 
HETATM   19  C   UNL     1      41.520 -13.461   3.324  1.00  0.00     0.000 A 
HETATM   20  C   UNL     1      40.911 -13.905   4.497  1.00  0.00     0.001 A 
HETATM   21  C   UNL     1      41.692 -14.319   5.577  1.00  0.00     0.007 A 
ENDBRANCH  15  16
ENDBRANCH   8  15
ENDBRANCH   5   6
ENDBRANCH   1   5
BRANCH   2  22
HETATM   22  N   UNL     1      41.884 -18.090   2.021  1.00  0.00    -0.249 N 
HETATM   23  C   UNL     1      42.326 -17.118   1.136  1.00  0.00     0.339 C 
HETATM   24  N   UNL     1      41.279 -16.536   0.457  1.00  0.00    -0.308 N 
HETATM   25  O   UNL     1      43.522 -16.885   0.993  1.00  0.00    -0.245 OA
HETATM   26  H   UNL     1      40.376 -16.965   0.605  1.00  0.00     0.170 HD
HETATM   27  H   UNL     1      40.974 -17.996   2.467  1.00  0.00     0.192 HD
BRANCH  24  28
HETATM   28  C   UNL     1      41.346 -15.517  -0.515  1.00  0.00     0.038 A 
HETATM   29  C   UNL     1      41.755 -14.208  -0.248  1.00  0.00     0.055 A 
HETATM   30  C   UNL     1      41.801 -13.252  -1.272  1.00  0.00     0.058 A 
HETATM   31 CL   UNL     1      42.324 -11.656  -0.861  1.00  0.00    -0.082 Cl
HETATM   32  C   UNL     1      41.434 -13.602  -2.574  1.00  0.00     0.055 A 
HETATM   33 CL   UNL     1      41.469 -12.480  -3.887  1.00  0.00    -0.083 Cl
HETATM   34  C   UNL     1      41.016 -14.906  -2.845  1.00  0.00     0.028 A 
HETATM   35  C   UNL     1      40.971 -15.856  -1.821  1.00  0.00     0.031 A 
ENDBRANCH  24  28
ENDBRANCH   2  22
TORSDOF 6
ENDMDL
MODEL 7
REMARK VINA RESULT:      -8.6      6.913      9.678
REMARK  6 active torsions:
REMARK  status: ('A' for Active; 'I' for Inactive)
REMARK    1  A    between atoms: C_4  and  C_5 
REMARK    2  A    between atoms: C_5  and  C_6 
REMARK    3  A    between atoms: C_8  and  C_9 
REMARK    4  A    between atoms: C_9  and  C_10 
REMARK       I    between atoms: C_10  and  N_11 
REMARK    5  A    between atoms: N_11  and  N_12 
REMARK       I    between atoms: N_12  and  C_13 
REMARK       I    between atoms: C_13  and  N_14 
REMARK    6  A    between atoms: N_14  and  C_15 
ROOT
HETATM    1  C   UNL     1      39.068 -13.896   0.448  1.00  0.00     0.238 C 
HETATM    2  N   UNL     1      39.244 -15.152   0.986  1.00  0.00    -0.266 N 
HETATM    3  O   UNL     1      39.651 -12.900   0.872  1.00  0.00    -0.272 OA
HETATM    4  H   UNL     1      38.689 -15.970   0.728  1.00  0.00     0.190 HD
ENDROOT
BRANCH   1   5
HETATM    5  C   UNL     1      38.101 -13.884  -0.708  1.00  0.00     0.139 C 
BRANCH   5   6
HETATM    6  C   UNL     1      38.786 -13.523  -2.025  1.00  0.00     0.185 C 
HETATM    7  N   UNL     1      40.228 -13.391  -1.826  1.00  0.00    -0.363 N 
HETATM    8  C   UNL     1      41.091 -13.789  -2.821  1.00  0.00     0.125 C 
HETATM    9  H   UNL     1      40.491 -12.544  -1.323  1.00  0.00     0.161 HD
HETATM   10  N   UNL     1      40.765 -14.559  -3.818  1.00  0.00    -0.159 NA
HETATM   11  N   UNL     1      39.474 -14.983  -3.894  1.00  0.00    -0.244 N 
HETATM   12  C   UNL     1      38.449 -14.595  -3.064  1.00  0.00     0.261 C 
HETATM   13  H   UNL     1      39.262 -15.659  -4.619  1.00  0.00     0.192 HD
HETATM   14  O   UNL     1      37.317 -15.060  -3.200  1.00  0.00    -0.269 OA
BRANCH   8  15
HETATM   15  C   UNL     1      42.533 -13.298  -2.754  1.00  0.00     0.118 C 
BRANCH  15  16
HETATM   16  C   UNL     1      42.646 -11.799  -2.606  1.00  0.00    -0.051 A 
HETATM   17  C   UNL     1      43.165 -11.241  -1.428  1.00  0.00     0.007 A 
HETATM   18  C   UNL     1      43.316  -9.858  -1.305  1.00  0.00     0.001 A 
HETATM   19  C   UNL     1      42.953  -9.018  -2.356  1.00  0.00     0.000 A 
HETATM   20  C   UNL     1      42.444  -9.561  -3.534  1.00  0.00     0.001 A 
HETATM   21  C   UNL     1      42.299 -10.943  -3.661  1.00  0.00     0.007 A 
ENDBRANCH  15  16
ENDBRANCH   8  15
ENDBRANCH   5   6
ENDBRANCH   1   5
BRANCH   2  22
HETATM   22  N   UNL     1      40.107 -15.307   2.082  1.00  0.00    -0.249 N 
HETATM   23  C   UNL     1      40.831 -16.489   2.139  1.00  0.00     0.339 C 
HETATM   24  N   UNL     1      41.593 -16.561   3.284  1.00  0.00    -0.308 N 
HETATM   25  O   UNL     1      40.785 -17.308   1.227  1.00  0.00    -0.245 OA
HETATM   26  H   UNL     1      41.611 -15.721   3.845  1.00  0.00     0.170 HD
HETATM   27  H   UNL     1      39.785 -14.865   2.939  1.00  0.00     0.192 HD
BRANCH  24  28
HETATM   28  C   UNL     1      42.451 -17.607   3.681  1.00  0.00     0.038 A 
HETATM   29  C   UNL     1      42.625 -18.014   5.006  1.00  0.00     0.055 A 
HETATM   30  C   UNL     1      43.492 -19.070   5.319  1.00  0.00     0.058 A 
HETATM   31 CL   UNL     1      43.649 -19.517   6.982  1.00  0.00    -0.082 Cl
HETATM   32  C   UNL     1      44.195 -19.725   4.304  1.00  0.00     0.055 A 
HETATM   33 CL   UNL     1      45.278 -21.035   4.613  1.00  0.00    -0.083 Cl
HETATM   34  C   UNL     1      44.031 -19.316   2.979  1.00  0.00     0.028 A 
HETATM   35  C   UNL     1      43.165 -18.263   2.671  1.00  0.00     0.031 A 
ENDBRANCH  24  28
ENDBRANCH   2  22
TORSDOF 6
ENDMDL
MODEL 8
REMARK VINA RESULT:      -8.5      5.456      8.709
REMARK  6 active torsions:
REMARK  status: ('A' for Active; 'I' for Inactive)
REMARK    1  A    between atoms: C_4  and  C_5 
REMARK    2  A    between atoms: C_5  and  C_6 
REMARK    3  A    between atoms: C_8  and  C_9 
REMARK    4  A    between atoms: C_9  and  C_10 
REMARK       I    between atoms: C_10  and  N_11 
REMARK    5  A    between atoms: N_11  and  N_12 
REMARK       I    between atoms: N_12  and  C_13 
REMARK       I    between atoms: C_13  and  N_14 
REMARK    6  A    between atoms: N_14  and  C_15 
ROOT
HETATM    1  C   UNL     1      43.071 -13.254   4.349  1.00  0.00     0.238 C 
HETATM    2  N   UNL     1      42.155 -12.561   3.587  1.00  0.00    -0.266 N 
HETATM    3  O   UNL     1      44.037 -13.839   3.864  1.00  0.00    -0.272 OA
HETATM    4  H   UNL     1      41.288 -12.165   3.952  1.00  0.00     0.190 HD
ENDROOT
BRANCH   1   5
HETATM    5  C   UNL     1      42.762 -13.206   5.824  1.00  0.00     0.139 C 
BRANCH   5   6
HETATM    6  C   UNL     1      42.802 -14.591   6.465  1.00  0.00     0.185 C 
HETATM    7  N   UNL     1      42.510 -15.618   5.468  1.00  0.00    -0.363 N 
HETATM    8  C   UNL     1      43.148 -16.835   5.538  1.00  0.00     0.125 C 
HETATM    9  H   UNL     1      41.529 -15.647   5.192  1.00  0.00     0.161 HD
HETATM   10  N   UNL     1      44.222 -17.068   6.235  1.00  0.00    -0.159 NA
HETATM   11  N   UNL     1      44.738 -16.041   6.962  1.00  0.00    -0.244 N 
HETATM   12  C   UNL     1      44.176 -14.795   7.108  1.00  0.00     0.261 C 
HETATM   13  H   UNL     1      45.628 -16.212   7.418  1.00  0.00     0.192 HD
HETATM   14  O   UNL     1      44.739 -13.922   7.769  1.00  0.00    -0.269 OA
BRANCH   8  15
HETATM   15  C   UNL     1      42.560 -17.998   4.744  1.00  0.00     0.118 C 
BRANCH  15  16
HETATM   16  C   UNL     1      42.610 -17.784   3.250  1.00  0.00    -0.051 A 
HETATM   17  C   UNL     1      41.451 -17.428   2.545  1.00  0.00     0.007 A 
HETATM   18  C   UNL     1      41.503 -17.182   1.171  1.00  0.00     0.001 A 
HETATM   19  C   UNL     1      42.711 -17.286   0.487  1.00  0.00     0.000 A 
HETATM   20  C   UNL     1      43.872 -17.631   1.177  1.00  0.00     0.001 A 
HETATM   21  C   UNL     1      43.823 -17.871   2.551  1.00  0.00     0.007 A 
ENDBRANCH  15  16
ENDBRANCH   8  15
ENDBRANCH   5   6
ENDBRANCH   1   5
BRANCH   2  22
HETATM   22  N   UNL     1      42.313 -12.536   2.193  1.00  0.00    -0.249 N 
HETATM   23  C   UNL     1      41.373 -13.234   1.450  1.00  0.00     0.339 C 
HETATM   24  N   UNL     1      41.661 -13.195   0.104  1.00  0.00    -0.308 N 
HETATM   25  O   UNL     1      40.403 -13.762   1.985  1.00  0.00    -0.245 OA
HETATM   26  H   UNL     1      42.423 -12.586  -0.158  1.00  0.00     0.170 HD
HETATM   27  H   UNL     1      43.279 -12.490   1.878  1.00  0.00     0.192 HD
BRANCH  24  28
HETATM   28  C   UNL     1      40.934 -13.789  -0.948  1.00  0.00     0.038 A 
HETATM   29  C   UNL     1      39.692 -13.331  -1.395  1.00  0.00     0.055 A 
HETATM   30  C   UNL     1      39.034 -13.973  -2.454  1.00  0.00     0.058 A 
HETATM   31 CL   UNL     1      37.503 -13.342  -2.951  1.00  0.00    -0.082 Cl
HETATM   32  C   UNL     1      39.616 -15.083  -3.070  1.00  0.00     0.055 A 
HETATM   33 CL   UNL     1      38.867 -15.922  -4.381  1.00  0.00    -0.083 Cl
HETATM   34  C   UNL     1      40.853 -15.550  -2.622  1.00  0.00     0.028 A 
HETATM   35  C   UNL     1      41.506 -14.907  -1.567  1.00  0.00     0.031 A 
ENDBRANCH  24  28
ENDBRANCH   2  22
TORSDOF 6
ENDMDL
MODEL 9
REMARK VINA RESULT:      -8.5      5.686      6.611
REMARK  6 active torsions:
REMARK  status: ('A' for Active; 'I' for Inactive)
REMARK    1  A    between atoms: C_4  and  C_5 
REMARK    2  A    between atoms: C_5  and  C_6 
REMARK    3  A    between atoms: C_8  and  C_9 
REMARK    4  A    between atoms: C_9  and  C_10 
REMARK       I    between atoms: C_10  and  N_11 
REMARK    5  A    between atoms: N_11  and  N_12 
REMARK       I    between atoms: N_12  and  C_13 
REMARK       I    between atoms: C_13  and  N_14 
REMARK    6  A    between atoms: N_14  and  C_15 
ROOT
HETATM    1  C   UNL     1      40.662 -14.410  -0.467  1.00  0.00     0.238 C 
HETATM    2  N   UNL     1      40.816 -15.780  -0.450  1.00  0.00    -0.266 N 
HETATM    3  O   UNL     1      41.579 -13.632  -0.213  1.00  0.00    -0.272 OA
HETATM    4  H   UNL     1      40.047 -16.444  -0.546  1.00  0.00     0.190 HD
ENDROOT
BRANCH   1   5
HETATM    5  C   UNL     1      39.265 -13.982  -0.836  1.00  0.00     0.139 C 
BRANCH   5   6
HETATM    6  C   UNL     1      38.634 -13.094   0.234  1.00  0.00     0.185 C 
HETATM    7  N   UNL     1      39.215 -13.389   1.543  1.00  0.00    -0.363 N 
HETATM    8  C   UNL     1      39.402 -12.371   2.449  1.00  0.00     0.125 C 
HETATM    9  H   UNL     1      38.904 -14.279   1.932  1.00  0.00     0.161 HD
HETATM   10  N   UNL     1      39.391 -11.105   2.152  1.00  0.00    -0.159 NA
HETATM   11  N   UNL     1      39.158 -10.762   0.855  1.00  0.00    -0.244 N 
HETATM   12  C   UNL     1      38.835 -11.629  -0.161  1.00  0.00     0.261 C 
HETATM   13  H   UNL     1      39.251  -9.779   0.624  1.00  0.00     0.192 HD
HETATM   14  O   UNL     1      38.669 -11.220  -1.311  1.00  0.00    -0.269 OA
BRANCH   8  15
HETATM   15  C   UNL     1      39.639 -12.748   3.908  1.00  0.00     0.118 C 
BRANCH  15  16
HETATM   16  C   UNL     1      40.928 -13.507   4.125  1.00  0.00    -0.051 A 
HETATM   17  C   UNL     1      42.135 -13.014   3.610  1.00  0.00     0.007 A 
HETATM   18  C   UNL     1      43.336 -13.688   3.849  1.00  0.00     0.001 A 
HETATM   19  C   UNL     1      43.344 -14.857   4.607  1.00  0.00     0.000 A 
HETATM   20  C   UNL     1      42.151 -15.352   5.131  1.00  0.00     0.001 A 
HETATM   21  C   UNL     1      40.952 -14.677   4.898  1.00  0.00     0.007 A 
ENDBRANCH  15  16
ENDBRANCH   8  15
ENDBRANCH   5   6
ENDBRANCH   1   5
BRANCH   2  22
HETATM   22  N   UNL     1      42.065 -16.318  -0.107  1.00  0.00    -0.249 N 
HETATM   23  C   UNL     1      42.080 -17.236   0.934  1.00  0.00     0.339 C 
HETATM   24  N   UNL     1      43.361 -17.648   1.227  1.00  0.00    -0.308 N 
HETATM   25  O   UNL     1      41.040 -17.622   1.457  1.00  0.00    -0.245 OA
HETATM   26  H   UNL     1      44.075 -17.328   0.589  1.00  0.00     0.170 HD
HETATM   27  H   UNL     1      42.849 -15.684  -0.237  1.00  0.00     0.192 HD
BRANCH  24  28
HETATM   28  C   UNL     1      43.762 -18.567   2.218  1.00  0.00     0.038 A 
HETATM   29  C   UNL     1      44.045 -18.216   3.541  1.00  0.00     0.055 A 
HETATM   30  C   UNL     1      44.432 -19.192   4.470  1.00  0.00     0.058 A 
HETATM   31 CL   UNL     1      44.759 -18.678   6.088  1.00  0.00    -0.082 Cl
HETATM   32  C   UNL     1      44.540 -20.529   4.078  1.00  0.00     0.055 A 
HETATM   33 CL   UNL     1      45.008 -21.785   5.168  1.00  0.00    -0.083 Cl
HETATM   34  C   UNL     1      44.267 -20.883   2.756  1.00  0.00     0.028 A 
HETATM   35  C   UNL     1      43.882 -19.908   1.833  1.00  0.00     0.031 A 
ENDBRANCH  24  28
ENDBRANCH   2  22
TORSDOF 6
ENDMDL
MODEL 10
REMARK VINA RESULT:      -8.4      6.480      8.831
REMARK  6 active torsions:
REMARK  status: ('A' for Active; 'I' for Inactive)
REMARK    1  A    between atoms: C_4  and  C_5 
REMARK    2  A    between atoms: C_5  and  C_6 
REMARK    3  A    between atoms: C_8  and  C_9 
REMARK    4  A    between atoms: C_9  and  C_10 
REMARK       I    between atoms: C_10  and  N_11 
REMARK    5  A    between atoms: N_11  and  N_12 
REMARK       I    between atoms: N_12  and  C_13 
REMARK       I    between atoms: C_13  and  N_14 
REMARK    6  A    between atoms: N_14  and  C_15 
ROOT
HETATM    1  C   UNL     1      41.067 -13.305   2.213  1.00  0.00     0.238 C 
HETATM    2  N   UNL     1      41.113 -14.653   2.499  1.00  0.00    -0.266 N 
HETATM    3  O   UNL     1      42.067 -12.593   2.193  1.00  0.00    -0.272 OA
HETATM    4  H   UNL     1      40.288 -15.240   2.633  1.00  0.00     0.190 HD
ENDROOT
BRANCH   1   5
HETATM    5  C   UNL     1      39.671 -12.816   1.924  1.00  0.00     0.139 C 
BRANCH   5   6
HETATM    6  C   UNL     1      39.382 -12.756   0.425  1.00  0.00     0.185 C 
HETATM    7  N   UNL     1      40.630 -12.824  -0.332  1.00  0.00    -0.363 N 
HETATM    8  C   UNL     1      40.659 -13.488  -1.537  1.00  0.00     0.125 C 
HETATM    9  H   UNL     1      41.179 -11.965  -0.286  1.00  0.00     0.161 HD
HETATM   10  N   UNL     1      39.753 -14.330  -1.938  1.00  0.00    -0.159 NA
HETATM   11  N   UNL     1      38.690 -14.554  -1.118  1.00  0.00    -0.244 N 
HETATM   12  C   UNL     1      38.432 -13.898   0.062  1.00  0.00     0.261 C 
HETATM   13  H   UNL     1      38.047 -15.285  -1.401  1.00  0.00     0.192 HD
HETATM   14  O   UNL     1      37.453 -14.196   0.747  1.00  0.00    -0.269 OA
BRANCH   8  15
HETATM   15  C   UNL     1      41.835 -13.223  -2.472  1.00  0.00     0.118 C 
BRANCH  15  16
HETATM   16  C   UNL     1      42.319 -11.792  -2.429  1.00  0.00    -0.051 A 
HETATM   17  C   UNL     1      41.826 -10.850  -3.345  1.00  0.00     0.007 A 
HETATM   18  C   UNL     1      42.234  -9.516  -3.278  1.00  0.00     0.001 A 
HETATM   19  C   UNL     1      43.135  -9.107  -2.297  1.00  0.00     0.000 A 
HETATM   20  C   UNL     1      43.625 -10.032  -1.377  1.00  0.00     0.001 A 
HETATM   21  C   UNL     1      43.214 -11.364  -1.438  1.00  0.00     0.007 A 
ENDBRANCH  15  16
ENDBRANCH   8  15
ENDBRANCH   5   6
ENDBRANCH   1   5
BRANCH   2  22
HETATM   22  N   UNL     1      42.350 -15.240   2.804  1.00  0.00    -0.249 N 
HETATM   23  C   UNL     1      42.348 -16.607   3.041  1.00  0.00     0.339 C 
HETATM   24  N   UNL     1      43.599 -17.063   3.392  1.00  0.00    -0.308 N 
HETATM   25  O   UNL     1      41.329 -17.276   2.895  1.00  0.00    -0.245 OA
HETATM   26  H   UNL     1      44.343 -16.385   3.315  1.00  0.00     0.170 HD
HETATM   27  H   UNL     1      42.990 -14.637   3.315  1.00  0.00     0.192 HD
BRANCH  24  28
HETATM   28  C   UNL     1      43.975 -18.386   3.704  1.00  0.00     0.038 A 
HETATM   29  C   UNL     1      44.085 -19.409   2.760  1.00  0.00     0.055 A 
HETATM   30  C   UNL     1      44.473 -20.699   3.150  1.00  0.00     0.058 A 
HETATM   31 CL   UNL     1      44.592 -21.910   1.921  1.00  0.00    -0.082 Cl
HETATM   32  C   UNL     1      44.749 -20.972   4.492  1.00  0.00     0.055 A 
HETATM   33 CL   UNL     1      45.234 -22.536   5.045  1.00  0.00    -0.083 Cl
HETATM   34  C   UNL     1      44.632 -19.955   5.440  1.00  0.00     0.028 A 
HETATM   35  C   UNL     1      44.245 -18.671   5.048  1.00  0.00     0.031 A 
ENDBRANCH  24  28
ENDBRANCH   2  22
TORSDOF 6
ENDMDL
