MODEL 1
REMARK VINA RESULT:      -8.3      0.000      0.000
REMARK  6 active torsions:
REMARK  status: ('A' for Active; 'I' for Inactive)
REMARK    1  A    between atoms: C_2  and  O_3 
REMARK    2  A    between atoms: O_3  and  C_4 
REMARK    3  A    between atoms: C_8  and  C_9 
REMARK    4  A    between atoms: C_9  and  N_10 
REMARK       I    between atoms: N_10  and  C_11 
REMARK       I    between atoms: C_11  and  N_12 
REMARK    5  A    between atoms: N_12  and  C_13 
REMARK    6  A    between atoms: C_14  and  C_15 
ROOT
HETATM    1  N   UNL     1      43.697 -14.030   7.320  1.00  0.00    -0.339 N 
HETATM    2  C   UNL     1      44.742 -13.356   7.894  1.00  0.00     0.316 C 
HETATM    3  N   UNL     1      44.411 -12.836   9.122  1.00  0.00    -0.338 N 
HETATM    4  O   UNL     1      45.841 -13.233   7.368  1.00  0.00    -0.247 OA
HETATM    5  H   UNL     1      42.797 -14.029   7.772  1.00  0.00     0.164 HD
HETATM    6  H   UNL     1      43.587 -13.207   9.576  1.00  0.00     0.164 HD
ENDROOT
BRANCH   1   7
HETATM    7  C   UNL     1      43.803 -14.630   6.009  1.00  0.00     0.163 C 
BRANCH   7   8
HETATM    8  C   UNL     1      43.481 -16.101   6.023  1.00  0.00    -0.035 A 
HETATM    9  C   UNL     1      43.588 -16.866   7.187  1.00  0.00     0.028 A 
HETATM   10  C   UNL     1      43.336 -18.227   7.116  1.00  0.00     0.120 A 
HETATM   11  N   UNL     1      43.011 -18.875   5.977  1.00  0.00    -0.237 NA
HETATM   12  C   UNL     1      42.948 -18.133   4.857  1.00  0.00     0.165 A 
HETATM   13  C   UNL     1      43.155 -16.762   4.834  1.00  0.00     0.066 A 
BRANCH  12  14
HETATM   14  O   UNL     1      42.644 -18.714   3.648  1.00  0.00    -0.324 OA
BRANCH  14  15
HETATM   15  C   UNL     1      43.706 -19.138   2.772  1.00  0.00     0.058 C 
HETATM   16  C   UNL     1      44.871 -19.782   3.537  1.00  0.00     0.045 C 
HETATM   17  C   UNL     1      44.177 -18.030   1.816  1.00  0.00     0.045 C 
HETATM   18  C   UNL     1      43.051 -20.237   1.912  1.00  0.00     0.045 C 
ENDBRANCH  14  15
ENDBRANCH  12  14
ENDBRANCH   7   8
ENDBRANCH   1   7
BRANCH   3  19
HETATM   19  C   UNL     1      45.364 -12.154   9.952  1.00  0.00     0.095 A 
HETATM   20  C   UNL     1      44.943 -11.194  11.048  1.00  0.00     0.043 A 
HETATM   21  C   UNL     1      45.581 -10.681   9.780  1.00  0.00     0.037 A 
BRANCH  20  22
HETATM   22  C   UNL     1      43.484 -10.926  11.335  1.00  0.00    -0.052 A 
HETATM   23  C   UNL     1      42.833 -11.542  12.419  1.00  0.00     0.007 A 
HETATM   24  C   UNL     1      41.487 -11.297  12.697  1.00  0.00     0.001 A 
HETATM   25  C   UNL     1      40.762 -10.416  11.899  1.00  0.00     0.000 A 
HETATM   26  C   UNL     1      41.384  -9.780  10.830  1.00  0.00     0.001 A 
HETATM   27  C   UNL     1      42.732 -10.031  10.556  1.00  0.00     0.007 A 
ENDBRANCH  20  22
ENDBRANCH   3  19
TORSDOF 6
ENDMDL
MODEL 2
REMARK VINA RESULT:      -8.0      1.166      1.635
REMARK  6 active torsions:
REMARK  status: ('A' for Active; 'I' for Inactive)
REMARK    1  A    between atoms: C_2  and  O_3 
REMARK    2  A    between atoms: O_3  and  C_4 
REMARK    3  A    between atoms: C_8  and  C_9 
REMARK    4  A    between atoms: C_9  and  N_10 
REMARK       I    between atoms: N_10  and  C_11 
REMARK       I    between atoms: C_11  and  N_12 
REMARK    5  A    between atoms: N_12  and  C_13 
REMARK    6  A    between atoms: C_14  and  C_15 
ROOT
HETATM    1  N   UNL     1      43.070 -13.282   6.722  1.00  0.00    -0.339 N 
HETATM    2  C   UNL     1      44.291 -13.184   7.332  1.00  0.00     0.316 C 
HETATM    3  N   UNL     1      44.200 -12.637   8.590  1.00  0.00    -0.338 N 
HETATM    4  O   UNL     1      45.340 -13.543   6.813  1.00  0.00    -0.247 OA
HETATM    5  H   UNL     1      42.256 -12.899   7.176  1.00  0.00     0.164 HD
HETATM    6  H   UNL     1      43.287 -12.620   9.023  1.00  0.00     0.164 HD
ENDROOT
BRANCH   1   7
HETATM    7  C   UNL     1      42.926 -13.795   5.378  1.00  0.00     0.163 C 
BRANCH   7   8
HETATM    8  C   UNL     1      42.555 -15.255   5.356  1.00  0.00    -0.035 A 
HETATM    9  C   UNL     1      41.617 -15.788   6.245  1.00  0.00     0.028 A 
HETATM   10  C   UNL     1      41.368 -17.151   6.211  1.00  0.00     0.120 A 
HETATM   11  N   UNL     1      41.995 -18.012   5.382  1.00  0.00    -0.237 NA
HETATM   12  C   UNL     1      42.921 -17.491   4.557  1.00  0.00     0.165 A 
HETATM   13  C   UNL     1      43.219 -16.137   4.498  1.00  0.00     0.066 A 
BRANCH  12  14
HETATM   14  O   UNL     1      43.624 -18.297   3.692  1.00  0.00    -0.324 OA
BRANCH  14  15
HETATM   15  C   UNL     1      43.270 -18.325   2.296  1.00  0.00     0.058 C 
HETATM   16  C   UNL     1      44.246 -17.515   1.430  1.00  0.00     0.045 C 
HETATM   17  C   UNL     1      41.805 -17.939   2.038  1.00  0.00     0.045 C 
HETATM   18  C   UNL     1      43.429 -19.809   1.910  1.00  0.00     0.045 C 
ENDBRANCH  14  15
ENDBRANCH  12  14
ENDBRANCH   7   8
ENDBRANCH   1   7
BRANCH   3  19
HETATM   19  C   UNL     1      45.337 -12.505   9.457  1.00  0.00     0.095 A 
HETATM   20  C   UNL     1      45.264 -11.775  10.783  1.00  0.00     0.043 A 
HETATM   21  C   UNL     1      46.001 -11.169   9.614  1.00  0.00     0.037 A 
BRANCH  20  22
HETATM   22  C   UNL     1      43.969 -11.167  11.271  1.00  0.00    -0.052 A 
HETATM   23  C   UNL     1      43.487  -9.959  10.735  1.00  0.00     0.007 A 
HETATM   24  C   UNL     1      42.289  -9.392  11.175  1.00  0.00     0.001 A 
HETATM   25  C   UNL     1      41.538 -10.029  12.159  1.00  0.00     0.000 A 
HETATM   26  C   UNL     1      41.983 -11.234  12.696  1.00  0.00     0.001 A 
HETATM   27  C   UNL     1      43.183 -11.795  12.252  1.00  0.00     0.007 A 
ENDBRANCH  20  22
ENDBRANCH   3  19
TORSDOF 6
ENDMDL
MODEL 3
REMARK VINA RESULT:      -7.8      5.980      9.129
REMARK  6 active torsions:
REMARK  status: ('A' for Active; 'I' for Inactive)
REMARK    1  A    between atoms: C_2  and  O_3 
REMARK    2  A    between atoms: O_3  and  C_4 
REMARK    3  A    between atoms: C_8  and  C_9 
REMARK    4  A    between atoms: C_9  and  N_10 
REMARK       I    between atoms: N_10  and  C_11 
REMARK       I    between atoms: C_11  and  N_12 
REMARK    5  A    between atoms: N_12  and  C_13 
REMARK    6  A    between atoms: C_14  and  C_15 
ROOT
HETATM    1  N   UNL     1      40.957 -16.606   3.711  1.00  0.00    -0.339 N 
HETATM    2  C   UNL     1      42.086 -16.550   4.482  1.00  0.00     0.316 C 
HETATM    3  N   UNL     1      42.567 -17.800   4.789  1.00  0.00    -0.338 N 
HETATM    4  O   UNL     1      42.604 -15.504   4.854  1.00  0.00    -0.247 OA
HETATM    5  H   UNL     1      40.540 -17.499   3.504  1.00  0.00     0.164 HD
HETATM    6  H   UNL     1      42.234 -18.574   4.231  1.00  0.00     0.164 HD
ENDROOT
BRANCH   1   7
HETATM    7  C   UNL     1      40.255 -15.412   3.297  1.00  0.00     0.163 C 
BRANCH   7   8
HETATM    8  C   UNL     1      40.862 -14.784   2.070  1.00  0.00    -0.035 A 
HETATM    9  C   UNL     1      41.463 -13.523   2.111  1.00  0.00     0.028 A 
HETATM   10  C   UNL     1      41.948 -12.978   0.932  1.00  0.00     0.120 A 
HETATM   11  N   UNL     1      41.857 -13.581  -0.272  1.00  0.00    -0.237 NA
HETATM   12  C   UNL     1      41.243 -14.778  -0.302  1.00  0.00     0.165 A 
HETATM   13  C   UNL     1      40.752 -15.416   0.827  1.00  0.00     0.066 A 
BRANCH  12  14
HETATM   14  O   UNL     1      41.088 -15.456  -1.488  1.00  0.00    -0.324 OA
BRANCH  14  15
HETATM   15  C   UNL     1      40.328 -14.860  -2.557  1.00  0.00     0.058 C 
HETATM   16  C   UNL     1      41.187 -13.951  -3.447  1.00  0.00     0.045 C 
HETATM   17  C   UNL     1      39.049 -14.160  -2.070  1.00  0.00     0.045 C 
HETATM   18  C   UNL     1      39.893 -16.068  -3.412  1.00  0.00     0.045 C 
ENDBRANCH  14  15
ENDBRANCH  12  14
ENDBRANCH   7   8
ENDBRANCH   1   7
BRANCH   3  19
HETATM   19  C   UNL     1      43.786 -17.999   5.521  1.00  0.00     0.095 A 
HETATM   20  C   UNL     1      44.763 -19.107   5.182  1.00  0.00     0.043 A 
HETATM   21  C   UNL     1      43.922 -19.181   6.433  1.00  0.00     0.037 A 
BRANCH  20  22
HETATM   22  C   UNL     1      44.508 -20.050   4.029  1.00  0.00    -0.052 A 
HETATM   23  C   UNL     1      44.701 -21.436   4.169  1.00  0.00     0.007 A 
HETATM   24  C   UNL     1      44.463 -22.316   3.111  1.00  0.00     0.001 A 
HETATM   25  C   UNL     1      44.015 -21.827   1.888  1.00  0.00     0.000 A 
HETATM   26  C   UNL     1      43.801 -20.462   1.725  1.00  0.00     0.001 A 
HETATM   27  C   UNL     1      44.042 -19.586   2.787  1.00  0.00     0.007 A 
ENDBRANCH  20  22
ENDBRANCH   3  19
TORSDOF 6
ENDMDL
MODEL 4
REMARK VINA RESULT:      -7.7      4.240      6.859
REMARK  6 active torsions:
REMARK  status: ('A' for Active; 'I' for Inactive)
REMARK    1  A    between atoms: C_2  and  O_3 
REMARK    2  A    between atoms: O_3  and  C_4 
REMARK    3  A    between atoms: C_8  and  C_9 
REMARK    4  A    between atoms: C_9  and  N_10 
REMARK       I    between atoms: N_10  and  C_11 
REMARK       I    between atoms: C_11  and  N_12 
REMARK    5  A    between atoms: N_12  and  C_13 
REMARK    6  A    between atoms: C_14  and  C_15 
ROOT
HETATM    1  N   UNL     1      43.748 -14.233   5.032  1.00  0.00    -0.339 N 
HETATM    2  C   UNL     1      42.616 -13.567   4.645  1.00  0.00     0.316 C 
HETATM    3  N   UNL     1      42.742 -13.012   3.395  1.00  0.00    -0.338 N 
HETATM    4  O   UNL     1      41.610 -13.480   5.338  1.00  0.00    -0.247 OA
HETATM    5  H   UNL     1      44.566 -14.202   4.445  1.00  0.00     0.164 HD
HETATM    6  H   UNL     1      43.491 -13.355   2.809  1.00  0.00     0.164 HD
ENDROOT
BRANCH   1   7
HETATM    7  C   UNL     1      43.857 -14.866   6.327  1.00  0.00     0.163 C 
BRANCH   7   8
HETATM    8  C   UNL     1      43.596 -16.348   6.266  1.00  0.00    -0.035 A 
HETATM    9  C   UNL     1      43.789 -17.174   7.377  1.00  0.00     0.028 A 
HETATM   10  C   UNL     1      43.589 -18.538   7.235  1.00  0.00     0.120 A 
HETATM   11  N   UNL     1      43.238 -19.132   6.075  1.00  0.00    -0.237 NA
HETATM   12  C   UNL     1      43.091 -18.330   5.006  1.00  0.00     0.165 A 
HETATM   13  C   UNL     1      43.241 -16.952   5.056  1.00  0.00     0.066 A 
BRANCH  12  14
HETATM   14  O   UNL     1      42.754 -18.851   3.779  1.00  0.00    -0.324 OA
BRANCH  14  15
HETATM   15  C   UNL     1      43.791 -19.283   2.877  1.00  0.00     0.058 C 
HETATM   16  C   UNL     1      44.899 -20.068   3.593  1.00  0.00     0.045 C 
HETATM   17  C   UNL     1      44.351 -18.141   2.013  1.00  0.00     0.045 C 
HETATM   18  C   UNL     1      43.066 -20.260   1.930  1.00  0.00     0.045 C 
ENDBRANCH  14  15
ENDBRANCH  12  14
ENDBRANCH   7   8
ENDBRANCH   1   7
BRANCH   3  19
HETATM   19  C   UNL     1      41.660 -12.331   2.741  1.00  0.00     0.095 A 
HETATM   20  C   UNL     1      40.703 -13.042   1.805  1.00  0.00     0.043 A 
HETATM   21  C   UNL     1      41.727 -12.074   1.265  1.00  0.00     0.037 A 
BRANCH  20  22
HETATM   22  C   UNL     1      40.829 -14.524   1.533  1.00  0.00    -0.052 A 
HETATM   23  C   UNL     1      40.250 -15.471   2.395  1.00  0.00     0.007 A 
HETATM   24  C   UNL     1      40.356 -16.842   2.150  1.00  0.00     0.001 A 
HETATM   25  C   UNL     1      41.039 -17.296   1.025  1.00  0.00     0.000 A 
HETATM   26  C   UNL     1      41.610 -16.380   0.147  1.00  0.00     0.001 A 
HETATM   27  C   UNL     1      41.501 -15.010   0.398  1.00  0.00     0.007 A 
ENDBRANCH  20  22
ENDBRANCH   3  19
TORSDOF 6
ENDMDL
MODEL 5
REMARK VINA RESULT:      -7.7      3.493      8.600
REMARK  6 active torsions:
REMARK  status: ('A' for Active; 'I' for Inactive)
REMARK    1  A    between atoms: C_2  and  O_3 
REMARK    2  A    between atoms: O_3  and  C_4 
REMARK    3  A    between atoms: C_8  and  C_9 
REMARK    4  A    between atoms: C_9  and  N_10 
REMARK       I    between atoms: N_10  and  C_11 
REMARK       I    between atoms: C_11  and  N_12 
REMARK    5  A    between atoms: N_12  and  C_13 
REMARK    6  A    between atoms: C_14  and  C_15 
ROOT
HETATM    1  N   UNL     1      39.311 -12.236   8.297  1.00  0.00    -0.339 N 
HETATM    2  C   UNL     1      39.358 -12.441   6.944  1.00  0.00     0.316 C 
HETATM    3  N   UNL     1      39.692 -13.735   6.627  1.00  0.00    -0.338 N 
HETATM    4  O   UNL     1      39.127 -11.568   6.118  1.00  0.00    -0.247 OA
HETATM    5  H   UNL     1      39.585 -12.978   8.922  1.00  0.00     0.164 HD
HETATM    6  H   UNL     1      39.605 -14.429   7.357  1.00  0.00     0.164 HD
ENDROOT
BRANCH   1   7
HETATM    7  C   UNL     1      39.014 -10.940   8.864  1.00  0.00     0.163 C 
BRANCH   7   8
HETATM    8  C   UNL     1      40.154 -10.397   9.685  1.00  0.00    -0.035 A 
HETATM    9  C   UNL     1      39.934  -9.607  10.817  1.00  0.00     0.028 A 
HETATM   10  C   UNL     1      41.029  -9.089  11.491  1.00  0.00     0.120 A 
HETATM   11  N   UNL     1      42.309  -9.280  11.109  1.00  0.00    -0.237 NA
HETATM   12  C   UNL     1      42.505 -10.012   9.997  1.00  0.00     0.165 A 
HETATM   13  C   UNL     1      41.476 -10.595   9.273  1.00  0.00     0.066 A 
BRANCH  12  14
HETATM   14  O   UNL     1      43.776 -10.241   9.523  1.00  0.00    -0.324 OA
BRANCH  14  15
HETATM   15  C   UNL     1      44.469 -11.448   9.892  1.00  0.00     0.058 C 
HETATM   16  C   UNL     1      44.505 -12.473   8.750  1.00  0.00     0.045 C 
HETATM   17  C   UNL     1      43.956 -12.059  11.207  1.00  0.00     0.045 C 
HETATM   18  C   UNL     1      45.915 -10.977  10.139  1.00  0.00     0.045 C 
ENDBRANCH  14  15
ENDBRANCH  12  14
ENDBRANCH   7   8
ENDBRANCH   1   7
BRANCH   3  19
HETATM   19  C   UNL     1      39.729 -14.212   5.273  1.00  0.00     0.095 A 
HETATM   20  C   UNL     1      40.770 -15.203   4.791  1.00  0.00     0.043 A 
HETATM   21  C   UNL     1      40.823 -13.759   4.354  1.00  0.00     0.037 A 
BRANCH  20  22
HETATM   22  C   UNL     1      41.816 -15.759   5.730  1.00  0.00    -0.052 A 
HETATM   23  C   UNL     1      43.064 -15.128   5.881  1.00  0.00     0.007 A 
HETATM   24  C   UNL     1      44.035 -15.630   6.750  1.00  0.00     0.001 A 
HETATM   25  C   UNL     1      43.772 -16.774   7.499  1.00  0.00     0.000 A 
HETATM   26  C   UNL     1      42.540 -17.410   7.382  1.00  0.00     0.001 A 
HETATM   27  C   UNL     1      41.573 -16.903   6.509  1.00  0.00     0.007 A 
ENDBRANCH  20  22
ENDBRANCH   3  19
TORSDOF 6
ENDMDL
MODEL 6
REMARK VINA RESULT:      -7.6      2.959      4.686
REMARK  6 active torsions:
REMARK  status: ('A' for Active; 'I' for Inactive)
REMARK    1  A    between atoms: C_2  and  O_3 
REMARK    2  A    between atoms: O_3  and  C_4 
REMARK    3  A    between atoms: C_8  and  C_9 
REMARK    4  A    between atoms: C_9  and  N_10 
REMARK       I    between atoms: N_10  and  C_11 
REMARK       I    between atoms: C_11  and  N_12 
REMARK    5  A    between atoms: N_12  and  C_13 
REMARK    6  A    between atoms: C_14  and  C_15 
ROOT
HETATM    1  N   UNL     1      39.424 -12.933   7.476  1.00  0.00    -0.339 N 
HETATM    2  C   UNL     1      39.403 -11.658   7.975  1.00  0.00     0.316 C 
HETATM    3  N   UNL     1      39.574 -11.633   9.338  1.00  0.00    -0.338 N 
HETATM    4  O   UNL     1      39.249 -10.661   7.282  1.00  0.00    -0.247 OA
HETATM    5  H   UNL     1      39.479 -13.714   8.110  1.00  0.00     0.164 HD
HETATM    6  H   UNL     1      39.949 -12.464   9.774  1.00  0.00     0.164 HD
ENDROOT
BRANCH   1   7
HETATM    7  C   UNL     1      39.227 -13.206   6.070  1.00  0.00     0.163 C 
BRANCH   7   8
HETATM    8  C   UNL     1      40.414 -13.893   5.446  1.00  0.00    -0.035 A 
HETATM    9  C   UNL     1      40.921 -13.501   4.204  1.00  0.00     0.028 A 
HETATM   10  C   UNL     1      41.976 -14.216   3.660  1.00  0.00     0.120 A 
HETATM   11  N   UNL     1      42.540 -15.293   4.246  1.00  0.00    -0.237 NA
HETATM   12  C   UNL     1      42.018 -15.681   5.423  1.00  0.00     0.165 A 
HETATM   13  C   UNL     1      40.982 -15.014   6.060  1.00  0.00     0.066 A 
BRANCH  12  14
HETATM   14  O   UNL     1      42.516 -16.781   6.083  1.00  0.00    -0.324 OA
BRANCH  14  15
HETATM   15  C   UNL     1      43.720 -16.660   6.864  1.00  0.00     0.058 C 
HETATM   16  C   UNL     1      44.169 -15.201   7.023  1.00  0.00     0.045 C 
HETATM   17  C   UNL     1      44.856 -17.568   6.365  1.00  0.00     0.045 C 
HETATM   18  C   UNL     1      43.303 -17.172   8.257  1.00  0.00     0.045 C 
ENDBRANCH  14  15
ENDBRANCH  12  14
ENDBRANCH   7   8
ENDBRANCH   1   7
BRANCH   3  19
HETATM   19  C   UNL     1      39.667 -10.407  10.080  1.00  0.00     0.095 A 
HETATM   20  C   UNL     1      40.970  -9.922  10.684  1.00  0.00     0.043 A 
HETATM   21  C   UNL     1      39.864 -10.450  11.566  1.00  0.00     0.037 A 
BRANCH  20  22
HETATM   22  C   UNL     1      42.252 -10.703  10.510  1.00  0.00    -0.052 A 
HETATM   23  C   UNL     1      42.913 -10.745   9.270  1.00  0.00     0.007 A 
HETATM   24  C   UNL     1      44.101 -11.459   9.099  1.00  0.00     0.001 A 
HETATM   25  C   UNL     1      44.661 -12.142  10.175  1.00  0.00     0.000 A 
HETATM   26  C   UNL     1      44.037 -12.105  11.418  1.00  0.00     0.001 A 
HETATM   27  C   UNL     1      42.848 -11.390  11.582  1.00  0.00     0.007 A 
ENDBRANCH  20  22
ENDBRANCH   3  19
TORSDOF 6
ENDMDL
MODEL 7
REMARK VINA RESULT:      -7.6      5.915      9.191
REMARK  6 active torsions:
REMARK  status: ('A' for Active; 'I' for Inactive)
REMARK    1  A    between atoms: C_2  and  O_3 
REMARK    2  A    between atoms: O_3  and  C_4 
REMARK    3  A    between atoms: C_8  and  C_9 
REMARK    4  A    between atoms: C_9  and  N_10 
REMARK       I    between atoms: N_10  and  C_11 
REMARK       I    between atoms: C_11  and  N_12 
REMARK    5  A    between atoms: N_12  and  C_13 
REMARK    6  A    between atoms: C_14  and  C_15 
ROOT
HETATM    1  N   UNL     1      40.930 -16.705   4.028  1.00  0.00    -0.339 N 
HETATM    2  C   UNL     1      42.170 -16.648   4.607  1.00  0.00     0.316 C 
HETATM    3  N   UNL     1      42.515 -17.834   5.208  1.00  0.00    -0.338 N 
HETATM    4  O   UNL     1      42.883 -15.653   4.588  1.00  0.00    -0.247 OA
HETATM    5  H   UNL     1      40.364 -17.530   4.146  1.00  0.00     0.164 HD
HETATM    6  H   UNL     1      41.989 -18.657   4.948  1.00  0.00     0.164 HD
ENDROOT
BRANCH   1   7
HETATM    7  C   UNL     1      40.342 -15.561   3.368  1.00  0.00     0.163 C 
BRANCH   7   8
HETATM    8  C   UNL     1      40.571 -15.576   1.879  1.00  0.00    -0.035 A 
HETATM    9  C   UNL     1      41.311 -16.586   1.260  1.00  0.00     0.028 A 
HETATM   10  C   UNL     1      41.535 -16.506  -0.106  1.00  0.00     0.120 A 
HETATM   11  N   UNL     1      41.099 -15.493  -0.883  1.00  0.00    -0.237 NA
HETATM   12  C   UNL     1      40.419 -14.510  -0.268  1.00  0.00     0.165 A 
HETATM   13  C   UNL     1      40.120 -14.515   1.087  1.00  0.00     0.066 A 
BRANCH  12  14
HETATM   14  O   UNL     1      39.953 -13.428  -0.979  1.00  0.00    -0.324 OA
BRANCH  14  15
HETATM   15  C   UNL     1      40.888 -12.486  -1.538  1.00  0.00     0.058 C 
HETATM   16  C   UNL     1      41.251 -12.816  -2.993  1.00  0.00     0.045 C 
HETATM   17  C   UNL     1      42.133 -12.278  -0.660  1.00  0.00     0.045 C 
HETATM   18  C   UNL     1      40.105 -11.157  -1.546  1.00  0.00     0.045 C 
ENDBRANCH  14  15
ENDBRANCH  12  14
ENDBRANCH   7   8
ENDBRANCH   1   7
BRANCH   3  19
HETATM   19  C   UNL     1      43.800 -18.045   5.814  1.00  0.00     0.095 A 
HETATM   20  C   UNL     1      44.787 -19.067   5.285  1.00  0.00     0.043 A 
HETATM   21  C   UNL     1      44.060 -19.303   6.587  1.00  0.00     0.037 A 
BRANCH  20  22
HETATM   22  C   UNL     1      44.471 -19.903   4.067  1.00  0.00    -0.052 A 
HETATM   23  C   UNL     1      44.681 -21.294   4.068  1.00  0.00     0.007 A 
HETATM   24  C   UNL     1      44.387 -22.077   2.949  1.00  0.00     0.001 A 
HETATM   25  C   UNL     1      43.864 -21.483   1.804  1.00  0.00     0.000 A 
HETATM   26  C   UNL     1      43.631 -20.112   1.780  1.00  0.00     0.001 A 
HETATM   27  C   UNL     1      43.929 -19.334   2.902  1.00  0.00     0.007 A 
ENDBRANCH  20  22
ENDBRANCH   3  19
TORSDOF 6
ENDMDL
MODEL 8
REMARK VINA RESULT:      -7.4      4.616      7.039
REMARK  6 active torsions:
REMARK  status: ('A' for Active; 'I' for Inactive)
REMARK    1  A    between atoms: C_2  and  O_3 
REMARK    2  A    between atoms: O_3  and  C_4 
REMARK    3  A    between atoms: C_8  and  C_9 
REMARK    4  A    between atoms: C_9  and  N_10 
REMARK       I    between atoms: N_10  and  C_11 
REMARK       I    between atoms: C_11  and  N_12 
REMARK    5  A    between atoms: N_12  and  C_13 
REMARK    6  A    between atoms: C_14  and  C_15 
ROOT
HETATM    1  N   UNL     1      43.164 -16.723   1.211  1.00  0.00    -0.339 N 
HETATM    2  C   UNL     1      41.825 -16.497   1.039  1.00  0.00     0.316 C 
HETATM    3  N   UNL     1      41.492 -15.179   1.240  1.00  0.00    -0.338 N 
HETATM    4  O   UNL     1      41.022 -17.371   0.742  1.00  0.00    -0.247 OA
HETATM    5  H   UNL     1      43.758 -15.973   1.530  1.00  0.00     0.164 HD
HETATM    6  H   UNL     1      42.243 -14.502   1.221  1.00  0.00     0.164 HD
ENDROOT
BRANCH   1   7
HETATM    7  C   UNL     1      43.738 -18.044   1.087  1.00  0.00     0.163 C 
BRANCH   7   8
HETATM    8  C   UNL     1      43.937 -18.713   2.422  1.00  0.00    -0.035 A 
HETATM    9  C   UNL     1      44.539 -19.969   2.532  1.00  0.00     0.028 A 
HETATM   10  C   UNL     1      44.635 -20.554   3.785  1.00  0.00     0.120 A 
HETATM   11  N   UNL     1      44.159 -19.994   4.917  1.00  0.00    -0.237 NA
HETATM   12  C   UNL     1      43.549 -18.802   4.791  1.00  0.00     0.165 A 
HETATM   13  C   UNL     1      43.430 -18.126   3.586  1.00  0.00     0.066 A 
BRANCH  12  14
HETATM   14  O   UNL     1      43.016 -18.168   5.888  1.00  0.00    -0.324 OA
BRANCH  14  15
HETATM   15  C   UNL     1      43.874 -17.410   6.762  1.00  0.00     0.058 C 
HETATM   16  C   UNL     1      45.349 -17.814   6.627  1.00  0.00     0.045 C 
HETATM   17  C   UNL     1      43.400 -17.413   8.224  1.00  0.00     0.045 C 
HETATM   18  C   UNL     1      43.740 -15.965   6.240  1.00  0.00     0.045 C 
ENDBRANCH  14  15
ENDBRANCH  12  14
ENDBRANCH   7   8
ENDBRANCH   1   7
BRANCH   3  19
HETATM   19  C   UNL     1      40.160 -14.681   1.040  1.00  0.00     0.095 A 
HETATM   20  C   UNL     1      39.461 -13.804   2.060  1.00  0.00     0.043 A 
HETATM   21  C   UNL     1      39.029 -15.235   1.853  1.00  0.00     0.037 A 
BRANCH  20  22
HETATM   22  C   UNL     1      40.152 -13.387   3.338  1.00  0.00    -0.052 A 
HETATM   23  C   UNL     1      40.973 -12.247   3.380  1.00  0.00     0.007 A 
HETATM   24  C   UNL     1      41.612 -11.851   4.557  1.00  0.00     0.001 A 
HETATM   25  C   UNL     1      41.431 -12.584   5.726  1.00  0.00     0.000 A 
HETATM   26  C   UNL     1      40.611 -13.708   5.718  1.00  0.00     0.001 A 
HETATM   27  C   UNL     1      39.977 -14.101   4.536  1.00  0.00     0.007 A 
ENDBRANCH  20  22
ENDBRANCH   3  19
TORSDOF 6
ENDMDL
MODEL 9
REMARK VINA RESULT:      -7.3      2.141      3.108
REMARK  6 active torsions:
REMARK  status: ('A' for Active; 'I' for Inactive)
REMARK    1  A    between atoms: C_2  and  O_3 
REMARK    2  A    between atoms: O_3  and  C_4 
REMARK    3  A    between atoms: C_8  and  C_9 
REMARK    4  A    between atoms: C_9  and  N_10 
REMARK       I    between atoms: N_10  and  C_11 
REMARK       I    between atoms: C_11  and  N_12 
REMARK    5  A    between atoms: N_12  and  C_13 
REMARK    6  A    between atoms: C_14  and  C_15 
ROOT
HETATM    1  N   UNL     1      41.981 -12.924   6.491  1.00  0.00    -0.339 N 
HETATM    2  C   UNL     1      41.491 -11.646   6.527  1.00  0.00     0.316 C 
HETATM    3  N   UNL     1      41.094 -11.279   7.791  1.00  0.00    -0.338 N 
HETATM    4  O   UNL     1      41.417 -10.919   5.545  1.00  0.00    -0.247 OA
HETATM    5  H   UNL     1      41.943 -13.494   7.320  1.00  0.00     0.164 HD
HETATM    6  H   UNL     1      41.432 -11.837   8.563  1.00  0.00     0.164 HD
ENDROOT
BRANCH   1   7
HETATM    7  C   UNL     1      42.424 -13.537   5.258  1.00  0.00     0.163 C 
BRANCH   7   8
HETATM    8  C   UNL     1      42.116 -15.010   5.206  1.00  0.00    -0.035 A 
HETATM    9  C   UNL     1      41.118 -15.581   6.000  1.00  0.00     0.028 A 
HETATM   10  C   UNL     1      40.928 -16.953   5.947  1.00  0.00     0.120 A 
HETATM   11  N   UNL     1      41.667 -17.788   5.187  1.00  0.00    -0.237 NA
HETATM   12  C   UNL     1      42.648 -17.229   4.455  1.00  0.00     0.165 A 
HETATM   13  C   UNL     1      42.896 -15.865   4.420  1.00  0.00     0.066 A 
BRANCH  12  14
HETATM   14  O   UNL     1      43.464 -18.006   3.666  1.00  0.00    -0.324 OA
BRANCH  14  15
HETATM   15  C   UNL     1      43.176 -18.147   2.262  1.00  0.00     0.058 C 
HETATM   16  C   UNL     1      44.190 -17.403   1.381  1.00  0.00     0.045 C 
HETATM   17  C   UNL     1      41.723 -17.791   1.907  1.00  0.00     0.045 C 
HETATM   18  C   UNL     1      43.355 -19.656   2.003  1.00  0.00     0.045 C 
ENDBRANCH  14  15
ENDBRANCH  12  14
ENDBRANCH   7   8
ENDBRANCH   1   7
BRANCH   3  19
HETATM   19  C   UNL     1      40.619  -9.959   8.097  1.00  0.00     0.095 A 
HETATM   20  C   UNL     1      40.838  -9.313   9.451  1.00  0.00     0.043 A 
HETATM   21  C   UNL     1      39.465  -9.783   9.037  1.00  0.00     0.037 A 
BRANCH  20  22
HETATM   22  C   UNL     1      41.596 -10.027  10.546  1.00  0.00    -0.052 A 
HETATM   23  C   UNL     1      43.000  -9.978  10.606  1.00  0.00     0.007 A 
HETATM   24  C   UNL     1      43.710 -10.631  11.617  1.00  0.00     0.001 A 
HETATM   25  C   UNL     1      43.026 -11.339  12.600  1.00  0.00     0.000 A 
HETATM   26  C   UNL     1      41.636 -11.391  12.574  1.00  0.00     0.001 A 
HETATM   27  C   UNL     1      40.932 -10.738  11.559  1.00  0.00     0.007 A 
ENDBRANCH  20  22
ENDBRANCH   3  19
TORSDOF 6
ENDMDL
MODEL 10
REMARK VINA RESULT:      -7.3      5.002      8.442
REMARK  6 active torsions:
REMARK  status: ('A' for Active; 'I' for Inactive)
REMARK    1  A    between atoms: C_2  and  O_3 
REMARK    2  A    between atoms: O_3  and  C_4 
REMARK    3  A    between atoms: C_8  and  C_9 
REMARK    4  A    between atoms: C_9  and  N_10 
REMARK       I    between atoms: N_10  and  C_11 
REMARK       I    between atoms: C_11  and  N_12 
REMARK    5  A    between atoms: N_12  and  C_13 
REMARK    6  A    between atoms: C_14  and  C_15 
ROOT
HETATM    1  N   UNL     1      41.612 -17.245   2.921  1.00  0.00    -0.339 N 
HETATM    2  C   UNL     1      42.671 -16.685   3.583  1.00  0.00     0.316 C 
HETATM    3  N   UNL     1      42.583 -16.860   4.943  1.00  0.00    -0.338 N 
HETATM    4  O   UNL     1      43.588 -16.097   3.023  1.00  0.00    -0.247 OA
HETATM    5  H   UNL     1      40.854 -17.649   3.447  1.00  0.00     0.164 HD
HETATM    6  H   UNL     1      41.946 -17.569   5.279  1.00  0.00     0.164 HD
ENDROOT
BRANCH   1   7
HETATM    7  C   UNL     1      41.475 -17.153   1.484  1.00  0.00     0.163 C 
BRANCH   7   8
HETATM    8  C   UNL     1      40.708 -15.929   1.058  1.00  0.00    -0.035 A 
HETATM    9  C   UNL     1      39.603 -15.466   1.777  1.00  0.00     0.028 A 
HETATM   10  C   UNL     1      38.906 -14.369   1.295  1.00  0.00     0.120 A 
HETATM   11  N   UNL     1      39.214 -13.724   0.150  1.00  0.00    -0.237 NA
HETATM   12  C   UNL     1      40.257 -14.202  -0.551  1.00  0.00     0.165 A 
HETATM   13  C   UNL     1      41.032 -15.275  -0.135  1.00  0.00     0.066 A 
BRANCH  12  14
HETATM   14  O   UNL     1      40.630 -13.619  -1.740  1.00  0.00    -0.324 OA
BRANCH  14  15
HETATM   15  C   UNL     1      41.521 -12.488  -1.731  1.00  0.00     0.058 C 
HETATM   16  C   UNL     1      42.098 -12.208  -0.336  1.00  0.00     0.045 C 
HETATM   17  C   UNL     1      40.907 -11.232  -2.371  1.00  0.00     0.045 C 
HETATM   18  C   UNL     1      42.688 -12.938  -2.633  1.00  0.00     0.045 C 
ENDBRANCH  14  15
ENDBRANCH  12  14
ENDBRANCH   7   8
ENDBRANCH   1   7
BRANCH   3  19
HETATM   19  C   UNL     1      43.615 -16.429   5.844  1.00  0.00     0.095 A 
HETATM   20  C   UNL     1      44.541 -17.405   6.542  1.00  0.00     0.043 A 
HETATM   21  C   UNL     1      43.469 -16.678   7.316  1.00  0.00     0.037 A 
BRANCH  20  22
HETATM   22  C   UNL     1      44.436 -18.894   6.299  1.00  0.00    -0.052 A 
HETATM   23  C   UNL     1      44.967 -19.478   5.136  1.00  0.00     0.007 A 
HETATM   24  C   UNL     1      44.881 -20.852   4.904  1.00  0.00     0.001 A 
HETATM   25  C   UNL     1      44.268 -21.677   5.843  1.00  0.00     0.000 A 
HETATM   26  C   UNL     1      43.747 -21.129   7.011  1.00  0.00     0.001 A 
HETATM   27  C   UNL     1      43.836 -19.752   7.235  1.00  0.00     0.007 A 
ENDBRANCH  20  22
ENDBRANCH   3  19
TORSDOF 6
ENDMDL
