MODEL 1
REMARK VINA RESULT:      -8.6      0.000      0.000
REMARK  2 active torsions:
REMARK  status: ('A' for Active; 'I' for Inactive)
REMARK    1  A    between atoms: C_11  and  C_12 
REMARK    2  A    between atoms: C_12  and  C_13 
ROOT
HETATM    1  C   UNL     1      44.961 -21.877   5.092  1.00  0.00     0.051 C 
HETATM    2  C   UNL     1      44.538 -20.723   4.216  1.00  0.00    -0.031 A 
HETATM    3  C   UNL     1      44.413 -20.891   2.830  1.00  0.00     0.038 A 
HETATM    4  C   UNL     1      44.677 -22.214   2.162  1.00  0.00     0.071 C 
HETATM    5  N   UNL     1      44.046 -19.914   1.984  1.00  0.00    -0.245 NA
HETATM    6  C   UNL     1      43.793 -18.720   2.548  1.00  0.00     0.111 A 
HETATM    7  C   UNL     1      43.860 -18.395   3.897  1.00  0.00     0.034 A 
HETATM    8  C   UNL     1      44.196 -19.464   4.789  1.00  0.00    -0.039 A 
HETATM    9  C   UNL     1      44.208 -19.286   6.288  1.00  0.00     0.050 C 
HETATM   10  S   UNL     1      43.308 -17.430   1.560  1.00  0.00    -0.063 SA
HETATM   11  C   UNL     1      43.208 -16.352   2.885  1.00  0.00     0.085 A 
HETATM   12  C   UNL     1      43.537 -16.987   4.073  1.00  0.00     0.061 A 
HETATM   13  N   UNL     1      43.537 -16.364   5.276  1.00  0.00    -0.397 N 
HETATM   14  H   UNL     1      43.278 -15.391   5.416  1.00  0.00     0.156 HD
HETATM   15  H   UNL     1      43.957 -16.772   6.103  1.00  0.00     0.156 HD
ENDROOT
BRANCH  11  16
HETATM   16  C   UNL     1      42.789 -14.991   2.591  1.00  0.00     0.201 C 
HETATM   17  O   UNL     1      43.455 -13.997   2.883  1.00  0.00    -0.286 OA
BRANCH  16  18
HETATM   18  C   UNL     1      41.490 -14.732   1.905  1.00  0.00     0.018 A 
HETATM   19  C   UNL     1      41.433 -14.188   0.614  1.00  0.00     0.055 A 
HETATM   20  C   UNL     1      40.184 -13.995   0.059  1.00  0.00     0.106 A 
HETATM   21  C   UNL     1      39.028 -14.331   0.725  1.00  0.00     0.105 A 
HETATM   22  O   UNL     1      39.936 -13.469  -1.171  1.00  0.00    -0.323 OA
HETATM   23  O   UNL     1      37.912 -14.060  -0.002  1.00  0.00    -0.323 OA
HETATM   24  C   UNL     1      39.050 -14.885   1.986  1.00  0.00     0.040 A 
HETATM   25  C   UNL     1      38.494 -13.530  -1.210  1.00  0.00     0.352 A 
HETATM   26  C   UNL     1      40.299 -15.091   2.578  1.00  0.00     0.018 A 
ENDBRANCH  16  18
ENDBRANCH  11  16
TORSDOF 2
ENDMDL
MODEL 2
REMARK VINA RESULT:      -8.5      3.462      3.900
REMARK  2 active torsions:
REMARK  status: ('A' for Active; 'I' for Inactive)
REMARK    1  A    between atoms: C_11  and  C_12 
REMARK    2  A    between atoms: C_12  and  C_13 
ROOT
HETATM    1  C   UNL     1      44.336 -21.807   1.977  1.00  0.00     0.051 C 
HETATM    2  C   UNL     1      44.299 -20.825   3.122  1.00  0.00    -0.031 A 
HETATM    3  C   UNL     1      44.616 -21.238   4.424  1.00  0.00     0.038 A 
HETATM    4  C   UNL     1      45.017 -22.655   4.732  1.00  0.00     0.071 C 
HETATM    5  N   UNL     1      44.602 -20.426   5.494  1.00  0.00    -0.245 NA
HETATM    6  C   UNL     1      44.257 -19.150   5.253  1.00  0.00     0.111 A 
HETATM    7  C   UNL     1      43.926 -18.584   4.027  1.00  0.00     0.034 A 
HETATM    8  C   UNL     1      44.004 -19.451   2.890  1.00  0.00    -0.039 A 
HETATM    9  C   UNL     1      43.773 -18.953   1.484  1.00  0.00     0.050 C 
HETATM   10  S   UNL     1      44.226 -18.049   6.541  1.00  0.00    -0.063 SA
HETATM   11  C   UNL     1      43.721 -16.763   5.532  1.00  0.00     0.085 A 
HETATM   12  C   UNL     1      43.588 -17.181   4.216  1.00  0.00     0.061 A 
HETATM   13  N   UNL     1      43.203 -16.362   3.209  1.00  0.00    -0.397 N 
HETATM   14  H   UNL     1      42.999 -15.373   3.322  1.00  0.00     0.156 HD
HETATM   15  H   UNL     1      42.924 -16.710   2.298  1.00  0.00     0.156 HD
ENDROOT
BRANCH  11  16
HETATM   16  C   UNL     1      43.534 -15.467   6.166  1.00  0.00     0.201 C 
HETATM   17  O   UNL     1      44.304 -15.006   7.010  1.00  0.00    -0.286 OA
BRANCH  16  18
HETATM   18  C   UNL     1      42.363 -14.615   5.811  1.00  0.00     0.018 A 
HETATM   19  C   UNL     1      42.515 -13.279   5.413  1.00  0.00     0.055 A 
HETATM   20  C   UNL     1      41.371 -12.575   5.095  1.00  0.00     0.106 A 
HETATM   21  C   UNL     1      40.121 -13.148   5.147  1.00  0.00     0.105 A 
HETATM   22  O   UNL     1      41.325 -11.273   4.703  1.00  0.00    -0.323 OA
HETATM   23  O   UNL     1      39.137 -12.280   4.793  1.00  0.00    -0.323 OA
HETATM   24  C   UNL     1      39.939 -14.462   5.516  1.00  0.00     0.040 A 
HETATM   25  C   UNL     1      39.907 -11.098   4.496  1.00  0.00     0.352 A 
HETATM   26  C   UNL     1      41.077 -15.203   5.847  1.00  0.00     0.018 A 
ENDBRANCH  16  18
ENDBRANCH  11  16
TORSDOF 2
ENDMDL
MODEL 3
REMARK VINA RESULT:      -8.5      2.736      3.699
REMARK  2 active torsions:
REMARK  status: ('A' for Active; 'I' for Inactive)
REMARK    1  A    between atoms: C_11  and  C_12 
REMARK    2  A    between atoms: C_12  and  C_13 
ROOT
HETATM    1  C   UNL     1      44.843 -21.785   5.021  1.00  0.00     0.051 C 
HETATM    2  C   UNL     1      44.469 -20.495   4.333  1.00  0.00    -0.031 A 
HETATM    3  C   UNL     1      44.337 -20.446   2.938  1.00  0.00     0.038 A 
HETATM    4  C   UNL     1      44.543 -21.663   2.076  1.00  0.00     0.071 C 
HETATM    5  N   UNL     1      44.012 -19.337   2.252  1.00  0.00    -0.245 NA
HETATM    6  C   UNL     1      43.812 -18.233   2.991  1.00  0.00     0.111 A 
HETATM    7  C   UNL     1      43.893 -18.119   4.374  1.00  0.00     0.034 A 
HETATM    8  C   UNL     1      44.183 -19.324   5.091  1.00  0.00    -0.039 A 
HETATM    9  C   UNL     1      44.203 -19.375   6.599  1.00  0.00     0.050 C 
HETATM   10  S   UNL     1      43.383 -16.789   2.213  1.00  0.00    -0.063 SA
HETATM   11  C   UNL     1      43.330 -15.920   3.686  1.00  0.00     0.085 A 
HETATM   12  C   UNL     1      43.632 -16.741   4.762  1.00  0.00     0.061 A 
HETATM   13  N   UNL     1      43.659 -16.307   6.045  1.00  0.00    -0.397 N 
HETATM   14  H   UNL     1      43.443 -15.357   6.333  1.00  0.00     0.156 HD
HETATM   15  H   UNL     1      44.062 -16.854   6.798  1.00  0.00     0.156 HD
ENDROOT
BRANCH  11  16
HETATM   16  C   UNL     1      42.970 -14.514   3.604  1.00  0.00     0.201 C 
HETATM   17  O   UNL     1      43.499 -13.721   2.824  1.00  0.00    -0.286 OA
BRANCH  16  18
HETATM   18  C   UNL     1      41.912 -13.952   4.493  1.00  0.00     0.018 A 
HETATM   19  C   UNL     1      42.138 -12.815   5.282  1.00  0.00     0.055 A 
HETATM   20  C   UNL     1      41.093 -12.364   6.063  1.00  0.00     0.106 A 
HETATM   21  C   UNL     1      39.864 -12.985   6.070  1.00  0.00     0.105 A 
HETATM   22  O   UNL     1      41.132 -11.291   6.898  1.00  0.00    -0.323 OA
HETATM   23  O   UNL     1      38.981 -12.379   6.906  1.00  0.00    -0.323 OA
HETATM   24  C   UNL     1      39.604 -14.091   5.292  1.00  0.00     0.040 A 
HETATM   25  C   UNL     1      39.785 -11.295   7.415  1.00  0.00     0.352 A 
HETATM   26  C   UNL     1      40.642 -14.575   4.491  1.00  0.00     0.018 A 
ENDBRANCH  16  18
ENDBRANCH  11  16
TORSDOF 2
ENDMDL
MODEL 4
REMARK VINA RESULT:      -8.4      3.567      8.150
REMARK  2 active torsions:
REMARK  status: ('A' for Active; 'I' for Inactive)
REMARK    1  A    between atoms: C_11  and  C_12 
REMARK    2  A    between atoms: C_12  and  C_13 
ROOT
HETATM    1  C   UNL     1      42.537 -11.095  -3.637  1.00  0.00     0.051 C 
HETATM    2  C   UNL     1      42.361 -11.810  -2.319  1.00  0.00    -0.031 A 
HETATM    3  C   UNL     1      42.744 -11.195  -1.119  1.00  0.00     0.038 A 
HETATM    4  C   UNL     1      43.325  -9.807  -1.088  1.00  0.00     0.071 C 
HETATM    5  N   UNL     1      42.624 -11.766   0.091  1.00  0.00    -0.245 NA
HETATM    6  C   UNL     1      42.099 -13.003   0.100  1.00  0.00     0.111 A 
HETATM    7  C   UNL     1      41.663 -13.743  -0.993  1.00  0.00     0.034 A 
HETATM    8  C   UNL     1      41.746 -13.094  -2.267  1.00  0.00    -0.039 A 
HETATM    9  C   UNL     1      41.217 -13.732  -3.529  1.00  0.00     0.050 C 
HETATM   10  S   UNL     1      41.895 -13.799   1.584  1.00  0.00    -0.063 SA
HETATM   11  C   UNL     1      41.255 -15.197   0.834  1.00  0.00     0.085 A 
HETATM   12  C   UNL     1      41.193 -15.044  -0.543  1.00  0.00     0.061 A 
HETATM   13  N   UNL     1      40.724 -16.001  -1.379  1.00  0.00    -0.397 N 
HETATM   14  H   UNL     1      40.359 -16.898  -1.073  1.00  0.00     0.156 HD
HETATM   15  H   UNL     1      40.857 -15.962  -2.383  1.00  0.00     0.156 HD
ENDROOT
BRANCH  11  16
HETATM   16  C   UNL     1      40.863 -16.289   1.712  1.00  0.00     0.201 C 
HETATM   17  O   UNL     1      39.694 -16.534   2.010  1.00  0.00    -0.286 OA
BRANCH  16  18
HETATM   18  C   UNL     1      41.894 -17.186   2.309  1.00  0.00     0.018 A 
HETATM   19  C   UNL     1      41.873 -17.533   3.667  1.00  0.00     0.055 A 
HETATM   20  C   UNL     1      42.865 -18.378   4.124  1.00  0.00     0.106 A 
HETATM   21  C   UNL     1      43.837 -18.882   3.290  1.00  0.00     0.105 A 
HETATM   22  O   UNL     1      43.010 -18.810   5.406  1.00  0.00    -0.323 OA
HETATM   23  O   UNL     1      44.711 -19.692   3.944  1.00  0.00    -0.323 OA
HETATM   24  C   UNL     1      43.874 -18.576   1.949  1.00  0.00     0.040 A 
HETATM   25  C   UNL     1      44.172 -19.657   5.281  1.00  0.00     0.352 A 
HETATM   26  C   UNL     1      42.886 -17.720   1.454  1.00  0.00     0.018 A 
ENDBRANCH  16  18
ENDBRANCH  11  16
TORSDOF 2
ENDMDL
MODEL 5
REMARK VINA RESULT:      -8.4      1.298      2.271
REMARK  2 active torsions:
REMARK  status: ('A' for Active; 'I' for Inactive)
REMARK    1  A    between atoms: C_11  and  C_12 
REMARK    2  A    between atoms: C_12  and  C_13 
ROOT
HETATM    1  C   UNL     1      44.747 -22.045   5.028  1.00  0.00     0.051 C 
HETATM    2  C   UNL     1      44.299 -20.604   5.034  1.00  0.00    -0.031 A 
HETATM    3  C   UNL     1      43.858 -20.002   6.221  1.00  0.00     0.038 A 
HETATM    4  C   UNL     1      43.826 -20.750   7.527  1.00  0.00     0.071 C 
HETATM    5  N   UNL     1      43.440 -18.728   6.308  1.00  0.00    -0.245 NA
HETATM    6  C   UNL     1      43.464 -18.028   5.161  1.00  0.00     0.111 A 
HETATM    7  C   UNL     1      43.880 -18.472   3.911  1.00  0.00     0.034 A 
HETATM    8  C   UNL     1      44.376 -19.814   3.851  1.00  0.00    -0.039 A 
HETATM    9  C   UNL     1      44.956 -20.400   2.587  1.00  0.00     0.050 C 
HETATM   10  S   UNL     1      42.968 -16.407   5.176  1.00  0.00    -0.063 SA
HETATM   11  C   UNL     1      43.240 -16.227   3.496  1.00  0.00     0.085 A 
HETATM   12  C   UNL     1      43.715 -17.404   2.938  1.00  0.00     0.061 A 
HETATM   13  N   UNL     1      44.015 -17.536   1.623  1.00  0.00    -0.397 N 
HETATM   14  H   UNL     1      43.939 -16.788   0.941  1.00  0.00     0.156 HD
HETATM   15  H   UNL     1      44.176 -18.438   1.188  1.00  0.00     0.156 HD
ENDROOT
BRANCH  11  16
HETATM   16  C   UNL     1      42.967 -14.918   2.925  1.00  0.00     0.201 C 
HETATM   17  O   UNL     1      43.708 -13.945   3.072  1.00  0.00    -0.286 OA
BRANCH  16  18
HETATM   18  C   UNL     1      41.737 -14.689   2.114  1.00  0.00     0.018 A 
HETATM   19  C   UNL     1      41.786 -14.561   0.718  1.00  0.00     0.055 A 
HETATM   20  C   UNL     1      40.592 -14.362   0.055  1.00  0.00     0.106 A 
HETATM   21  C   UNL     1      39.388 -14.303   0.718  1.00  0.00     0.105 A 
HETATM   22  O   UNL     1      40.449 -14.204  -1.289  1.00  0.00    -0.323 OA
HETATM   23  O   UNL     1      38.340 -14.102  -0.125  1.00  0.00    -0.323 OA
HETATM   24  C   UNL     1      39.303 -14.443   2.085  1.00  0.00     0.040 A 
HETATM   25  C   UNL     1      39.017 -14.058  -1.397  1.00  0.00     0.352 A 
HETATM   26  C   UNL     1      40.494 -14.644   2.788  1.00  0.00     0.018 A 
ENDBRANCH  16  18
ENDBRANCH  11  16
TORSDOF 2
ENDMDL
MODEL 6
REMARK VINA RESULT:      -8.2      2.006      3.006
REMARK  2 active torsions:
REMARK  status: ('A' for Active; 'I' for Inactive)
REMARK    1  A    between atoms: C_11  and  C_12 
REMARK    2  A    between atoms: C_12  and  C_13 
ROOT
HETATM    1  C   UNL     1      44.237 -19.841   5.623  1.00  0.00     0.051 C 
HETATM    2  C   UNL     1      43.554 -19.138   4.476  1.00  0.00    -0.031 A 
HETATM    3  C   UNL     1      43.809 -19.525   3.152  1.00  0.00     0.038 A 
HETATM    4  C   UNL     1      44.749 -20.652   2.821  1.00  0.00     0.071 C 
HETATM    5  N   UNL     1      43.246 -18.947   2.078  1.00  0.00    -0.245 NA
HETATM    6  C   UNL     1      42.393 -17.942   2.338  1.00  0.00     0.111 A 
HETATM    7  C   UNL     1      42.028 -17.448   3.585  1.00  0.00     0.034 A 
HETATM    8  C   UNL     1      42.594 -18.115   4.719  1.00  0.00    -0.039 A 
HETATM    9  C   UNL     1      42.211 -17.757   6.135  1.00  0.00     0.050 C 
HETATM   10  S   UNL     1      41.622 -17.161   1.045  1.00  0.00    -0.063 SA
HETATM   11  C   UNL     1      40.792 -16.087   2.087  1.00  0.00     0.085 A 
HETATM   12  C   UNL     1      41.103 -16.337   3.415  1.00  0.00     0.061 A 
HETATM   13  N   UNL     1      40.582 -15.632   4.448  1.00  0.00    -0.397 N 
HETATM   14  H   UNL     1      39.908 -14.879   4.344  1.00  0.00     0.156 HD
HETATM   15  H   UNL     1      40.952 -15.689   5.390  1.00  0.00     0.156 HD
ENDROOT
BRANCH  11  16
HETATM   16  C   UNL     1      39.901 -15.123   1.460  1.00  0.00     0.201 C 
HETATM   17  O   UNL     1      38.698 -15.047   1.710  1.00  0.00    -0.286 OA
BRANCH  16  18
HETATM   18  C   UNL     1      40.424 -14.157   0.451  1.00  0.00     0.018 A 
HETATM   19  C   UNL     1      41.506 -13.310   0.731  1.00  0.00     0.055 A 
HETATM   20  C   UNL     1      41.924 -12.458  -0.272  1.00  0.00     0.106 A 
HETATM   21  C   UNL     1      41.323 -12.437  -1.510  1.00  0.00     0.105 A 
HETATM   22  O   UNL     1      42.943 -11.562  -0.177  1.00  0.00    -0.323 OA
HETATM   23  O   UNL     1      41.890 -11.527  -2.346  1.00  0.00    -0.323 OA
HETATM   24  C   UNL     1      40.272 -13.268  -1.823  1.00  0.00     0.040 A 
HETATM   25  C   UNL     1      42.928 -10.988  -1.501  1.00  0.00     0.352 A 
HETATM   26  C   UNL     1      39.822 -14.142  -0.829  1.00  0.00     0.018 A 
ENDBRANCH  16  18
ENDBRANCH  11  16
TORSDOF 2
ENDMDL
MODEL 7
REMARK VINA RESULT:      -8.2      2.100      3.548
REMARK  2 active torsions:
REMARK  status: ('A' for Active; 'I' for Inactive)
REMARK    1  A    between atoms: C_11  and  C_12 
REMARK    2  A    between atoms: C_12  and  C_13 
ROOT
HETATM    1  C   UNL     1      45.075 -20.435   4.672  1.00  0.00     0.051 C 
HETATM    2  C   UNL     1      44.279 -19.166   4.484  1.00  0.00    -0.031 A 
HETATM    3  C   UNL     1      44.337 -18.143   5.440  1.00  0.00     0.038 A 
HETATM    4  C   UNL     1      45.195 -18.253   6.672  1.00  0.00     0.071 C 
HETATM    5  N   UNL     1      43.657 -16.988   5.347  1.00  0.00    -0.245 NA
HETATM    6  C   UNL     1      42.887 -16.852   4.254  1.00  0.00     0.111 A 
HETATM    7  C   UNL     1      42.730 -17.763   3.216  1.00  0.00     0.034 A 
HETATM    8  C   UNL     1      43.508 -18.962   3.304  1.00  0.00    -0.039 A 
HETATM    9  C   UNL     1      43.518 -19.995   2.204  1.00  0.00     0.050 C 
HETATM   10  S   UNL     1      42.003 -15.421   4.043  1.00  0.00    -0.063 SA
HETATM   11  C   UNL     1      41.323 -15.966   2.570  1.00  0.00     0.085 A 
HETATM   12  C   UNL     1      41.783 -17.233   2.246  1.00  0.00     0.061 A 
HETATM   13  N   UNL     1      41.405 -17.900   1.129  1.00  0.00    -0.397 N 
HETATM   14  H   UNL     1      40.773 -17.526   0.426  1.00  0.00     0.156 HD
HETATM   15  H   UNL     1      41.589 -18.887   0.993  1.00  0.00     0.156 HD
ENDROOT
BRANCH  11  16
HETATM   16  C   UNL     1      40.419 -15.053   1.889  1.00  0.00     0.201 C 
HETATM   17  O   UNL     1      39.226 -14.939   2.175  1.00  0.00    -0.286 OA
BRANCH  16  18
HETATM   18  C   UNL     1      40.912 -14.191   0.777  1.00  0.00     0.018 A 
HETATM   19  C   UNL     1      41.726 -13.074   1.013  1.00  0.00     0.055 A 
HETATM   20  C   UNL     1      42.140 -12.345  -0.083  1.00  0.00     0.106 A 
HETATM   21  C   UNL     1      41.791 -12.694  -1.368  1.00  0.00     0.105 A 
HETATM   22  O   UNL     1      42.918 -11.230  -0.046  1.00  0.00    -0.323 OA
HETATM   23  O   UNL     1      42.306 -11.843  -2.295  1.00  0.00    -0.323 OA
HETATM   24  C   UNL     1      41.009 -13.795  -1.635  1.00  0.00     0.040 A 
HETATM   25  C   UNL     1      43.034 -10.928  -1.452  1.00  0.00     0.352 A 
HETATM   26  C   UNL     1      40.570 -14.555  -0.547  1.00  0.00     0.018 A 
ENDBRANCH  16  18
ENDBRANCH  11  16
TORSDOF 2
ENDMDL
MODEL 8
REMARK VINA RESULT:      -8.1      0.837      1.432
REMARK  2 active torsions:
REMARK  status: ('A' for Active; 'I' for Inactive)
REMARK    1  A    between atoms: C_11  and  C_12 
REMARK    2  A    between atoms: C_12  and  C_13 
ROOT
HETATM    1  C   UNL     1      45.077 -21.980   4.620  1.00  0.00     0.051 C 
HETATM    2  C   UNL     1      44.439 -20.758   4.006  1.00  0.00    -0.031 A 
HETATM    3  C   UNL     1      44.099 -20.741   2.646  1.00  0.00     0.038 A 
HETATM    4  C   UNL     1      44.337 -21.929   1.752  1.00  0.00     0.071 C 
HETATM    5  N   UNL     1      43.533 -19.693   2.025  1.00  0.00    -0.245 NA
HETATM    6  C   UNL     1      43.298 -18.618   2.796  1.00  0.00     0.111 A 
HETATM    7  C   UNL     1      43.564 -18.479   4.153  1.00  0.00     0.034 A 
HETATM    8  C   UNL     1      44.114 -19.628   4.809  1.00  0.00    -0.039 A 
HETATM    9  C   UNL     1      44.360 -19.661   6.298  1.00  0.00     0.050 C 
HETATM   10  S   UNL     1      42.572 -17.251   2.103  1.00  0.00    -0.063 SA
HETATM   11  C   UNL     1      42.620 -16.382   3.576  1.00  0.00     0.085 A 
HETATM   12  C   UNL     1      43.182 -17.145   4.589  1.00  0.00     0.061 A 
HETATM   13  N   UNL     1      43.338 -16.698   5.858  1.00  0.00    -0.397 N 
HETATM   14  H   UNL     1      43.042 -15.782   6.183  1.00  0.00     0.156 HD
HETATM   15  H   UNL     1      43.916 -17.179   6.539  1.00  0.00     0.156 HD
ENDROOT
BRANCH  11  16
HETATM   16  C   UNL     1      42.068 -15.037   3.561  1.00  0.00     0.201 C 
HETATM   17  O   UNL     1      42.234 -14.224   4.472  1.00  0.00    -0.286 OA
BRANCH  16  18
HETATM   18  C   UNL     1      41.248 -14.569   2.407  1.00  0.00     0.018 A 
HETATM   19  C   UNL     1      39.865 -14.793   2.344  1.00  0.00     0.055 A 
HETATM   20  C   UNL     1      39.191 -14.312   1.240  1.00  0.00     0.106 A 
HETATM   21  C   UNL     1      39.833 -13.625   0.234  1.00  0.00     0.105 A 
HETATM   22  O   UNL     1      37.858 -14.446   1.003  1.00  0.00    -0.323 OA
HETATM   23  O   UNL     1      38.983 -13.241  -0.756  1.00  0.00    -0.323 OA
HETATM   24  C   UNL     1      41.185 -13.372   0.274  1.00  0.00     0.040 A 
HETATM   25  C   UNL     1      37.730 -13.749  -0.254  1.00  0.00     0.352 A 
HETATM   26  C   UNL     1      41.898 -13.848   1.378  1.00  0.00     0.018 A 
ENDBRANCH  16  18
ENDBRANCH  11  16
TORSDOF 2
ENDMDL
MODEL 9
REMARK VINA RESULT:      -8.0      3.133      7.910
REMARK  2 active torsions:
REMARK  status: ('A' for Active; 'I' for Inactive)
REMARK    1  A    between atoms: C_11  and  C_12 
REMARK    2  A    between atoms: C_12  and  C_13 
ROOT
HETATM    1  C   UNL     1      39.770 -11.618  -1.634  1.00  0.00     0.051 C 
HETATM    2  C   UNL     1      40.475 -12.339  -0.511  1.00  0.00    -0.031 A 
HETATM    3  C   UNL     1      41.740 -11.916  -0.079  1.00  0.00     0.038 A 
HETATM    4  C   UNL     1      42.436 -10.731  -0.695  1.00  0.00     0.071 C 
HETATM    5  N   UNL     1      42.433 -12.505   0.910  1.00  0.00    -0.245 NA
HETATM    6  C   UNL     1      41.837 -13.561   1.489  1.00  0.00     0.111 A 
HETATM    7  C   UNL     1      40.590 -14.096   1.186  1.00  0.00     0.034 A 
HETATM    8  C   UNL     1      39.842 -13.418   0.170  1.00  0.00    -0.039 A 
HETATM    9  C   UNL     1      38.434 -13.821  -0.195  1.00  0.00     0.050 C 
HETATM   10  S   UNL     1      42.630 -14.361   2.756  1.00  0.00    -0.063 SA
HETATM   11  C   UNL     1      41.363 -15.497   2.935  1.00  0.00     0.085 A 
HETATM   12  C   UNL     1      40.340 -15.253   2.031  1.00  0.00     0.061 A 
HETATM   13  N   UNL     1      39.215 -16.004   1.959  1.00  0.00    -0.397 N 
HETATM   14  H   UNL     1      39.013 -16.792   2.568  1.00  0.00     0.156 HD
HETATM   15  H   UNL     1      38.566 -15.943   1.182  1.00  0.00     0.156 HD
ENDROOT
BRANCH  11  16
HETATM   16  C   UNL     1      41.524 -16.498   3.978  1.00  0.00     0.201 C 
HETATM   17  O   UNL     1      40.948 -16.446   5.065  1.00  0.00    -0.286 OA
BRANCH  16  18
HETATM   18  C   UNL     1      42.426 -17.668   3.770  1.00  0.00     0.018 A 
HETATM   19  C   UNL     1      43.058 -18.313   4.843  1.00  0.00     0.055 A 
HETATM   20  C   UNL     1      43.865 -19.393   4.550  1.00  0.00     0.106 A 
HETATM   21  C   UNL     1      44.044 -19.844   3.262  1.00  0.00     0.105 A 
HETATM   22  O   UNL     1      44.564 -20.129   5.456  1.00  0.00    -0.323 OA
HETATM   23  O   UNL     1      44.876 -20.918   3.199  1.00  0.00    -0.323 OA
HETATM   24  C   UNL     1      43.424 -19.245   2.189  1.00  0.00     0.040 A 
HETATM   25  C   UNL     1      45.188 -21.105   4.595  1.00  0.00     0.352 A 
HETATM   26  C   UNL     1      42.601 -18.146   2.450  1.00  0.00     0.018 A 
ENDBRANCH  16  18
ENDBRANCH  11  16
TORSDOF 2
ENDMDL
MODEL 10
REMARK VINA RESULT:      -7.9      2.922      7.458
REMARK  2 active torsions:
REMARK  status: ('A' for Active; 'I' for Inactive)
REMARK    1  A    between atoms: C_11  and  C_12 
REMARK    2  A    between atoms: C_12  and  C_13 
ROOT
HETATM    1  C   UNL     1      38.023 -13.429  -1.953  1.00  0.00     0.051 C 
HETATM    2  C   UNL     1      39.153 -14.064  -1.179  1.00  0.00    -0.031 A 
HETATM    3  C   UNL     1      40.324 -14.469  -1.835  1.00  0.00     0.038 A 
HETATM    4  C   UNL     1      40.513 -14.277  -3.316  1.00  0.00     0.071 C 
HETATM    5  N   UNL     1      41.370 -15.044  -1.219  1.00  0.00    -0.245 NA
HETATM    6  C   UNL     1      41.239 -15.222   0.106  1.00  0.00     0.111 A 
HETATM    7  C   UNL     1      40.155 -14.870   0.901  1.00  0.00     0.034 A 
HETATM    8  C   UNL     1      39.074 -14.205   0.236  1.00  0.00    -0.039 A 
HETATM    9  C   UNL     1      37.877 -13.673   0.985  1.00  0.00     0.050 C 
HETATM   10  S   UNL     1      42.515 -15.928   0.971  1.00  0.00    -0.063 SA
HETATM   11  C   UNL     1      41.662 -15.842   2.452  1.00  0.00     0.085 A 
HETATM   12  C   UNL     1      40.412 -15.267   2.277  1.00  0.00     0.061 A 
HETATM   13  N   UNL     1      39.531 -15.077   3.288  1.00  0.00    -0.397 N 
HETATM   14  H   UNL     1      39.713 -15.317   4.258  1.00  0.00     0.156 HD
HETATM   15  H   UNL     1      38.559 -14.838   3.128  1.00  0.00     0.156 HD
ENDROOT
BRANCH  11  16
HETATM   16  C   UNL     1      42.348 -16.341   3.634  1.00  0.00     0.201 C 
HETATM   17  O   UNL     1      42.431 -15.710   4.688  1.00  0.00    -0.286 OA
BRANCH  16  18
HETATM   18  C   UNL     1      43.005 -17.679   3.617  1.00  0.00     0.018 A 
HETATM   19  C   UNL     1      42.811 -18.584   2.563  1.00  0.00     0.055 A 
HETATM   20  C   UNL     1      43.471 -19.794   2.633  1.00  0.00     0.106 A 
HETATM   21  C   UNL     1      44.304 -20.113   3.682  1.00  0.00     0.105 A 
HETATM   22  O   UNL     1      43.393 -20.795   1.715  1.00  0.00    -0.323 OA
HETATM   23  O   UNL     1      44.851 -21.350   3.551  1.00  0.00    -0.323 OA
HETATM   24  C   UNL     1      44.530 -19.240   4.722  1.00  0.00     0.040 A 
HETATM   25  C   UNL     1      44.284 -21.770   2.294  1.00  0.00     0.352 A 
HETATM   26  C   UNL     1      43.875 -18.006   4.683  1.00  0.00     0.018 A 
ENDBRANCH  16  18
ENDBRANCH  11  16
TORSDOF 2
ENDMDL
