MODEL 1
REMARK VINA RESULT:      -9.4      0.000      0.000
REMARK  5 active torsions:
REMARK  status: ('A' for Active; 'I' for Inactive)
REMARK    1  A    between atoms: C_7  and  C_8 
REMARK    2  A    between atoms: C_16  and  C_17 
REMARK    3  A    between atoms: C_19  and  O_20 
REMARK    4  A    between atoms: C_24  and  C_25 
REMARK       I    between atoms: C_25  and  N_26 
REMARK    5  A    between atoms: N_26  and  C_27 
ROOT
HETATM    1  C   UNL     1      41.587 -16.226  -0.130  1.00  0.00     0.070 C 
HETATM    2  C   UNL     1      41.832 -15.463   1.152  1.00  0.00     0.037 A 
HETATM    3  N   UNL     1      41.092 -14.292   1.290  1.00  0.00    -0.192 N 
HETATM    4  C   UNL     1      41.259 -13.422   2.299  1.00  0.00     0.726 A 
HETATM    5  N   UNL     1      42.128 -13.728   3.300  1.00  0.00    -0.083 N 
HETATM    6  N   UNL     1      42.284 -12.696   4.153  1.00  0.00    -0.135 NA
HETATM    7  C   UNL     1      41.387 -11.817   3.669  1.00  0.00     0.199 A 
HETATM    8  N   UNL     1      40.749 -12.238   2.514  1.00  0.00    -0.041 NA
HETATM    9  C   UNL     1      42.912 -14.966   3.359  1.00  0.00     0.202 A 
HETATM   10  C   UNL     1      42.723 -15.833   2.114  1.00  0.00     0.062 A 
HETATM   11  H   UNL     1      40.471 -14.036   0.527  1.00  0.00     0.184 HD
ENDROOT
BRANCH  10  12
HETATM   12  C   UNL     1      43.490 -17.123   1.996  1.00  0.00     0.256 C 
HETATM   13  N   UNL     1      42.904 -18.223   2.592  1.00  0.00    -0.323 N 
HETATM   14  H   UNL     1      41.967 -18.148   2.955  1.00  0.00     0.169 HD
HETATM   15  O   UNL     1      44.539 -17.149   1.360  1.00  0.00    -0.267 OA
BRANCH  13  16
HETATM   16  C   UNL     1      43.453 -19.521   2.704  1.00  0.00     0.035 A 
HETATM   17  C   UNL     1      43.313 -20.518   1.737  1.00  0.00     0.029 A 
HETATM   18  C   UNL     1      43.916 -21.768   1.914  1.00  0.00     0.002 A 
HETATM   19  C   UNL     1      44.659 -22.034   3.062  1.00  0.00     0.000 A 
HETATM   20  C   UNL     1      44.804 -21.048   4.032  1.00  0.00     0.002 A 
HETATM   21  C   UNL     1      44.210 -19.796   3.852  1.00  0.00     0.029 A 
ENDBRANCH  13  16
ENDBRANCH  10  12
BRANCH   9  22
HETATM   22  C   UNL     1      42.624 -15.687   4.674  1.00  0.00    -0.025 A 
HETATM   23  C   UNL     1      41.317 -16.043   5.054  1.00  0.00     0.046 A 
HETATM   24  C   UNL     1      41.098 -16.685   6.271  1.00  0.00     0.066 A 
HETATM   25  C   UNL     1      42.152 -16.968   7.131  1.00  0.00     0.036 A 
HETATM   26  C   UNL     1      43.448 -16.604   6.776  1.00  0.00     0.003 A 
HETATM   27  C   UNL     1      43.684 -15.966   5.557  1.00  0.00     0.010 A 
BRANCH  24  28
HETATM   28  O   UNL     1      39.846 -17.053   6.664  1.00  0.00    -0.361 OA
HETATM   29  H   UNL     1      39.430 -16.309   7.129  1.00  0.00     0.217 HD
ENDBRANCH  24  28
ENDBRANCH   9  22
BRANCH   7  30
HETATM   30  C   UNL     1      41.115 -10.520   4.279  1.00  0.00     0.016 A 
HETATM   31  C   UNL     1      41.367 -10.300   5.641  1.00  0.00     0.039 A 
HETATM   32  C   UNL     1      41.101  -9.056   6.211  1.00  0.00     0.035 A 
HETATM   33 CL   UNL     1      41.415  -8.798   7.884  1.00  0.00    -0.084 Cl
HETATM   34  C   UNL     1      40.579  -8.018   5.440  1.00  0.00     0.024 A 
HETATM   35  C   UNL     1      40.324  -8.225   4.086  1.00  0.00     0.003 A 
HETATM   36  C   UNL     1      40.590  -9.470   3.509  1.00  0.00     0.015 A 
ENDBRANCH   7  30
TORSDOF 5
ENDMDL
MODEL 2
REMARK VINA RESULT:      -9.1      3.835      8.585
REMARK  5 active torsions:
REMARK  status: ('A' for Active; 'I' for Inactive)
REMARK    1  A    between atoms: C_7  and  C_8 
REMARK    2  A    between atoms: C_16  and  C_17 
REMARK    3  A    between atoms: C_19  and  O_20 
REMARK    4  A    between atoms: C_24  and  C_25 
REMARK       I    between atoms: C_25  and  N_26 
REMARK    5  A    between atoms: N_26  and  C_27 
ROOT
HETATM    1  C   UNL     1      39.719 -14.144  -1.318  1.00  0.00     0.070 C 
HETATM    2  C   UNL     1      40.133 -14.759   0.000  1.00  0.00     0.037 A 
HETATM    3  N   UNL     1      41.222 -15.623  -0.071  1.00  0.00    -0.192 N 
HETATM    4  C   UNL     1      41.660 -16.354   0.968  1.00  0.00     0.726 A 
HETATM    5  N   UNL     1      41.079 -16.185   2.187  1.00  0.00    -0.083 N 
HETATM    6  N   UNL     1      41.533 -17.086   3.080  1.00  0.00    -0.135 NA
HETATM    7  C   UNL     1      42.481 -17.715   2.361  1.00  0.00     0.199 A 
HETATM    8  N   UNL     1      42.569 -17.288   1.046  1.00  0.00    -0.041 NA
HETATM    9  C   UNL     1      39.988 -15.242   2.456  1.00  0.00     0.202 A 
HETATM   10  C   UNL     1      39.500 -14.542   1.187  1.00  0.00     0.062 A 
HETATM   11  H   UNL     1      41.635 -15.785  -0.985  1.00  0.00     0.184 HD
ENDROOT
BRANCH  10  12
HETATM   12  C   UNL     1      38.355 -13.569   1.282  1.00  0.00     0.256 C 
HETATM   13  N   UNL     1      38.692 -12.283   1.653  1.00  0.00    -0.323 N 
HETATM   14  H   UNL     1      39.664 -12.026   1.719  1.00  0.00     0.169 HD
HETATM   15  O   UNL     1      37.222 -13.938   0.989  1.00  0.00    -0.267 OA
BRANCH  13  16
HETATM   16  C   UNL     1      37.804 -11.210   1.902  1.00  0.00     0.035 A 
HETATM   17  C   UNL     1      36.767 -10.837   1.045  1.00  0.00     0.029 A 
HETATM   18  C   UNL     1      35.914  -9.781   1.382  1.00  0.00     0.002 A 
HETATM   19  C   UNL     1      36.093  -9.086   2.575  1.00  0.00     0.000 A 
HETATM   20  C   UNL     1      37.124  -9.448   3.436  1.00  0.00     0.002 A 
HETATM   21  C   UNL     1      37.971 -10.509   3.104  1.00  0.00     0.029 A 
ENDBRANCH  13  16
ENDBRANCH  10  12
BRANCH   9  22
HETATM   22  C   UNL     1      40.403 -14.292   3.577  1.00  0.00    -0.025 A 
HETATM   23  C   UNL     1      39.711 -14.240   4.800  1.00  0.00     0.046 A 
HETATM   24  C   UNL     1      40.114 -13.345   5.789  1.00  0.00     0.066 A 
HETATM   25  C   UNL     1      41.185 -12.485   5.582  1.00  0.00     0.036 A 
HETATM   26  C   UNL     1      41.868 -12.513   4.369  1.00  0.00     0.003 A 
HETATM   27  C   UNL     1      41.479 -13.408   3.371  1.00  0.00     0.010 A 
BRANCH  24  28
HETATM   28  O   UNL     1      39.471 -13.276   6.989  1.00  0.00    -0.361 OA
HETATM   29  H   UNL     1      40.132 -13.273   7.701  1.00  0.00     0.217 HD
ENDBRANCH  24  28
ENDBRANCH   9  22
BRANCH   7  30
HETATM   30  C   UNL     1      43.333 -18.773   2.894  1.00  0.00     0.016 A 
HETATM   31  C   UNL     1      43.594 -19.930   2.145  1.00  0.00     0.039 A 
HETATM   32  C   UNL     1      44.408 -20.934   2.667  1.00  0.00     0.035 A 
HETATM   33 CL   UNL     1      44.721 -22.349   1.739  1.00  0.00    -0.084 Cl
HETATM   34  C   UNL     1      44.971 -20.804   3.936  1.00  0.00     0.024 A 
HETATM   35  C   UNL     1      44.719 -19.659   4.689  1.00  0.00     0.003 A 
HETATM   36  C   UNL     1      43.904 -18.649   4.170  1.00  0.00     0.015 A 
ENDBRANCH   7  30
TORSDOF 5
ENDMDL
MODEL 3
REMARK VINA RESULT:      -8.8      1.931      3.850
REMARK  5 active torsions:
REMARK  status: ('A' for Active; 'I' for Inactive)
REMARK    1  A    between atoms: C_7  and  C_8 
REMARK    2  A    between atoms: C_16  and  C_17 
REMARK    3  A    between atoms: C_19  and  O_20 
REMARK    4  A    between atoms: C_24  and  C_25 
REMARK       I    between atoms: C_25  and  N_26 
REMARK    5  A    between atoms: N_26  and  C_27 
ROOT
HETATM    1  C   UNL     1      44.316 -15.994   6.813  1.00  0.00     0.070 C 
HETATM    2  C   UNL     1      43.146 -15.442   6.030  1.00  0.00     0.037 A 
HETATM    3  N   UNL     1      42.926 -14.076   6.186  1.00  0.00    -0.192 N 
HETATM    4  C   UNL     1      41.869 -13.430   5.667  1.00  0.00     0.726 A 
HETATM    5  N   UNL     1      41.005 -14.110   4.867  1.00  0.00    -0.083 N 
HETATM    6  N   UNL     1      39.931 -13.361   4.549  1.00  0.00    -0.135 NA
HETATM    7  C   UNL     1      40.260 -12.180   5.105  1.00  0.00     0.199 A 
HETATM    8  N   UNL     1      41.449 -12.202   5.815  1.00  0.00    -0.041 NA
HETATM    9  C   UNL     1      41.146 -15.529   4.520  1.00  0.00     0.202 A 
HETATM   10  C   UNL     1      42.320 -16.189   5.245  1.00  0.00     0.062 A 
HETATM   11  H   UNL     1      43.544 -13.569   6.814  1.00  0.00     0.184 HD
ENDROOT
BRANCH  10  12
HETATM   12  C   UNL     1      42.582 -17.656   5.031  1.00  0.00     0.256 C 
HETATM   13  N   UNL     1      43.504 -17.961   4.048  1.00  0.00    -0.323 N 
HETATM   14  H   UNL     1      44.035 -17.220   3.621  1.00  0.00     0.169 HD
HETATM   15  O   UNL     1      42.021 -18.481   5.744  1.00  0.00    -0.267 OA
BRANCH  13  16
HETATM   16  C   UNL     1      43.859 -19.251   3.590  1.00  0.00     0.035 A 
HETATM   17  C   UNL     1      44.625 -20.160   4.323  1.00  0.00     0.029 A 
HETATM   18  C   UNL     1      44.907 -21.429   3.807  1.00  0.00     0.002 A 
HETATM   19  C   UNL     1      44.430 -21.799   2.552  1.00  0.00     0.000 A 
HETATM   20  C   UNL     1      43.667 -20.901   1.812  1.00  0.00     0.002 A 
HETATM   21  C   UNL     1      43.378 -19.636   2.331  1.00  0.00     0.029 A 
ENDBRANCH  13  16
ENDBRANCH  10  12
BRANCH   9  22
HETATM   22  C   UNL     1      41.183 -15.678   3.001  1.00  0.00    -0.025 A 
HETATM   23  C   UNL     1      41.641 -14.645   2.164  1.00  0.00     0.046 A 
HETATM   24  C   UNL     1      41.642 -14.819   0.782  1.00  0.00     0.066 A 
HETATM   25  C   UNL     1      41.180 -15.997   0.209  1.00  0.00     0.036 A 
HETATM   26  C   UNL     1      40.706 -17.021   1.024  1.00  0.00     0.003 A 
HETATM   27  C   UNL     1      40.705 -16.864   2.411  1.00  0.00     0.010 A 
BRANCH  24  28
HETATM   28  O   UNL     1      42.088 -13.841  -0.056  1.00  0.00    -0.361 OA
HETATM   29  H   UNL     1      41.331 -13.465  -0.533  1.00  0.00     0.217 HD
ENDBRANCH  24  28
ENDBRANCH   9  22
BRANCH   7  30
HETATM   30  C   UNL     1      39.436 -10.980   5.003  1.00  0.00     0.016 A 
HETATM   31  C   UNL     1      39.541  -9.955   5.954  1.00  0.00     0.039 A 
HETATM   32  C   UNL     1      38.747  -8.814   5.845  1.00  0.00     0.035 A 
HETATM   33 CL   UNL     1      38.885  -7.562   7.018  1.00  0.00    -0.084 Cl
HETATM   34  C   UNL     1      37.840  -8.677   4.795  1.00  0.00     0.024 A 
HETATM   35  C   UNL     1      37.727  -9.690   3.845  1.00  0.00     0.003 A 
HETATM   36  C   UNL     1      38.521 -10.835   3.949  1.00  0.00     0.015 A 
ENDBRANCH   7  30
TORSDOF 5
ENDMDL
MODEL 4
REMARK VINA RESULT:      -8.4      3.488      4.952
REMARK  5 active torsions:
REMARK  status: ('A' for Active; 'I' for Inactive)
REMARK    1  A    between atoms: C_7  and  C_8 
REMARK    2  A    between atoms: C_16  and  C_17 
REMARK    3  A    between atoms: C_19  and  O_20 
REMARK    4  A    between atoms: C_24  and  C_25 
REMARK       I    between atoms: C_25  and  N_26 
REMARK    5  A    between atoms: N_26  and  C_27 
ROOT
HETATM    1  C   UNL     1      40.981 -17.610   1.325  1.00  0.00     0.070 C 
HETATM    2  C   UNL     1      41.326 -16.146   1.472  1.00  0.00     0.037 A 
HETATM    3  N   UNL     1      41.245 -15.402   0.298  1.00  0.00    -0.192 N 
HETATM    4  C   UNL     1      41.627 -14.118   0.204  1.00  0.00     0.726 A 
HETATM    5  N   UNL     1      42.030 -13.463   1.327  1.00  0.00    -0.083 N 
HETATM    6  N   UNL     1      42.511 -12.238   1.039  1.00  0.00    -0.135 NA
HETATM    7  C   UNL     1      42.268 -12.163  -0.283  1.00  0.00     0.199 A 
HETATM    8  N   UNL     1      41.734 -13.320  -0.825  1.00  0.00    -0.041 NA
HETATM    9  C   UNL     1      42.079 -14.071   2.661  1.00  0.00     0.202 A 
HETATM   10  C   UNL     1      41.724 -15.558   2.635  1.00  0.00     0.062 A 
HETATM   11  H   UNL     1      40.983 -15.893  -0.553  1.00  0.00     0.184 HD
ENDROOT
BRANCH  10  12
HETATM   12  C   UNL     1      41.765 -16.344   3.918  1.00  0.00     0.256 C 
HETATM   13  N   UNL     1      43.021 -16.726   4.345  1.00  0.00    -0.323 N 
HETATM   14  H   UNL     1      43.835 -16.370   3.870  1.00  0.00     0.169 HD
HETATM   15  O   UNL     1      40.723 -16.560   4.529  1.00  0.00    -0.267 OA
BRANCH  13  16
HETATM   16  C   UNL     1      43.327 -17.542   5.460  1.00  0.00     0.035 A 
HETATM   17  C   UNL     1      43.374 -17.082   6.778  1.00  0.00     0.029 A 
HETATM   18  C   UNL     1      43.656 -17.964   7.827  1.00  0.00     0.002 A 
HETATM   19  C   UNL     1      43.899 -19.311   7.567  1.00  0.00     0.000 A 
HETATM   20  C   UNL     1      43.856 -19.779   6.258  1.00  0.00     0.002 A 
HETATM   21  C   UNL     1      43.566 -18.900   5.210  1.00  0.00     0.029 A 
ENDBRANCH  13  16
ENDBRANCH  10  12
BRANCH   9  22
HETATM   22  C   UNL     1      41.235 -13.243   3.627  1.00  0.00    -0.025 A 
HETATM   23  C   UNL     1      41.708 -12.876   4.900  1.00  0.00     0.046 A 
HETATM   24  C   UNL     1      40.897 -12.133   5.755  1.00  0.00     0.066 A 
HETATM   25  C   UNL     1      39.614 -11.759   5.379  1.00  0.00     0.036 A 
HETATM   26  C   UNL     1      39.126 -12.131   4.129  1.00  0.00     0.003 A 
HETATM   27  C   UNL     1      39.928 -12.870   3.258  1.00  0.00     0.010 A 
BRANCH  24  28
HETATM   28  O   UNL     1      41.330 -11.754   6.991  1.00  0.00    -0.361 OA
HETATM   29  H   UNL     1      41.724 -10.869   6.929  1.00  0.00     0.217 HD
ENDBRANCH  24  28
ENDBRANCH   9  22
BRANCH   7  30
HETATM   30  C   UNL     1      42.560 -10.986  -1.094  1.00  0.00     0.016 A 
HETATM   31  C   UNL     1      43.280  -9.908  -0.561  1.00  0.00     0.039 A 
HETATM   32  C   UNL     1      43.550  -8.788  -1.347  1.00  0.00     0.035 A 
HETATM   33 CL   UNL     1      44.436  -7.471  -0.682  1.00  0.00    -0.084 Cl
HETATM   34  C   UNL     1      43.109  -8.724  -2.668  1.00  0.00     0.024 A 
HETATM   35  C   UNL     1      42.392  -9.790  -3.208  1.00  0.00     0.003 A 
HETATM   36  C   UNL     1      42.118 -10.915  -2.425  1.00  0.00     0.015 A 
ENDBRANCH   7  30
TORSDOF 5
ENDMDL
MODEL 5
REMARK VINA RESULT:      -8.4      4.469      6.293
REMARK  5 active torsions:
REMARK  status: ('A' for Active; 'I' for Inactive)
REMARK    1  A    between atoms: C_7  and  C_8 
REMARK    2  A    between atoms: C_16  and  C_17 
REMARK    3  A    between atoms: C_19  and  O_20 
REMARK    4  A    between atoms: C_24  and  C_25 
REMARK       I    between atoms: C_25  and  N_26 
REMARK    5  A    between atoms: N_26  and  C_27 
ROOT
HETATM    1  C   UNL     1      40.971 -13.540   4.654  1.00  0.00     0.070 C 
HETATM    2  C   UNL     1      40.345 -13.432   3.282  1.00  0.00     0.037 A 
HETATM    3  N   UNL     1      39.328 -12.488   3.172  1.00  0.00    -0.192 N 
HETATM    4  C   UNL     1      38.576 -12.331   2.070  1.00  0.00     0.726 A 
HETATM    5  N   UNL     1      38.867 -13.061   0.960  1.00  0.00    -0.083 N 
HETATM    6  N   UNL     1      37.939 -12.892  -0.001  1.00  0.00    -0.135 NA
HETATM    7  C   UNL     1      37.154 -11.949   0.553  1.00  0.00     0.199 A 
HETATM    8  N   UNL     1      37.521 -11.595   1.842  1.00  0.00    -0.041 NA
HETATM    9  C   UNL     1      39.968 -14.027   0.875  1.00  0.00     0.202 A 
HETATM   10  C   UNL     1      40.691 -14.201   2.212  1.00  0.00     0.062 A 
HETATM   11  H   UNL     1      39.078 -11.967   4.008  1.00  0.00     0.184 HD
ENDROOT
BRANCH  10  12
HETATM   12  C   UNL     1      41.824 -15.189   2.308  1.00  0.00     0.256 C 
HETATM   13  N   UNL     1      41.455 -16.502   2.525  1.00  0.00    -0.323 N 
HETATM   14  H   UNL     1      40.481 -16.755   2.484  1.00  0.00     0.169 HD
HETATM   15  O   UNL     1      42.978 -14.803   2.149  1.00  0.00    -0.267 OA
BRANCH  13  16
HETATM   16  C   UNL     1      42.318 -17.601   2.744  1.00  0.00     0.035 A 
HETATM   17  C   UNL     1      42.757 -18.465   1.739  1.00  0.00     0.029 A 
HETATM   18  C   UNL     1      43.636 -19.512   2.037  1.00  0.00     0.002 A 
HETATM   19  C   UNL     1      44.079 -19.707   3.342  1.00  0.00     0.000 A 
HETATM   20  C   UNL     1      43.648 -18.853   4.352  1.00  0.00     0.002 A 
HETATM   21  C   UNL     1      42.777 -17.801   4.053  1.00  0.00     0.029 A 
ENDBRANCH  13  16
ENDBRANCH  10  12
BRANCH   9  22
HETATM   22  C   UNL     1      40.883 -13.654  -0.288  1.00  0.00    -0.025 A 
HETATM   23  C   UNL     1      41.027 -14.482  -1.416  1.00  0.00     0.046 A 
HETATM   24  C   UNL     1      41.886 -14.109  -2.447  1.00  0.00     0.066 A 
HETATM   25  C   UNL     1      42.622 -12.933  -2.375  1.00  0.00     0.036 A 
HETATM   26  C   UNL     1      42.504 -12.113  -1.257  1.00  0.00     0.003 A 
HETATM   27  C   UNL     1      41.642 -12.470  -0.218  1.00  0.00     0.010 A 
BRANCH  24  28
HETATM   28  O   UNL     1      42.040 -14.885  -3.557  1.00  0.00    -0.361 OA
HETATM   29  H   UNL     1      41.228 -15.396  -3.700  1.00  0.00     0.217 HD
ENDBRANCH  24  28
ENDBRANCH   9  22
BRANCH   7  30
HETATM   30  C   UNL     1      36.001 -11.358  -0.117  1.00  0.00     0.016 A 
HETATM   31  C   UNL     1      34.833 -11.055   0.597  1.00  0.00     0.039 A 
HETATM   32  C   UNL     1      33.737 -10.493  -0.056  1.00  0.00     0.035 A 
HETATM   33 CL   UNL     1      32.309 -10.125   0.832  1.00  0.00    -0.084 Cl
HETATM   34  C   UNL     1      33.786 -10.226  -1.424  1.00  0.00     0.024 A 
HETATM   35  C   UNL     1      34.941 -10.524  -2.144  1.00  0.00     0.003 A 
HETATM   36  C   UNL     1      36.042 -11.087  -1.494  1.00  0.00     0.015 A 
ENDBRANCH   7  30
TORSDOF 5
ENDMDL
MODEL 6
REMARK VINA RESULT:      -8.2      3.074      3.848
REMARK  5 active torsions:
REMARK  status: ('A' for Active; 'I' for Inactive)
REMARK    1  A    between atoms: C_7  and  C_8 
REMARK    2  A    between atoms: C_16  and  C_17 
REMARK    3  A    between atoms: C_19  and  O_20 
REMARK    4  A    between atoms: C_24  and  C_25 
REMARK       I    between atoms: C_25  and  N_26 
REMARK    5  A    between atoms: N_26  and  C_27 
ROOT
HETATM    1  C   UNL     1      40.603 -18.010   0.724  1.00  0.00     0.070 C 
HETATM    2  C   UNL     1      41.142 -16.644   1.083  1.00  0.00     0.037 A 
HETATM    3  N   UNL     1      40.781 -15.622   0.210  1.00  0.00    -0.192 N 
HETATM    4  C   UNL     1      41.258 -14.369   0.295  1.00  0.00     0.726 A 
HETATM    5  N   UNL     1      42.067 -14.038   1.337  1.00  0.00    -0.083 N 
HETATM    6  N   UNL     1      42.570 -12.796   1.199  1.00  0.00    -0.135 NA
HETATM    7  C   UNL     1      41.933 -12.377   0.089  1.00  0.00     0.199 A 
HETATM    8  N   UNL     1      41.126 -13.338  -0.496  1.00  0.00    -0.041 NA
HETATM    9  C   UNL     1      42.464 -14.969   2.399  1.00  0.00     0.202 A 
HETATM   10  C   UNL     1      41.951 -16.388   2.149  1.00  0.00     0.062 A 
HETATM   11  H   UNL     1      40.210 -15.870  -0.594  1.00  0.00     0.184 HD
ENDROOT
BRANCH  10  12
HETATM   12  C   UNL     1      42.304 -17.478   3.125  1.00  0.00     0.256 C 
HETATM   13  N   UNL     1      43.452 -18.190   2.837  1.00  0.00    -0.323 N 
HETATM   14  H   UNL     1      44.050 -17.882   2.088  1.00  0.00     0.169 HD
HETATM   15  O   UNL     1      41.608 -17.647   4.122  1.00  0.00    -0.267 OA
BRANCH  13  16
HETATM   16  C   UNL     1      43.952 -19.313   3.536  1.00  0.00     0.035 A 
HETATM   17  C   UNL     1      44.205 -19.334   4.909  1.00  0.00     0.029 A 
HETATM   18  C   UNL     1      44.671 -20.499   5.528  1.00  0.00     0.002 A 
HETATM   19  C   UNL     1      44.893 -21.651   4.779  1.00  0.00     0.000 A 
HETATM   20  C   UNL     1      44.646 -21.642   3.410  1.00  0.00     0.002 A 
HETATM   21  C   UNL     1      44.172 -20.482   2.793  1.00  0.00     0.029 A 
ENDBRANCH  13  16
ENDBRANCH  10  12
BRANCH   9  22
HETATM   22  C   UNL     1      42.069 -14.391   3.755  1.00  0.00    -0.025 A 
HETATM   23  C   UNL     1      40.726 -14.316   4.168  1.00  0.00     0.046 A 
HETATM   24  C   UNL     1      40.410 -13.764   5.408  1.00  0.00     0.066 A 
HETATM   25  C   UNL     1      41.401 -13.268   6.244  1.00  0.00     0.036 A 
HETATM   26  C   UNL     1      42.733 -13.318   5.840  1.00  0.00     0.003 A 
HETATM   27  C   UNL     1      43.066 -13.873   4.604  1.00  0.00     0.010 A 
BRANCH  24  28
HETATM   28  O   UNL     1      39.120 -13.687   5.841  1.00  0.00    -0.361 OA
HETATM   29  H   UNL     1      38.552 -13.428   5.097  1.00  0.00     0.217 HD
ENDBRANCH  24  28
ENDBRANCH   9  22
BRANCH   7  30
HETATM   30  C   UNL     1      42.087 -11.040  -0.477  1.00  0.00     0.016 A 
HETATM   31  C   UNL     1      41.036 -10.114  -0.425  1.00  0.00     0.039 A 
HETATM   32  C   UNL     1      41.196  -8.841  -0.972  1.00  0.00     0.035 A 
HETATM   33 CL   UNL     1      39.898  -7.713  -0.902  1.00  0.00    -0.084 Cl
HETATM   34  C   UNL     1      42.397  -8.473  -1.576  1.00  0.00     0.024 A 
HETATM   35  C   UNL     1      43.449  -9.386  -1.633  1.00  0.00     0.003 A 
HETATM   36  C   UNL     1      43.294 -10.663  -1.086  1.00  0.00     0.015 A 
ENDBRANCH   7  30
TORSDOF 5
ENDMDL
MODEL 7
REMARK VINA RESULT:      -8.2      2.366      4.087
REMARK  5 active torsions:
REMARK  status: ('A' for Active; 'I' for Inactive)
REMARK    1  A    between atoms: C_7  and  C_8 
REMARK    2  A    between atoms: C_16  and  C_17 
REMARK    3  A    between atoms: C_19  and  O_20 
REMARK    4  A    between atoms: C_24  and  C_25 
REMARK       I    between atoms: C_25  and  N_26 
REMARK    5  A    between atoms: N_26  and  C_27 
ROOT
HETATM    1  C   UNL     1      44.329 -15.186   7.423  1.00  0.00     0.070 C 
HETATM    2  C   UNL     1      43.294 -14.922   6.354  1.00  0.00     0.037 A 
HETATM    3  N   UNL     1      43.053 -13.577   6.088  1.00  0.00    -0.192 N 
HETATM    4  C   UNL     1      42.088 -13.144   5.260  1.00  0.00     0.726 A 
HETATM    5  N   UNL     1      41.356 -14.054   4.564  1.00  0.00    -0.083 N 
HETATM    6  N   UNL     1      40.344 -13.468   3.895  1.00  0.00    -0.135 NA
HETATM    7  C   UNL     1      40.584 -12.167   4.141  1.00  0.00     0.199 A 
HETATM    8  N   UNL     1      41.651 -11.941   4.996  1.00  0.00    -0.041 NA
HETATM    9  C   UNL     1      41.548 -15.506   4.652  1.00  0.00     0.202 A 
HETATM   10  C   UNL     1      42.597 -15.891   5.696  1.00  0.00     0.062 A 
HETATM   11  H   UNL     1      43.568 -12.891   6.633  1.00  0.00     0.184 HD
ENDROOT
BRANCH  10  12
HETATM   12  C   UNL     1      42.887 -17.347   5.941  1.00  0.00     0.256 C 
HETATM   13  N   UNL     1      43.748 -17.945   5.041  1.00  0.00    -0.323 N 
HETATM   14  H   UNL     1      44.226 -17.375   4.362  1.00  0.00     0.169 HD
HETATM   15  O   UNL     1      42.401 -17.905   6.920  1.00  0.00    -0.267 OA
BRANCH  13  16
HETATM   16  C   UNL     1      44.110 -19.311   4.991  1.00  0.00     0.035 A 
HETATM   17  C   UNL     1      44.149 -20.152   6.105  1.00  0.00     0.029 A 
HETATM   18  C   UNL     1      44.489 -21.502   5.963  1.00  0.00     0.002 A 
HETATM   19  C   UNL     1      44.799 -22.021   4.709  1.00  0.00     0.000 A 
HETATM   20  C   UNL     1      44.765 -21.191   3.593  1.00  0.00     0.002 A 
HETATM   21  C   UNL     1      44.416 -19.845   3.732  1.00  0.00     0.029 A 
ENDBRANCH  13  16
ENDBRANCH  10  12
BRANCH   9  22
HETATM   22  C   UNL     1      41.816 -16.068   3.258  1.00  0.00    -0.025 A 
HETATM   23  C   UNL     1      40.890 -16.897   2.600  1.00  0.00     0.046 A 
HETATM   24  C   UNL     1      41.184 -17.401   1.335  1.00  0.00     0.066 A 
HETATM   25  C   UNL     1      42.391 -17.110   0.712  1.00  0.00     0.036 A 
HETATM   26  C   UNL     1      43.325 -16.306   1.359  1.00  0.00     0.003 A 
HETATM   27  C   UNL     1      43.042 -15.789   2.624  1.00  0.00     0.010 A 
BRANCH  24  28
HETATM   28  O   UNL     1      40.304 -18.199   0.667  1.00  0.00    -0.361 OA
HETATM   29  H   UNL     1      40.572 -18.254  -0.264  1.00  0.00     0.217 HD
ENDBRANCH  24  28
ENDBRANCH   9  22
BRANCH   7  30
HETATM   30  C   UNL     1      39.787 -11.077   3.588  1.00  0.00     0.016 A 
HETATM   31  C   UNL     1      38.599 -11.339   2.891  1.00  0.00     0.039 A 
HETATM   32  C   UNL     1      37.848 -10.288   2.366  1.00  0.00     0.035 A 
HETATM   33 CL   UNL     1      36.391 -10.623   1.512  1.00  0.00    -0.084 Cl
HETATM   34  C   UNL     1      38.266  -8.968   2.524  1.00  0.00     0.024 A 
HETATM   35  C   UNL     1      39.445  -8.696   3.215  1.00  0.00     0.003 A 
HETATM   36  C   UNL     1      40.202  -9.745   3.744  1.00  0.00     0.015 A 
ENDBRANCH   7  30
TORSDOF 5
ENDMDL
MODEL 8
REMARK VINA RESULT:      -8.1      3.284      5.617
REMARK  5 active torsions:
REMARK  status: ('A' for Active; 'I' for Inactive)
REMARK    1  A    between atoms: C_7  and  C_8 
REMARK    2  A    between atoms: C_16  and  C_17 
REMARK    3  A    between atoms: C_19  and  O_20 
REMARK    4  A    between atoms: C_24  and  C_25 
REMARK       I    between atoms: C_25  and  N_26 
REMARK    5  A    between atoms: N_26  and  C_27 
ROOT
HETATM    1  C   UNL     1      37.406 -11.390   1.628  1.00  0.00     0.070 C 
HETATM    2  C   UNL     1      38.566 -11.629   2.568  1.00  0.00     0.037 A 
HETATM    3  N   UNL     1      38.300 -11.362   3.909  1.00  0.00    -0.192 N 
HETATM    4  C   UNL     1      39.234 -11.399   4.873  1.00  0.00     0.726 A 
HETATM    5  N   UNL     1      40.494 -11.808   4.559  1.00  0.00    -0.083 N 
HETATM    6  N   UNL     1      41.337 -11.653   5.598  1.00  0.00    -0.135 NA
HETATM    7  C   UNL     1      40.494 -11.241   6.563  1.00  0.00     0.199 A 
HETATM    8  N   UNL     1      39.188 -11.064   6.135  1.00  0.00    -0.041 NA
HETATM    9  C   UNL     1      40.915 -12.220   3.216  1.00  0.00     0.202 A 
HETATM   10  C   UNL     1      39.805 -12.040   2.179  1.00  0.00     0.062 A 
HETATM   11  H   UNL     1      37.373 -11.018   4.144  1.00  0.00     0.184 HD
ENDROOT
BRANCH  10  12
HETATM   12  C   UNL     1      40.085 -12.380   0.739  1.00  0.00     0.256 C 
HETATM   13  N   UNL     1      39.572 -13.584   0.299  1.00  0.00    -0.323 N 
HETATM   14  H   UNL     1      38.950 -14.105   0.896  1.00  0.00     0.169 HD
HETATM   15  O   UNL     1      40.694 -11.580   0.036  1.00  0.00    -0.267 OA
BRANCH  13  16
HETATM   16  C   UNL     1      39.768 -14.177  -0.970  1.00  0.00     0.035 A 
HETATM   17  C   UNL     1      40.859 -14.985  -1.298  1.00  0.00     0.029 A 
HETATM   18  C   UNL     1      40.960 -15.557  -2.571  1.00  0.00     0.002 A 
HETATM   19  C   UNL     1      39.977 -15.322  -3.528  1.00  0.00     0.000 A 
HETATM   20  C   UNL     1      38.887 -14.517  -3.213  1.00  0.00     0.002 A 
HETATM   21  C   UNL     1      38.780 -13.952  -1.939  1.00  0.00     0.029 A 
ENDBRANCH  13  16
ENDBRANCH  10  12
BRANCH   9  22
HETATM   22  C   UNL     1      41.493 -13.632   3.276  1.00  0.00    -0.025 A 
HETATM   23  C   UNL     1      40.740 -14.723   3.745  1.00  0.00     0.046 A 
HETATM   24  C   UNL     1      41.314 -15.992   3.798  1.00  0.00     0.066 A 
HETATM   25  C   UNL     1      42.632 -16.198   3.411  1.00  0.00     0.036 A 
HETATM   26  C   UNL     1      43.395 -15.123   2.963  1.00  0.00     0.003 A 
HETATM   27  C   UNL     1      42.832 -13.847   2.898  1.00  0.00     0.010 A 
BRANCH  24  28
HETATM   28  O   UNL     1      40.608 -17.072   4.238  1.00  0.00    -0.361 OA
HETATM   29  H   UNL     1      41.206 -17.664   4.720  1.00  0.00     0.217 HD
ENDBRANCH  24  28
ENDBRANCH   9  22
BRANCH   7  30
HETATM   30  C   UNL     1      40.904 -10.975   7.938  1.00  0.00     0.016 A 
HETATM   31  C   UNL     1      42.262 -10.877   8.275  1.00  0.00     0.039 A 
HETATM   32  C   UNL     1      42.640 -10.624   9.594  1.00  0.00     0.035 A 
HETATM   33 CL   UNL     1      44.309 -10.505   9.995  1.00  0.00    -0.084 Cl
HETATM   34  C   UNL     1      41.678 -10.469  10.591  1.00  0.00     0.024 A 
HETATM   35  C   UNL     1      40.327 -10.566  10.267  1.00  0.00     0.003 A 
HETATM   36  C   UNL     1      39.942 -10.818   8.948  1.00  0.00     0.015 A 
ENDBRANCH   7  30
TORSDOF 5
ENDMDL
MODEL 9
REMARK VINA RESULT:      -8.1      3.630      5.990
REMARK  5 active torsions:
REMARK  status: ('A' for Active; 'I' for Inactive)
REMARK    1  A    between atoms: C_7  and  C_8 
REMARK    2  A    between atoms: C_16  and  C_17 
REMARK    3  A    between atoms: C_19  and  O_20 
REMARK    4  A    between atoms: C_24  and  C_25 
REMARK       I    between atoms: C_25  and  N_26 
REMARK    5  A    between atoms: N_26  and  C_27 
ROOT
HETATM    1  C   UNL     1      41.535 -13.067   5.720  1.00  0.00     0.070 C 
HETATM    2  C   UNL     1      41.267 -13.761   4.404  1.00  0.00     0.037 A 
HETATM    3  N   UNL     1      41.073 -12.909   3.320  1.00  0.00    -0.192 N 
HETATM    4  C   UNL     1      40.706 -13.332   2.099  1.00  0.00     0.726 A 
HETATM    5  N   UNL     1      40.603 -14.669   1.865  1.00  0.00    -0.083 N 
HETATM    6  N   UNL     1      40.092 -14.919   0.644  1.00  0.00    -0.135 NA
HETATM    7  C   UNL     1      40.005 -13.676   0.135  1.00  0.00     0.199 A 
HETATM    8  N   UNL     1      40.367 -12.675   1.022  1.00  0.00    -0.041 NA
HETATM    9  C   UNL     1      40.870 -15.704   2.870  1.00  0.00     0.202 A 
HETATM   10  C   UNL     1      41.178 -15.111   4.245  1.00  0.00     0.062 A 
HETATM   11  H   UNL     1      41.109 -11.909   3.496  1.00  0.00     0.184 HD
ENDROOT
BRANCH  10  12
HETATM   12  C   UNL     1      41.436 -16.040   5.402  1.00  0.00     0.256 C 
HETATM   13  N   UNL     1      42.717 -16.550   5.483  1.00  0.00    -0.323 N 
HETATM   14  H   UNL     1      43.431 -16.196   4.867  1.00  0.00     0.169 HD
HETATM   15  O   UNL     1      40.544 -16.256   6.216  1.00  0.00    -0.267 OA
BRANCH  13  16
HETATM   16  C   UNL     1      43.192 -17.506   6.411  1.00  0.00     0.035 A 
HETATM   17  C   UNL     1      43.525 -17.215   7.736  1.00  0.00     0.029 A 
HETATM   18  C   UNL     1      43.960 -18.228   8.597  1.00  0.00     0.002 A 
HETATM   19  C   UNL     1      44.071 -19.539   8.141  1.00  0.00     0.000 A 
HETATM   20  C   UNL     1      43.743 -19.840   6.823  1.00  0.00     0.002 A 
HETATM   21  C   UNL     1      43.300 -18.830   5.964  1.00  0.00     0.029 A 
ENDBRANCH  13  16
ENDBRANCH  10  12
BRANCH   9  22
HETATM   22  C   UNL     1      41.942 -16.656   2.344  1.00  0.00    -0.025 A 
HETATM   23  C   UNL     1      41.752 -18.050   2.327  1.00  0.00     0.046 A 
HETATM   24  C   UNL     1      42.764 -18.883   1.854  1.00  0.00     0.066 A 
HETATM   25  C   UNL     1      43.972 -18.360   1.411  1.00  0.00     0.036 A 
HETATM   26  C   UNL     1      44.181 -16.984   1.440  1.00  0.00     0.003 A 
HETATM   27  C   UNL     1      43.174 -16.136   1.906  1.00  0.00     0.010 A 
BRANCH  24  28
HETATM   28  O   UNL     1      42.608 -20.236   1.815  1.00  0.00    -0.361 OA
HETATM   29  H   UNL     1      43.078 -20.630   2.568  1.00  0.00     0.217 HD
ENDBRANCH  24  28
ENDBRANCH   9  22
BRANCH   7  30
HETATM   30  C   UNL     1      39.547 -13.386  -1.220  1.00  0.00     0.016 A 
HETATM   31  C   UNL     1      38.543 -14.159  -1.819  1.00  0.00     0.039 A 
HETATM   32  C   UNL     1      38.116 -13.872  -3.115  1.00  0.00     0.035 A 
HETATM   33 CL   UNL     1      36.882 -14.828  -3.840  1.00  0.00    -0.084 Cl
HETATM   34  C   UNL     1      38.681 -12.818  -3.832  1.00  0.00     0.024 A 
HETATM   35  C   UNL     1      39.681 -12.044  -3.247  1.00  0.00     0.003 A 
HETATM   36  C   UNL     1      40.112 -12.326  -1.948  1.00  0.00     0.015 A 
ENDBRANCH   7  30
TORSDOF 5
ENDMDL
MODEL 10
REMARK VINA RESULT:      -8.0      3.205      5.679
REMARK  5 active torsions:
REMARK  status: ('A' for Active; 'I' for Inactive)
REMARK    1  A    between atoms: C_7  and  C_8 
REMARK    2  A    between atoms: C_16  and  C_17 
REMARK    3  A    between atoms: C_19  and  O_20 
REMARK    4  A    between atoms: C_24  and  C_25 
REMARK       I    between atoms: C_25  and  N_26 
REMARK    5  A    between atoms: N_26  and  C_27 
ROOT
HETATM    1  C   UNL     1      38.473 -11.417   3.473  1.00  0.00     0.070 C 
HETATM    2  C   UNL     1      39.655 -12.024   4.193  1.00  0.00     0.037 A 
HETATM    3  N   UNL     1      39.965 -11.435   5.416  1.00  0.00    -0.192 N 
HETATM    4  C   UNL     1      41.048 -11.757   6.142  1.00  0.00     0.726 A 
HETATM    5  N   UNL     1      41.848 -12.775   5.724  1.00  0.00    -0.083 N 
HETATM    6  N   UNL     1      42.958 -12.874   6.480  1.00  0.00    -0.135 NA
HETATM    7  C   UNL     1      42.719 -11.945   7.423  1.00  0.00     0.199 A 
HETATM    8  N   UNL     1      41.548 -11.230   7.228  1.00  0.00    -0.041 NA
HETATM    9  C   UNL     1      41.608 -13.564   4.511  1.00  0.00     0.202 A 
HETATM   10  C   UNL     1      40.413 -13.048   3.709  1.00  0.00     0.062 A 
HETATM   11  H   UNL     1      39.396 -10.648   5.715  1.00  0.00     0.184 HD
ENDROOT
BRANCH  10  12
HETATM   12  C   UNL     1      40.054 -13.724   2.412  1.00  0.00     0.256 C 
HETATM   13  N   UNL     1      40.845 -13.396   1.328  1.00  0.00    -0.323 N 
HETATM   14  H   UNL     1      41.673 -12.841   1.471  1.00  0.00     0.169 HD
HETATM   15  O   UNL     1      39.138 -14.540   2.388  1.00  0.00    -0.267 OA
BRANCH  13  16
HETATM   16  C   UNL     1      40.666 -13.816  -0.010  1.00  0.00     0.035 A 
HETATM   17  C   UNL     1      40.029 -13.054  -0.992  1.00  0.00     0.029 A 
HETATM   18  C   UNL     1      39.922 -13.532  -2.302  1.00  0.00     0.002 A 
HETATM   19  C   UNL     1      40.444 -14.778  -2.641  1.00  0.00     0.000 A 
HETATM   20  C   UNL     1      41.080 -15.546  -1.671  1.00  0.00     0.002 A 
HETATM   21  C   UNL     1      41.196 -15.065  -0.364  1.00  0.00     0.029 A 
ENDBRANCH  13  16
ENDBRANCH  10  12
BRANCH   9  22
HETATM   22  C   UNL     1      41.524 -15.044   4.877  1.00  0.00    -0.025 A 
HETATM   23  C   UNL     1      42.260 -16.023   4.185  1.00  0.00     0.046 A 
HETATM   24  C   UNL     1      42.140 -17.365   4.543  1.00  0.00     0.066 A 
HETATM   25  C   UNL     1      41.289 -17.759   5.568  1.00  0.00     0.036 A 
HETATM   26  C   UNL     1      40.541 -16.802   6.249  1.00  0.00     0.003 A 
HETATM   27  C   UNL     1      40.655 -15.454   5.906  1.00  0.00     0.010 A 
BRANCH  24  28
HETATM   28  O   UNL     1      42.846 -18.336   3.899  1.00  0.00    -0.361 OA
HETATM   29  H   UNL     1      43.782 -18.081   3.872  1.00  0.00     0.217 HD
ENDBRANCH  24  28
ENDBRANCH   9  22
BRANCH   7  30
HETATM   30  C   UNL     1      43.613 -11.680   8.545  1.00  0.00     0.016 A 
HETATM   31  C   UNL     1      43.216 -10.844   9.599  1.00  0.00     0.039 A 
HETATM   32  C   UNL     1      44.082 -10.599  10.664  1.00  0.00     0.035 A 
HETATM   33 CL   UNL     1      43.582  -9.571  11.951  1.00  0.00    -0.084 Cl
HETATM   34  C   UNL     1      45.350 -11.176  10.696  1.00  0.00     0.024 A 
HETATM   35  C   UNL     1      45.756 -12.008   9.654  1.00  0.00     0.003 A 
HETATM   36  C   UNL     1      44.892 -12.258   8.584  1.00  0.00     0.015 A 
ENDBRANCH   7  30
TORSDOF 5
ENDMDL
