MODEL 1
REMARK VINA RESULT:      -8.5      0.000      0.000
REMARK  8 active torsions:
REMARK  status: ('A' for Active; 'I' for Inactive)
REMARK    1  A    between atoms: O_2  and  C_3 
REMARK    2  A    between atoms: C_4  and  N_5 
REMARK    3  A    between atoms: N_5  and  C_6 
REMARK    4  A    between atoms: C_6  and  C_7 
REMARK       I    between atoms: C_7  and  N_8 
REMARK    5  A    between atoms: N_8  and  N_9 
REMARK    6  A    between atoms: N_9  and  C_10 
REMARK    7  A    between atoms: C_10  and  C_11 
REMARK       I    between atoms: C_11  and  N_12 
REMARK    8  A    between atoms: N_12  and  C_13 
ROOT
HETATM    1  C   UNL     1      43.760 -16.016   7.209  1.00  0.00     0.245 C 
HETATM    2  N   UNL     1      44.119 -14.670   7.206  1.00  0.00    -0.290 N 
HETATM    3  O   UNL     1      43.692 -16.715   8.221  1.00  0.00    -0.271 OA
HETATM    4  H   UNL     1      44.376 -14.240   6.318  1.00  0.00     0.183 HD
ENDROOT
BRANCH   2   5
HETATM    5  N   UNL     1      44.438 -14.020   8.423  1.00  0.00    -0.229 NA
HETATM    6  H   UNL     1      43.576 -13.653   8.838  1.00  0.00     0.147 HD
BRANCH   5   7
HETATM    7  C   UNL     1      45.372 -12.900   8.190  1.00  0.00     0.213 C 
BRANCH   7   8
HETATM    8  C   UNL     1      44.968 -11.699   9.048  1.00  0.00     0.236 C 
HETATM    9  N   UNL     1      43.715 -11.848   9.623  1.00  0.00    -0.326 N 
HETATM   10  H   UNL     1      43.225 -12.702   9.358  1.00  0.00     0.169 HD
HETATM   11  O   UNL     1      45.730 -10.746   9.194  1.00  0.00    -0.272 OA
BRANCH   9  12
HETATM   12  C   UNL     1      43.048 -10.950  10.480  1.00  0.00     0.036 A 
HETATM   13  C   UNL     1      43.537 -10.556  11.729  1.00  0.00     0.056 A 
HETATM   14  C   UNL     1      42.813  -9.655  12.518  1.00  0.00     0.074 A 
HETATM   15 CL   UNL     1      43.435  -9.180  14.052  1.00  0.00    -0.081 Cl
HETATM   16  C   UNL     1      41.601  -9.147  12.061  1.00  0.00     0.138 A 
HETATM   17  F   UNL     1      40.894  -8.280  12.802  1.00  0.00    -0.204 F 
HETATM   18  C   UNL     1      41.101  -9.530  10.822  1.00  0.00     0.046 A 
HETATM   19  C   UNL     1      41.823 -10.431  10.033  1.00  0.00     0.032 A 
ENDBRANCH   9  12
ENDBRANCH   7   8
ENDBRANCH   5   7
ENDBRANCH   2   5
BRANCH   1  20
HETATM   20  C   UNL     1      43.524 -16.593   5.807  1.00  0.00     0.196 C 
BRANCH  20  21
HETATM   21  N   UNL     1      44.089 -17.954   5.742  1.00  0.00    -0.282 NA
HETATM   22  H   UNL     1      43.621 -18.533   6.441  1.00  0.00     0.128 HD
BRANCH  21  23
HETATM   23  C   UNL     1      43.868 -18.530   4.459  1.00  0.00     0.042 A 
HETATM   24  C   UNL     1      44.436 -19.767   4.086  1.00  0.00     0.089 A 
HETATM   25  C   UNL     1      44.243 -20.249   2.784  1.00  0.00     0.038 A 
HETATM   26  C   UNL     1      43.505 -19.511   1.856  1.00  0.00     0.003 A 
HETATM   27  C   UNL     1      42.960 -18.284   2.214  1.00  0.00     0.002 A 
HETATM   28  C   UNL     1      43.145 -17.794   3.506  1.00  0.00     0.026 A 
BRANCH  24  29
HETATM   29  O   UNL     1      45.168 -20.429   5.045  1.00  0.00    -0.354 OA
HETATM   30  C   UNL     1      44.822 -21.794   5.261  1.00  0.00     0.210 C 
ENDBRANCH  24  29
ENDBRANCH  21  23
ENDBRANCH  20  21
ENDBRANCH   1  20
TORSDOF 8
ENDMDL
MODEL 2
REMARK VINA RESULT:      -8.4      1.171      1.950
REMARK  8 active torsions:
REMARK  status: ('A' for Active; 'I' for Inactive)
REMARK    1  A    between atoms: O_2  and  C_3 
REMARK    2  A    between atoms: C_4  and  N_5 
REMARK    3  A    between atoms: N_5  and  C_6 
REMARK    4  A    between atoms: C_6  and  C_7 
REMARK       I    between atoms: C_7  and  N_8 
REMARK    5  A    between atoms: N_8  and  N_9 
REMARK    6  A    between atoms: N_9  and  C_10 
REMARK    7  A    between atoms: C_10  and  C_11 
REMARK       I    between atoms: C_11  and  N_12 
REMARK    8  A    between atoms: N_12  and  C_13 
ROOT
HETATM    1  C   UNL     1      43.724 -15.764   6.952  1.00  0.00     0.245 C 
HETATM    2  N   UNL     1      44.090 -14.427   7.091  1.00  0.00    -0.290 N 
HETATM    3  O   UNL     1      43.606 -16.553   7.891  1.00  0.00    -0.271 OA
HETATM    4  H   UNL     1      44.391 -13.919   6.260  1.00  0.00     0.183 HD
ENDROOT
BRANCH   2   5
HETATM    5  N   UNL     1      44.355 -13.895   8.377  1.00  0.00    -0.229 NA
HETATM    6  H   UNL     1      43.501 -13.457   8.737  1.00  0.00     0.147 HD
BRANCH   5   7
HETATM    7  C   UNL     1      45.425 -12.879   8.315  1.00  0.00     0.213 C 
BRANCH   7   8
HETATM    8  C   UNL     1      45.012 -11.640   9.114  1.00  0.00     0.236 C 
HETATM    9  N   UNL     1      43.783 -11.789   9.736  1.00  0.00    -0.326 N 
HETATM   10  H   UNL     1      43.310 -12.669   9.536  1.00  0.00     0.169 HD
HETATM   11  O   UNL     1      45.751 -10.660   9.180  1.00  0.00    -0.272 OA
BRANCH   9  12
HETATM   12  C   UNL     1      43.116 -10.860  10.560  1.00  0.00     0.036 A 
HETATM   13  C   UNL     1      43.533 -10.525  11.853  1.00  0.00     0.056 A 
HETATM   14  C   UNL     1      42.816  -9.588  12.604  1.00  0.00     0.074 A 
HETATM   15 CL   UNL     1      43.349  -9.187  14.193  1.00  0.00    -0.081 Cl
HETATM   16  C   UNL     1      41.683  -8.985  12.068  1.00  0.00     0.138 A 
HETATM   17  F   UNL     1      40.984  -8.082  12.773  1.00  0.00    -0.204 F 
HETATM   18  C   UNL     1      41.255  -9.308  10.786  1.00  0.00     0.046 A 
HETATM   19  C   UNL     1      41.970 -10.244  10.033  1.00  0.00     0.032 A 
ENDBRANCH   9  12
ENDBRANCH   7   8
ENDBRANCH   5   7
ENDBRANCH   2   5
BRANCH   1  20
HETATM   20  C   UNL     1      43.551 -16.205   5.493  1.00  0.00     0.196 C 
BRANCH  20  21
HETATM   21  N   UNL     1      42.730 -17.429   5.452  1.00  0.00    -0.282 NA
HETATM   22  H   UNL     1      41.775 -17.170   5.196  1.00  0.00     0.128 HD
BRANCH  21  23
HETATM   23  C   UNL     1      43.228 -18.337   4.476  1.00  0.00     0.042 A 
HETATM   24  C   UNL     1      42.666 -18.431   3.184  1.00  0.00     0.089 A 
HETATM   25  C   UNL     1      43.150 -19.395   2.290  1.00  0.00     0.038 A 
HETATM   26  C   UNL     1      44.175 -20.265   2.670  1.00  0.00     0.003 A 
HETATM   27  C   UNL     1      44.719 -20.187   3.947  1.00  0.00     0.002 A 
HETATM   28  C   UNL     1      44.245 -19.233   4.846  1.00  0.00     0.026 A 
BRANCH  24  29
HETATM   29  O   UNL     1      41.647 -17.556   2.885  1.00  0.00    -0.354 OA
HETATM   30  C   UNL     1      41.346 -17.398   1.502  1.00  0.00     0.210 C 
ENDBRANCH  24  29
ENDBRANCH  21  23
ENDBRANCH  20  21
ENDBRANCH   1  20
TORSDOF 8
ENDMDL
MODEL 3
REMARK VINA RESULT:      -8.4      6.151      9.590
REMARK  8 active torsions:
REMARK  status: ('A' for Active; 'I' for Inactive)
REMARK    1  A    between atoms: O_2  and  C_3 
REMARK    2  A    between atoms: C_4  and  N_5 
REMARK    3  A    between atoms: N_5  and  C_6 
REMARK    4  A    between atoms: C_6  and  C_7 
REMARK       I    between atoms: C_7  and  N_8 
REMARK    5  A    between atoms: N_8  and  N_9 
REMARK    6  A    between atoms: N_9  and  C_10 
REMARK    7  A    between atoms: C_10  and  C_11 
REMARK       I    between atoms: C_11  and  N_12 
REMARK    8  A    between atoms: N_12  and  C_13 
ROOT
HETATM    1  C   UNL     1      39.831 -14.169   3.544  1.00  0.00     0.245 C 
HETATM    2  N   UNL     1      39.966 -15.430   2.969  1.00  0.00    -0.290 N 
HETATM    3  O   UNL     1      39.358 -13.188   2.967  1.00  0.00    -0.271 OA
HETATM    4  H   UNL     1      40.574 -16.108   3.427  1.00  0.00     0.183 HD
ENDROOT
BRANCH   2   5
HETATM    5  N   UNL     1      39.547 -15.648   1.634  1.00  0.00    -0.229 NA
HETATM    6  H   UNL     1      38.898 -16.442   1.615  1.00  0.00     0.147 HD
BRANCH   5   7
HETATM    7  C   UNL     1      40.701 -15.952   0.764  1.00  0.00     0.213 C 
BRANCH   7   8
HETATM    8  C   UNL     1      41.862 -16.482   1.609  1.00  0.00     0.236 C 
HETATM    9  N   UNL     1      41.865 -17.864   1.710  1.00  0.00    -0.326 N 
HETATM   10  H   UNL     1      41.077 -18.325   1.256  1.00  0.00     0.169 HD
HETATM   11  O   UNL     1      42.688 -15.712   2.095  1.00  0.00    -0.272 OA
BRANCH   9  12
HETATM   12  C   UNL     1      42.794 -18.677   2.390  1.00  0.00     0.036 A 
HETATM   13  C   UNL     1      43.265 -19.900   1.900  1.00  0.00     0.056 A 
HETATM   14  C   UNL     1      44.192 -20.644   2.637  1.00  0.00     0.074 A 
HETATM   15 CL   UNL     1      44.762 -22.146   2.014  1.00  0.00    -0.081 Cl
HETATM   16  C   UNL     1      44.650 -20.171   3.862  1.00  0.00     0.138 A 
HETATM   17  F   UNL     1      45.541 -20.870   4.581  1.00  0.00    -0.204 F 
HETATM   18  C   UNL     1      44.191 -18.959   4.363  1.00  0.00     0.046 A 
HETATM   19  C   UNL     1      43.264 -18.213   3.628  1.00  0.00     0.032 A 
ENDBRANCH   9  12
ENDBRANCH   7   8
ENDBRANCH   5   7
ENDBRANCH   2   5
BRANCH   1  20
HETATM   20  C   UNL     1      40.404 -14.076   4.964  1.00  0.00     0.196 C 
BRANCH  20  21
HETATM   21  N   UNL     1      41.865 -14.274   4.910  1.00  0.00    -0.282 NA
HETATM   22  H   UNL     1      42.320 -13.390   5.149  1.00  0.00     0.128 HD
BRANCH  21  23
HETATM   23  C   UNL     1      42.274 -15.260   5.852  1.00  0.00     0.042 A 
HETATM   24  C   UNL     1      43.578 -15.284   6.392  1.00  0.00     0.089 A 
HETATM   25  C   UNL     1      43.946 -16.322   7.258  1.00  0.00     0.038 A 
HETATM   26  C   UNL     1      43.038 -17.333   7.582  1.00  0.00     0.003 A 
HETATM   27  C   UNL     1      41.758 -17.322   7.038  1.00  0.00     0.002 A 
HETATM   28  C   UNL     1      41.381 -16.295   6.174  1.00  0.00     0.026 A 
BRANCH  24  29
HETATM   29  O   UNL     1      44.426 -14.269   6.013  1.00  0.00    -0.354 OA
HETATM   30  C   UNL     1      45.228 -13.708   7.048  1.00  0.00     0.210 C 
ENDBRANCH  24  29
ENDBRANCH  21  23
ENDBRANCH  20  21
ENDBRANCH   1  20
TORSDOF 8
ENDMDL
MODEL 4
REMARK VINA RESULT:      -8.3      1.349      1.737
REMARK  8 active torsions:
REMARK  status: ('A' for Active; 'I' for Inactive)
REMARK    1  A    between atoms: O_2  and  C_3 
REMARK    2  A    between atoms: C_4  and  N_5 
REMARK    3  A    between atoms: N_5  and  C_6 
REMARK    4  A    between atoms: C_6  and  C_7 
REMARK       I    between atoms: C_7  and  N_8 
REMARK    5  A    between atoms: N_8  and  N_9 
REMARK    6  A    between atoms: N_9  and  C_10 
REMARK    7  A    between atoms: C_10  and  C_11 
REMARK       I    between atoms: C_11  and  N_12 
REMARK    8  A    between atoms: N_12  and  C_13 
ROOT
HETATM    1  C   UNL     1      43.427 -14.281   6.018  1.00  0.00     0.245 C 
HETATM    2  N   UNL     1      44.355 -14.658   6.987  1.00  0.00    -0.290 N 
HETATM    3  O   UNL     1      42.653 -13.330   6.131  1.00  0.00    -0.271 OA
HETATM    4  H   UNL     1      44.781 -15.581   6.916  1.00  0.00     0.183 HD
ENDROOT
BRANCH   2   5
HETATM    5  N   UNL     1      44.448 -13.931   8.199  1.00  0.00    -0.229 NA
HETATM    6  H   UNL     1      43.566 -13.432   8.355  1.00  0.00     0.147 HD
BRANCH   5   7
HETATM    7  C   UNL     1      45.550 -12.948   8.138  1.00  0.00     0.213 C 
BRANCH   7   8
HETATM    8  C   UNL     1      45.178 -11.701   8.943  1.00  0.00     0.236 C 
HETATM    9  N   UNL     1      43.915 -11.783   9.506  1.00  0.00    -0.326 N 
HETATM   10  H   UNL     1      43.397 -12.628   9.268  1.00  0.00     0.169 HD
HETATM   11  O   UNL     1      45.973 -10.770   9.062  1.00  0.00    -0.272 OA
BRANCH   9  12
HETATM   12  C   UNL     1      43.270 -10.829  10.319  1.00  0.00     0.036 A 
HETATM   13  C   UNL     1      43.634 -10.558  11.642  1.00  0.00     0.056 A 
HETATM   14  C   UNL     1      42.943  -9.590  12.379  1.00  0.00     0.074 A 
HETATM   15 CL   UNL     1      43.411  -9.269  14.006  1.00  0.00    -0.081 Cl
HETATM   16  C   UNL     1      41.890  -8.892  11.798  1.00  0.00     0.138 A 
HETATM   17  F   UNL     1      41.218  -7.959  12.489  1.00  0.00    -0.204 F 
HETATM   18  C   UNL     1      41.515  -9.150  10.486  1.00  0.00     0.046 A 
HETATM   19  C   UNL     1      42.203 -10.118   9.747  1.00  0.00     0.032 A 
ENDBRANCH   9  12
ENDBRANCH   7   8
ENDBRANCH   5   7
ENDBRANCH   2   5
BRANCH   1  20
HETATM   20  C   UNL     1      43.395 -15.216   4.802  1.00  0.00     0.196 C 
BRANCH  20  21
HETATM   21  N   UNL     1      42.540 -16.378   5.108  1.00  0.00    -0.282 NA
HETATM   22  H   UNL     1      41.662 -16.279   4.595  1.00  0.00     0.128 HD
BRANCH  21  23
HETATM   23  C   UNL     1      43.169 -17.587   4.696  1.00  0.00     0.042 A 
HETATM   24  C   UNL     1      44.119 -18.250   5.502  1.00  0.00     0.089 A 
HETATM   25  C   UNL     1      44.758 -19.396   5.012  1.00  0.00     0.038 A 
HETATM   26  C   UNL     1      44.469 -19.879   3.733  1.00  0.00     0.003 A 
HETATM   27  C   UNL     1      43.547 -19.219   2.930  1.00  0.00     0.002 A 
HETATM   28  C   UNL     1      42.905 -18.077   3.406  1.00  0.00     0.026 A 
BRANCH  24  29
HETATM   29  O   UNL     1      44.369 -17.707   6.741  1.00  0.00    -0.354 OA
HETATM   30  C   UNL     1      44.096 -18.548   7.857  1.00  0.00     0.210 C 
ENDBRANCH  24  29
ENDBRANCH  21  23
ENDBRANCH  20  21
ENDBRANCH   1  20
TORSDOF 8
ENDMDL
MODEL 5
REMARK VINA RESULT:      -8.3      4.811     10.585
REMARK  8 active torsions:
REMARK  status: ('A' for Active; 'I' for Inactive)
REMARK    1  A    between atoms: O_2  and  C_3 
REMARK    2  A    between atoms: C_4  and  N_5 
REMARK    3  A    between atoms: N_5  and  C_6 
REMARK    4  A    between atoms: C_6  and  C_7 
REMARK       I    between atoms: C_7  and  N_8 
REMARK    5  A    between atoms: N_8  and  N_9 
REMARK    6  A    between atoms: N_9  and  C_10 
REMARK    7  A    between atoms: C_10  and  C_11 
REMARK       I    between atoms: C_11  and  N_12 
REMARK    8  A    between atoms: N_12  and  C_13 
ROOT
HETATM    1  C   UNL     1      44.553 -12.188  10.050  1.00  0.00     0.245 C 
HETATM    2  N   UNL     1      44.407 -12.579   8.721  1.00  0.00    -0.290 N 
HETATM    3  O   UNL     1      44.589 -12.967  11.004  1.00  0.00    -0.271 OA
HETATM    4  H   UNL     1      44.152 -11.871   8.033  1.00  0.00     0.183 HD
ENDROOT
BRANCH   2   5
HETATM    5  N   UNL     1      44.287 -13.953   8.397  1.00  0.00    -0.229 NA
HETATM    6  H   UNL     1      45.099 -14.454   8.772  1.00  0.00     0.147 HD
BRANCH   5   7
HETATM    7  C   UNL     1      44.241 -14.144   6.933  1.00  0.00     0.213 C 
BRANCH   7   8
HETATM    8  C   UNL     1      43.681 -15.531   6.608  1.00  0.00     0.236 C 
HETATM    9  N   UNL     1      44.636 -16.531   6.707  1.00  0.00    -0.326 N 
HETATM   10  H   UNL     1      45.574 -16.202   6.930  1.00  0.00     0.169 HD
HETATM   11  O   UNL     1      42.495 -15.679   6.324  1.00  0.00    -0.272 OA
BRANCH   9  12
HETATM   12  C   UNL     1      44.461 -17.914   6.498  1.00  0.00     0.036 A 
HETATM   13  C   UNL     1      44.745 -18.561   5.291  1.00  0.00     0.056 A 
HETATM   14  C   UNL     1      44.547 -19.941   5.167  1.00  0.00     0.074 A 
HETATM   15 CL   UNL     1      44.908 -20.719   3.672  1.00  0.00    -0.081 Cl
HETATM   16  C   UNL     1      44.065 -20.675   6.245  1.00  0.00     0.138 A 
HETATM   17  F   UNL     1      43.871 -21.999   6.145  1.00  0.00    -0.204 F 
HETATM   18  C   UNL     1      43.776 -20.047   7.450  1.00  0.00     0.046 A 
HETATM   19  C   UNL     1      43.973 -18.668   7.576  1.00  0.00     0.032 A 
ENDBRANCH   9  12
ENDBRANCH   7   8
ENDBRANCH   5   7
ENDBRANCH   2   5
BRANCH   1  20
HETATM   20  C   UNL     1      44.588 -10.666  10.242  1.00  0.00     0.196 C 
BRANCH  20  21
HETATM   21  N   UNL     1      43.207 -10.158  10.339  1.00  0.00    -0.282 NA
HETATM   22  H   UNL     1      42.606 -10.741   9.752  1.00  0.00     0.128 HD
BRANCH  21  23
HETATM   23  C   UNL     1      42.736 -10.234  11.680  1.00  0.00     0.042 A 
HETATM   24  C   UNL     1      41.463 -10.755  11.998  1.00  0.00     0.089 A 
HETATM   25  C   UNL     1      41.024 -10.735  13.328  1.00  0.00     0.038 A 
HETATM   26  C   UNL     1      41.830 -10.198  14.335  1.00  0.00     0.003 A 
HETATM   27  C   UNL     1      43.076  -9.668  14.023  1.00  0.00     0.002 A 
HETATM   28  C   UNL     1      43.524  -9.681  12.703  1.00  0.00     0.026 A 
BRANCH  24  29
HETATM   29  O   UNL     1      40.715 -11.249  10.954  1.00  0.00    -0.354 OA
HETATM   30  C   UNL     1      39.567 -10.486  10.595  1.00  0.00     0.210 C 
ENDBRANCH  24  29
ENDBRANCH  21  23
ENDBRANCH  20  21
ENDBRANCH   1  20
TORSDOF 8
ENDMDL
MODEL 6
REMARK VINA RESULT:      -8.2      5.040     10.807
REMARK  8 active torsions:
REMARK  status: ('A' for Active; 'I' for Inactive)
REMARK    1  A    between atoms: O_2  and  C_3 
REMARK    2  A    between atoms: C_4  and  N_5 
REMARK    3  A    between atoms: N_5  and  C_6 
REMARK    4  A    between atoms: C_6  and  C_7 
REMARK       I    between atoms: C_7  and  N_8 
REMARK    5  A    between atoms: N_8  and  N_9 
REMARK    6  A    between atoms: N_9  and  C_10 
REMARK    7  A    between atoms: C_10  and  C_11 
REMARK       I    between atoms: C_11  and  N_12 
REMARK    8  A    between atoms: N_12  and  C_13 
ROOT
HETATM    1  C   UNL     1      44.837 -13.618   7.450  1.00  0.00     0.245 C 
HETATM    2  N   UNL     1      43.705 -14.422   7.332  1.00  0.00    -0.290 N 
HETATM    3  O   UNL     1      45.834 -13.712   6.733  1.00  0.00    -0.271 OA
HETATM    4  H   UNL     1      43.039 -14.436   8.103  1.00  0.00     0.183 HD
ENDROOT
BRANCH   2   5
HETATM    5  N   UNL     1      43.653 -15.428   6.337  1.00  0.00    -0.229 NA
HETATM    6  H   UNL     1      44.036 -15.052   5.464  1.00  0.00     0.147 HD
BRANCH   5   7
HETATM    7  C   UNL     1      42.260 -15.861   6.101  1.00  0.00     0.213 C 
BRANCH   7   8
HETATM    8  C   UNL     1      42.251 -17.209   5.376  1.00  0.00     0.236 C 
HETATM    9  N   UNL     1      43.522 -17.637   5.023  1.00  0.00    -0.326 N 
HETATM   10  H   UNL     1      44.268 -16.980   5.248  1.00  0.00     0.169 HD
HETATM   11  O   UNL     1      41.197 -17.812   5.183  1.00  0.00    -0.272 OA
BRANCH   9  12
HETATM   12  C   UNL     1      43.877 -18.832   4.367  1.00  0.00     0.036 A 
HETATM   13  C   UNL     1      44.381 -19.961   5.023  1.00  0.00     0.056 A 
HETATM   14  C   UNL     1      44.706 -21.112   4.296  1.00  0.00     0.074 A 
HETATM   15 CL   UNL     1      45.321 -22.492   5.124  1.00  0.00    -0.081 Cl
HETATM   16  C   UNL     1      44.530 -21.138   2.917  1.00  0.00     0.138 A 
HETATM   17  F   UNL     1      44.834 -22.233   2.205  1.00  0.00    -0.204 F 
HETATM   18  C   UNL     1      44.032 -20.025   2.251  1.00  0.00     0.046 A 
HETATM   19  C   UNL     1      43.707 -18.873   2.975  1.00  0.00     0.032 A 
ENDBRANCH   9  12
ENDBRANCH   7   8
ENDBRANCH   5   7
ENDBRANCH   2   5
BRANCH   1  20
HETATM   20  C   UNL     1      44.771 -12.633   8.625  1.00  0.00     0.196 C 
BRANCH  20  21
HETATM   21  N   UNL     1      43.503 -11.882   8.556  1.00  0.00    -0.282 NA
HETATM   22  H   UNL     1      42.739 -12.548   8.422  1.00  0.00     0.128 HD
BRANCH  21  23
HETATM   23  C   UNL     1      43.273 -11.172   9.768  1.00  0.00     0.042 A 
HETATM   24  C   UNL     1      42.054 -10.509  10.027  1.00  0.00     0.089 A 
HETATM   25  C   UNL     1      41.912  -9.764  11.206  1.00  0.00     0.038 A 
HETATM   26  C   UNL     1      42.966  -9.667  12.117  1.00  0.00     0.003 A 
HETATM   27  C   UNL     1      44.174 -10.305  11.856  1.00  0.00     0.002 A 
HETATM   28  C   UNL     1      44.328 -11.048  10.687  1.00  0.00     0.026 A 
BRANCH  24  29
HETATM   29  O   UNL     1      41.066 -10.630   9.077  1.00  0.00    -0.354 OA
HETATM   30  C   UNL     1      39.747 -10.836   9.573  1.00  0.00     0.210 C 
ENDBRANCH  24  29
ENDBRANCH  21  23
ENDBRANCH  20  21
ENDBRANCH   1  20
TORSDOF 8
ENDMDL
MODEL 7
REMARK VINA RESULT:      -8.2      1.717      2.614
REMARK  8 active torsions:
REMARK  status: ('A' for Active; 'I' for Inactive)
REMARK    1  A    between atoms: O_2  and  C_3 
REMARK    2  A    between atoms: C_4  and  N_5 
REMARK    3  A    between atoms: N_5  and  C_6 
REMARK    4  A    between atoms: C_6  and  C_7 
REMARK       I    between atoms: C_7  and  N_8 
REMARK    5  A    between atoms: N_8  and  N_9 
REMARK    6  A    between atoms: N_9  and  C_10 
REMARK    7  A    between atoms: C_10  and  C_11 
REMARK       I    between atoms: C_11  and  N_12 
REMARK    8  A    between atoms: N_12  and  C_13 
ROOT
HETATM    1  C   UNL     1      43.971 -16.375   7.367  1.00  0.00     0.245 C 
HETATM    2  N   UNL     1      44.213 -15.072   6.937  1.00  0.00    -0.290 N 
HETATM    3  O   UNL     1      43.579 -16.672   8.497  1.00  0.00    -0.271 OA
HETATM    4  H   UNL     1      44.753 -14.937   6.083  1.00  0.00     0.183 HD
ENDROOT
BRANCH   2   5
HETATM    5  N   UNL     1      44.011 -13.985   7.823  1.00  0.00    -0.229 NA
HETATM    6  H   UNL     1      43.267 -13.388   7.449  1.00  0.00     0.147 HD
BRANCH   5   7
HETATM    7  C   UNL     1      45.244 -13.185   7.961  1.00  0.00     0.213 C 
BRANCH   7   8
HETATM    8  C   UNL     1      44.988 -11.991   8.884  1.00  0.00     0.236 C 
HETATM    9  N   UNL     1      43.835 -12.136   9.641  1.00  0.00    -0.326 N 
HETATM   10  H   UNL     1      43.301 -12.981   9.443  1.00  0.00     0.169 HD
HETATM   11  O   UNL     1      45.774 -11.047   8.924  1.00  0.00    -0.272 OA
BRANCH   9  12
HETATM   12  C   UNL     1      43.315 -11.243  10.599  1.00  0.00     0.036 A 
HETATM   13  C   UNL     1      42.660 -10.050  10.278  1.00  0.00     0.056 A 
HETATM   14  C   UNL     1      42.168  -9.220  11.291  1.00  0.00     0.074 A 
HETATM   15 CL   UNL     1      41.361  -7.757  10.873  1.00  0.00    -0.081 Cl
HETATM   16  C   UNL     1      42.330  -9.579  12.625  1.00  0.00     0.138 A 
HETATM   17  F   UNL     1      41.864  -8.797  13.610  1.00  0.00    -0.204 F 
HETATM   18  C   UNL     1      42.980 -10.760  12.961  1.00  0.00     0.046 A 
HETATM   19  C   UNL     1      43.473 -11.591  11.950  1.00  0.00     0.032 A 
ENDBRANCH   9  12
ENDBRANCH   7   8
ENDBRANCH   5   7
ENDBRANCH   2   5
BRANCH   1  20
HETATM   20  C   UNL     1      44.314 -17.442   6.319  1.00  0.00     0.196 C 
BRANCH  20  21
HETATM   21  N   UNL     1      43.122 -17.710   5.493  1.00  0.00    -0.282 NA
HETATM   22  H   UNL     1      42.428 -16.983   5.680  1.00  0.00     0.128 HD
BRANCH  21  23
HETATM   23  C   UNL     1      43.450 -17.673   4.109  1.00  0.00     0.042 A 
HETATM   24  C   UNL     1      43.445 -16.471   3.369  1.00  0.00     0.089 A 
HETATM   25  C   UNL     1      43.705 -16.507   1.993  1.00  0.00     0.038 A 
HETATM   26  C   UNL     1      43.959 -17.721   1.350  1.00  0.00     0.003 A 
HETATM   27  C   UNL     1      43.948 -18.909   2.072  1.00  0.00     0.002 A 
HETATM   28  C   UNL     1      43.690 -18.886   3.441  1.00  0.00     0.026 A 
BRANCH  24  29
HETATM   29  O   UNL     1      43.166 -15.316   4.063  1.00  0.00    -0.354 OA
HETATM   30  C   UNL     1      43.271 -14.104   3.323  1.00  0.00     0.210 C 
ENDBRANCH  24  29
ENDBRANCH  21  23
ENDBRANCH  20  21
ENDBRANCH   1  20
TORSDOF 8
ENDMDL
MODEL 8
REMARK VINA RESULT:      -8.0      5.654      9.525
REMARK  8 active torsions:
REMARK  status: ('A' for Active; 'I' for Inactive)
REMARK    1  A    between atoms: O_2  and  C_3 
REMARK    2  A    between atoms: C_4  and  N_5 
REMARK    3  A    between atoms: N_5  and  C_6 
REMARK    4  A    between atoms: C_6  and  C_7 
REMARK       I    between atoms: C_7  and  N_8 
REMARK    5  A    between atoms: N_8  and  N_9 
REMARK    6  A    between atoms: N_9  and  C_10 
REMARK    7  A    between atoms: C_10  and  C_11 
REMARK       I    between atoms: C_11  and  N_12 
REMARK    8  A    between atoms: N_12  and  C_13 
ROOT
HETATM    1  C   UNL     1      41.896 -13.315   1.862  1.00  0.00     0.245 C 
HETATM    2  N   UNL     1      41.623 -14.630   1.491  1.00  0.00    -0.290 N 
HETATM    3  O   UNL     1      42.490 -12.501   1.153  1.00  0.00    -0.271 OA
HETATM    4  H   UNL     1      41.346 -15.290   2.217  1.00  0.00     0.183 HD
ENDROOT
BRANCH   2   5
HETATM    5  N   UNL     1      42.039 -15.109   0.225  1.00  0.00    -0.229 NA
HETATM    6  H   UNL     1      41.418 -14.725  -0.495  1.00  0.00     0.147 HD
BRANCH   5   7
HETATM    7  C   UNL     1      41.976 -16.583   0.175  1.00  0.00     0.213 C 
BRANCH   7   8
HETATM    8  C   UNL     1      43.022 -17.180   1.119  1.00  0.00     0.236 C 
HETATM    9  N   UNL     1      42.594 -18.352   1.722  1.00  0.00    -0.326 N 
HETATM   10  H   UNL     1      41.638 -18.622   1.495  1.00  0.00     0.169 HD
HETATM   11  O   UNL     1      44.119 -16.643   1.262  1.00  0.00    -0.272 OA
BRANCH   9  12
HETATM   12  C   UNL     1      43.307 -19.167   2.625  1.00  0.00     0.036 A 
HETATM   13  C   UNL     1      43.550 -18.825   3.959  1.00  0.00     0.056 A 
HETATM   14  C   UNL     1      44.263 -19.694   4.791  1.00  0.00     0.074 A 
HETATM   15 CL   UNL     1      44.549 -19.254   6.432  1.00  0.00    -0.081 Cl
HETATM   16  C   UNL     1      44.734 -20.905   4.294  1.00  0.00     0.138 A 
HETATM   17  F   UNL     1      45.418 -21.752   5.079  1.00  0.00    -0.204 F 
HETATM   18  C   UNL     1      44.502 -21.259   2.971  1.00  0.00     0.046 A 
HETATM   19  C   UNL     1      43.790 -20.391   2.137  1.00  0.00     0.032 A 
ENDBRANCH   9  12
ENDBRANCH   7   8
ENDBRANCH   5   7
ENDBRANCH   2   5
BRANCH   1  20
HETATM   20  C   UNL     1      41.453 -12.975   3.292  1.00  0.00     0.196 C 
BRANCH  20  21
HETATM   21  N   UNL     1      42.597 -13.148   4.206  1.00  0.00    -0.282 NA
HETATM   22  H   UNL     1      42.684 -12.306   4.779  1.00  0.00     0.128 HD
BRANCH  21  23
HETATM   23  C   UNL     1      42.388 -14.261   5.069  1.00  0.00     0.042 A 
HETATM   24  C   UNL     1      43.398 -14.742   5.930  1.00  0.00     0.089 A 
HETATM   25  C   UNL     1      43.158 -15.886   6.702  1.00  0.00     0.038 A 
HETATM   26  C   UNL     1      41.935 -16.555   6.620  1.00  0.00     0.003 A 
HETATM   27  C   UNL     1      40.944 -16.094   5.760  1.00  0.00     0.002 A 
HETATM   28  C   UNL     1      41.171 -14.958   4.986  1.00  0.00     0.026 A 
BRANCH  24  29
HETATM   29  O   UNL     1      44.585 -14.046   5.944  1.00  0.00    -0.354 OA
HETATM   30  C   UNL     1      45.117 -13.748   7.231  1.00  0.00     0.210 C 
ENDBRANCH  24  29
ENDBRANCH  21  23
ENDBRANCH  20  21
ENDBRANCH   1  20
TORSDOF 8
ENDMDL
MODEL 9
REMARK VINA RESULT:      -8.0      4.976     10.008
REMARK  8 active torsions:
REMARK  status: ('A' for Active; 'I' for Inactive)
REMARK    1  A    between atoms: O_2  and  C_3 
REMARK    2  A    between atoms: C_4  and  N_5 
REMARK    3  A    between atoms: N_5  and  C_6 
REMARK    4  A    between atoms: C_6  and  C_7 
REMARK       I    between atoms: C_7  and  N_8 
REMARK    5  A    between atoms: N_8  and  N_9 
REMARK    6  A    between atoms: N_9  and  C_10 
REMARK    7  A    between atoms: C_10  and  C_11 
REMARK       I    between atoms: C_11  and  N_12 
REMARK    8  A    between atoms: N_12  and  C_13 
ROOT
HETATM    1  C   UNL     1      40.267 -11.799   7.238  1.00  0.00     0.245 C 
HETATM    2  N   UNL     1      40.691 -12.997   6.669  1.00  0.00    -0.290 N 
HETATM    3  O   UNL     1      39.089 -11.516   7.464  1.00  0.00    -0.271 OA
HETATM    4  H   UNL     1      41.642 -13.050   6.303  1.00  0.00     0.183 HD
ENDROOT
BRANCH   2   5
HETATM    5  N   UNL     1      39.742 -13.986   6.309  1.00  0.00    -0.229 NA
HETATM    6  H   UNL     1      39.942 -14.843   6.834  1.00  0.00     0.147 HD
BRANCH   5   7
HETATM    7  C   UNL     1      39.814 -14.280   4.863  1.00  0.00     0.213 C 
BRANCH   7   8
HETATM    8  C   UNL     1      41.105 -15.041   4.552  1.00  0.00     0.236 C 
HETATM    9  N   UNL     1      40.872 -16.335   4.115  1.00  0.00    -0.326 N 
HETATM   10  H   UNL     1      39.892 -16.612   4.110  1.00  0.00     0.169 HD
HETATM   11  O   UNL     1      42.200 -14.495   4.670  1.00  0.00    -0.272 OA
BRANCH   9  12
HETATM   12  C   UNL     1      41.826 -17.298   3.726  1.00  0.00     0.036 A 
HETATM   13  C   UNL     1      42.666 -17.968   4.621  1.00  0.00     0.056 A 
HETATM   14  C   UNL     1      43.584 -18.914   4.152  1.00  0.00     0.074 A 
HETATM   15 CL   UNL     1      44.607 -19.731   5.272  1.00  0.00    -0.081 Cl
HETATM   16  C   UNL     1      43.664 -19.193   2.792  1.00  0.00     0.138 A 
HETATM   17  F   UNL     1      44.537 -20.099   2.325  1.00  0.00    -0.204 F 
HETATM   18  C   UNL     1      42.838 -18.535   1.890  1.00  0.00     0.046 A 
HETATM   19  C   UNL     1      41.920 -17.588   2.356  1.00  0.00     0.032 A 
ENDBRANCH   9  12
ENDBRANCH   7   8
ENDBRANCH   5   7
ENDBRANCH   2   5
BRANCH   1  20
HETATM   20  C   UNL     1      41.405 -10.803   7.495  1.00  0.00     0.196 C 
BRANCH  20  21
HETATM   21  N   UNL     1      42.622 -11.546   7.870  1.00  0.00    -0.282 NA
HETATM   22  H   UNL     1      43.341 -11.369   7.166  1.00  0.00     0.128 HD
BRANCH  21  23
HETATM   23  C   UNL     1      43.111 -11.106   9.133  1.00  0.00     0.042 A 
HETATM   24  C   UNL     1      44.195 -11.740   9.778  1.00  0.00     0.089 A 
HETATM   25  C   UNL     1      44.585 -11.309  11.053  1.00  0.00     0.038 A 
HETATM   26  C   UNL     1      43.905 -10.268  11.690  1.00  0.00     0.003 A 
HETATM   27  C   UNL     1      42.826  -9.653  11.065  1.00  0.00     0.002 A 
HETATM   28  C   UNL     1      42.428 -10.074   9.797  1.00  0.00     0.026 A 
BRANCH  24  29
HETATM   29  O   UNL     1      44.805 -12.771   9.102  1.00  0.00    -0.354 OA
HETATM   30  C   UNL     1      46.031 -12.451   8.451  1.00  0.00     0.210 C 
ENDBRANCH  24  29
ENDBRANCH  21  23
ENDBRANCH  20  21
ENDBRANCH   1  20
TORSDOF 8
ENDMDL
MODEL 10
REMARK VINA RESULT:      -7.9      6.638      8.227
REMARK  8 active torsions:
REMARK  status: ('A' for Active; 'I' for Inactive)
REMARK    1  A    between atoms: O_2  and  C_3 
REMARK    2  A    between atoms: C_4  and  N_5 
REMARK    3  A    between atoms: N_5  and  C_6 
REMARK    4  A    between atoms: C_6  and  C_7 
REMARK       I    between atoms: C_7  and  N_8 
REMARK    5  A    between atoms: N_8  and  N_9 
REMARK    6  A    between atoms: N_9  and  C_10 
REMARK    7  A    between atoms: C_10  and  C_11 
REMARK       I    between atoms: C_11  and  N_12 
REMARK    8  A    between atoms: N_12  and  C_13 
ROOT
HETATM    1  C   UNL     1      42.476 -16.901   6.335  1.00  0.00     0.245 C 
HETATM    2  N   UNL     1      41.460 -16.386   5.534  1.00  0.00    -0.290 N 
HETATM    3  O   UNL     1      42.420 -16.981   7.563  1.00  0.00    -0.271 OA
HETATM    4  H   UNL     1      41.681 -16.142   4.569  1.00  0.00     0.183 HD
ENDROOT
BRANCH   2   5
HETATM    5  N   UNL     1      40.264 -15.910   6.126  1.00  0.00    -0.229 NA
HETATM    6  H   UNL     1      39.530 -16.614   6.002  1.00  0.00     0.147 HD
BRANCH   5   7
HETATM    7  C   UNL     1      39.831 -14.648   5.492  1.00  0.00     0.213 C 
BRANCH   7   8
HETATM    8  C   UNL     1      40.513 -14.491   4.130  1.00  0.00     0.236 C 
HETATM    9  N   UNL     1      39.832 -15.138   3.112  1.00  0.00    -0.326 N 
HETATM   10  H   UNL     1      39.012 -15.663   3.416  1.00  0.00     0.169 HD
HETATM   11  O   UNL     1      41.538 -13.823   4.015  1.00  0.00    -0.272 OA
BRANCH   9  12
HETATM   12  C   UNL     1      40.166 -15.182   1.743  1.00  0.00     0.036 A 
HETATM   13  C   UNL     1      39.652 -14.300   0.787  1.00  0.00     0.056 A 
HETATM   14  C   UNL     1      40.039 -14.408  -0.553  1.00  0.00     0.074 A 
HETATM   15 CL   UNL     1      39.397 -13.309  -1.714  1.00  0.00    -0.081 Cl
HETATM   16  C   UNL     1      40.938 -15.396  -0.940  1.00  0.00     0.138 A 
HETATM   17  F   UNL     1      41.322 -15.514  -2.220  1.00  0.00    -0.204 F 
HETATM   18  C   UNL     1      41.456 -16.281  -0.003  1.00  0.00     0.046 A 
HETATM   19  C   UNL     1      41.070 -16.175   1.337  1.00  0.00     0.032 A 
ENDBRANCH   9  12
ENDBRANCH   7   8
ENDBRANCH   5   7
ENDBRANCH   2   5
BRANCH   1  20
HETATM   20  C   UNL     1      43.734 -17.299   5.552  1.00  0.00     0.196 C 
BRANCH  20  21
HETATM   21  N   UNL     1      43.916 -18.760   5.639  1.00  0.00    -0.282 NA
HETATM   22  H   UNL     1      43.165 -19.146   6.214  1.00  0.00     0.128 HD
BRANCH  21  23
HETATM   23  C   UNL     1      43.845 -19.354   4.347  1.00  0.00     0.042 A 
HETATM   24  C   UNL     1      44.552 -20.533   4.025  1.00  0.00     0.089 A 
HETATM   25  C   UNL     1      44.501 -21.030   2.716  1.00  0.00     0.038 A 
HETATM   26  C   UNL     1      43.767 -20.365   1.731  1.00  0.00     0.003 A 
HETATM   27  C   UNL     1      43.084 -19.194   2.041  1.00  0.00     0.002 A 
HETATM   28  C   UNL     1      43.127 -18.689   3.339  1.00  0.00     0.026 A 
BRANCH  24  29
HETATM   29  O   UNL     1      45.271 -21.123   5.039  1.00  0.00    -0.354 OA
HETATM   30  C   UNL     1      45.143 -22.537   5.151  1.00  0.00     0.210 C 
ENDBRANCH  24  29
ENDBRANCH  21  23
ENDBRANCH  20  21
ENDBRANCH   1  20
TORSDOF 8
ENDMDL
