MODEL 1
REMARK VINA RESULT:      -8.8      0.000      0.000
REMARK  6 active torsions:
REMARK  status: ('A' for Active; 'I' for Inactive)
REMARK    1  A    between atoms: N_4  and  C_5 
REMARK    2  A    between atoms: C_13  and  C_14 
REMARK       I    between atoms: C_14  and  N_15 
REMARK    3  A    between atoms: N_15  and  C_16 
REMARK    4  A    between atoms: C_16  and  C_17 
REMARK    5  A    between atoms: C_17  and  O_18 
REMARK    6  A    between atoms: C_17  and  C_19 
ROOT
HETATM    1  C   UNL     1      44.669 -13.142   8.094  1.00  0.00     0.257 C 
HETATM    2  N   UNL     1      43.968 -14.268   7.740  1.00  0.00    -0.354 N 
HETATM    3  O   UNL     1      45.792 -12.913   7.653  1.00  0.00    -0.267 OA
HETATM    4  H   UNL     1      42.986 -14.336   7.984  1.00  0.00     0.162 HD
ENDROOT
BRANCH   1   5
HETATM    5  C   UNL     1      43.993 -12.217   8.993  1.00  0.00     0.098 C 
HETATM    6  C   UNL     1      42.941 -11.324   8.649  1.00  0.00     0.070 C 
HETATM    7  C   UNL     1      42.291 -11.142   7.324  1.00  0.00     0.073 C 
HETATM    8  N   UNL     1      42.548 -10.575   9.682  1.00  0.00    -0.170 NA
HETATM    9  N   UNL     1      43.263 -11.028  10.752  1.00  0.00    -0.221 N 
HETATM   10  C   UNL     1      44.214 -11.943  10.328  1.00  0.00     0.145 C 
HETATM   11 CL   UNL     1      45.501 -12.460  11.334  1.00  0.00    -0.061 Cl
BRANCH   9  12
HETATM   12  C   UNL     1      42.916 -10.544  12.052  1.00  0.00     0.060 A 
HETATM   13  C   UNL     1      43.696  -9.612  12.746  1.00  0.00     0.031 A 
HETATM   14  C   UNL     1      43.320  -9.185  14.024  1.00  0.00     0.002 A 
HETATM   15  C   UNL     1      42.172  -9.691  14.627  1.00  0.00     0.000 A 
HETATM   16  C   UNL     1      41.399 -10.637  13.959  1.00  0.00     0.002 A 
HETATM   17  C   UNL     1      41.772 -11.066  12.683  1.00  0.00     0.031 A 
ENDBRANCH   9  12
ENDBRANCH   1   5
BRANCH   2  18
HETATM   18  C   UNL     1      44.439 -15.164   6.697  1.00  0.00     0.159 C 
BRANCH  18  19
HETATM   19  C   UNL     1      43.307 -15.989   6.059  1.00  0.00     0.169 C 
BRANCH  19  20
HETATM   20  O   UNL     1      42.095 -15.770   6.788  1.00  0.00    -0.389 OA
HETATM   21  H   UNL     1      42.202 -16.214   7.649  1.00  0.00     0.210 HD
ENDBRANCH  19  20
BRANCH  19  22
HETATM   22  C   UNL     1      43.626 -17.470   5.966  1.00  0.00    -0.025 A 
HETATM   23  C   UNL     1      43.467 -18.333   7.062  1.00  0.00     0.053 A 
HETATM   24  C   UNL     1      43.779 -19.687   6.944  1.00  0.00     0.138 A 
HETATM   25  F   UNL     1      43.600 -20.481   8.010  1.00  0.00    -0.204 F 
HETATM   26  C   UNL     1      44.259 -20.204   5.744  1.00  0.00     0.072 A 
HETATM   27 CL   UNL     1      44.640 -21.875   5.594  1.00  0.00    -0.081 Cl
HETATM   28  C   UNL     1      44.434 -19.358   4.650  1.00  0.00     0.028 A 
HETATM   29  C   UNL     1      44.119 -17.999   4.761  1.00  0.00     0.012 A 
ENDBRANCH  19  22
ENDBRANCH  18  19
ENDBRANCH   2  18
TORSDOF 6
ENDMDL
MODEL 2
REMARK VINA RESULT:      -8.8      3.400      5.081
REMARK  6 active torsions:
REMARK  status: ('A' for Active; 'I' for Inactive)
REMARK    1  A    between atoms: N_4  and  C_5 
REMARK    2  A    between atoms: C_13  and  C_14 
REMARK       I    between atoms: C_14  and  N_15 
REMARK    3  A    between atoms: N_15  and  C_16 
REMARK    4  A    between atoms: C_16  and  C_17 
REMARK    5  A    between atoms: C_17  and  O_18 
REMARK    6  A    between atoms: C_17  and  C_19 
ROOT
HETATM    1  C   UNL     1      42.518 -15.887   4.795  1.00  0.00     0.257 C 
HETATM    2  N   UNL     1      43.179 -15.851   3.593  1.00  0.00    -0.354 N 
HETATM    3  O   UNL     1      41.406 -16.397   4.908  1.00  0.00    -0.267 OA
HETATM    4  H   UNL     1      44.157 -15.583   3.574  1.00  0.00     0.162 HD
ENDROOT
BRANCH   1   5
HETATM    5  C   UNL     1      43.224 -15.323   5.938  1.00  0.00     0.098 C 
HETATM    6  C   UNL     1      43.947 -16.047   6.924  1.00  0.00     0.070 C 
HETATM    7  C   UNL     1      44.158 -17.517   7.010  1.00  0.00     0.073 C 
HETATM    8  N   UNL     1      44.457 -15.254   7.869  1.00  0.00    -0.170 NA
HETATM    9  N   UNL     1      44.167 -13.982   7.471  1.00  0.00    -0.221 N 
HETATM   10  C   UNL     1      43.331 -14.015   6.366  1.00  0.00     0.145 C 
HETATM   11 CL   UNL     1      42.497 -12.627   5.806  1.00  0.00    -0.061 Cl
BRANCH   9  12
HETATM   12  C   UNL     1      44.759 -12.897   8.190  1.00  0.00     0.060 A 
HETATM   13  C   UNL     1      46.091 -12.506   8.008  1.00  0.00     0.031 A 
HETATM   14  C   UNL     1      46.626 -11.448   8.751  1.00  0.00     0.002 A 
HETATM   15  C   UNL     1      45.845 -10.779   9.689  1.00  0.00     0.000 A 
HETATM   16  C   UNL     1      44.526 -11.172   9.898  1.00  0.00     0.002 A 
HETATM   17  C   UNL     1      43.988 -12.229   9.159  1.00  0.00     0.031 A 
ENDBRANCH   9  12
ENDBRANCH   1   5
BRANCH   2  18
HETATM   18  C   UNL     1      42.680 -16.558   2.425  1.00  0.00     0.159 C 
BRANCH  18  19
HETATM   19  C   UNL     1      43.775 -17.352   1.690  1.00  0.00     0.169 C 
BRANCH  19  20
HETATM   20  O   UNL     1      43.452 -17.421   0.297  1.00  0.00    -0.389 OA
HETATM   21  H   UNL     1      42.780 -18.118   0.199  1.00  0.00     0.210 HD
ENDBRANCH  19  20
BRANCH  19  22
HETATM   22  C   UNL     1      43.999 -18.737   2.266  1.00  0.00    -0.025 A 
HETATM   23  C   UNL     1      43.764 -19.900   1.513  1.00  0.00     0.053 A 
HETATM   24  C   UNL     1      43.970 -21.158   2.077  1.00  0.00     0.138 A 
HETATM   25  F   UNL     1      43.748 -22.244   1.321  1.00  0.00    -0.204 F 
HETATM   26  C   UNL     1      44.402 -21.285   3.394  1.00  0.00     0.072 A 
HETATM   27 CL   UNL     1      44.662 -22.835   4.091  1.00  0.00    -0.081 Cl
HETATM   28  C   UNL     1      44.628 -20.141   4.159  1.00  0.00     0.028 A 
HETATM   29  C   UNL     1      44.427 -18.875   3.597  1.00  0.00     0.012 A 
ENDBRANCH  19  22
ENDBRANCH  18  19
ENDBRANCH   2  18
TORSDOF 6
ENDMDL
MODEL 3
REMARK VINA RESULT:      -8.7      3.854      9.525
REMARK  6 active torsions:
REMARK  status: ('A' for Active; 'I' for Inactive)
REMARK    1  A    between atoms: N_4  and  C_5 
REMARK    2  A    between atoms: C_13  and  C_14 
REMARK       I    between atoms: C_14  and  N_15 
REMARK    3  A    between atoms: N_15  and  C_16 
REMARK    4  A    between atoms: C_16  and  C_17 
REMARK    5  A    between atoms: C_17  and  O_18 
REMARK    6  A    between atoms: C_17  and  C_19 
ROOT
HETATM    1  C   UNL     1      44.708 -13.982   7.154  1.00  0.00     0.257 C 
HETATM    2  N   UNL     1      44.111 -13.559   8.316  1.00  0.00    -0.354 N 
HETATM    3  O   UNL     1      45.826 -13.599   6.823  1.00  0.00    -0.267 OA
HETATM    4  H   UNL     1      43.272 -14.027   8.639  1.00  0.00     0.162 HD
ENDROOT
BRANCH   1   5
HETATM    5  C   UNL     1      43.957 -14.941   6.354  1.00  0.00     0.098 C 
HETATM    6  C   UNL     1      43.460 -16.199   6.792  1.00  0.00     0.070 C 
HETATM    7  C   UNL     1      43.578 -16.811   8.142  1.00  0.00     0.073 C 
HETATM    8  N   UNL     1      42.840 -16.870   5.818  1.00  0.00    -0.170 NA
HETATM    9  N   UNL     1      42.826 -16.026   4.747  1.00  0.00    -0.221 N 
HETATM   10  C   UNL     1      43.591 -14.903   5.024  1.00  0.00     0.145 C 
HETATM   11 CL   UNL     1      44.073 -13.800   3.805  1.00  0.00    -0.061 Cl
BRANCH   9  12
HETATM   12  C   UNL     1      42.051 -16.396   3.604  1.00  0.00     0.060 A 
HETATM   13  C   UNL     1      40.835 -15.781   3.283  1.00  0.00     0.031 A 
HETATM   14  C   UNL     1      40.107 -16.195   2.162  1.00  0.00     0.002 A 
HETATM   15  C   UNL     1      40.575 -17.232   1.360  1.00  0.00     0.000 A 
HETATM   16  C   UNL     1      41.770 -17.869   1.681  1.00  0.00     0.002 A 
HETATM   17  C   UNL     1      42.499 -17.460   2.800  1.00  0.00     0.031 A 
ENDBRANCH   9  12
ENDBRANCH   1   5
BRANCH   2  18
HETATM   18  C   UNL     1      44.832 -12.770   9.300  1.00  0.00     0.159 C 
BRANCH  18  19
HETATM   19  C   UNL     1      44.530 -11.264   9.199  1.00  0.00     0.169 C 
BRANCH  19  20
HETATM   20  O   UNL     1      45.764 -10.538   9.147  1.00  0.00    -0.389 OA
HETATM   21  H   UNL     1      45.696  -9.824   9.806  1.00  0.00     0.210 HD
ENDBRANCH  19  20
BRANCH  19  22
HETATM   22  C   UNL     1      43.646 -10.754  10.321  1.00  0.00    -0.025 A 
HETATM   23  C   UNL     1      44.176 -10.352  11.558  1.00  0.00     0.053 A 
HETATM   24  C   UNL     1      43.334  -9.898  12.572  1.00  0.00     0.138 A 
HETATM   25  F   UNL     1      43.880  -9.511  13.734  1.00  0.00    -0.204 F 
HETATM   26  C   UNL     1      41.956  -9.843  12.380  1.00  0.00     0.072 A 
HETATM   27 CL   UNL     1      40.914  -9.279  13.627  1.00  0.00    -0.081 Cl
HETATM   28  C   UNL     1      41.413 -10.249  11.162  1.00  0.00     0.028 A 
HETATM   29  C   UNL     1      42.254 -10.703  10.139  1.00  0.00     0.012 A 
ENDBRANCH  19  22
ENDBRANCH  18  19
ENDBRANCH   2  18
TORSDOF 6
ENDMDL
MODEL 4
REMARK VINA RESULT:      -8.5      7.202     10.618
REMARK  6 active torsions:
REMARK  status: ('A' for Active; 'I' for Inactive)
REMARK    1  A    between atoms: N_4  and  C_5 
REMARK    2  A    between atoms: C_13  and  C_14 
REMARK       I    between atoms: C_14  and  N_15 
REMARK    3  A    between atoms: N_15  and  C_16 
REMARK    4  A    between atoms: C_16  and  C_17 
REMARK    5  A    between atoms: C_17  and  O_18 
REMARK    6  A    between atoms: C_17  and  C_19 
ROOT
HETATM    1  C   UNL     1      41.272 -15.128   3.028  1.00  0.00     0.257 C 
HETATM    2  N   UNL     1      42.139 -14.063   3.020  1.00  0.00    -0.354 N 
HETATM    3  O   UNL     1      40.093 -15.005   2.706  1.00  0.00    -0.267 OA
HETATM    4  H   UNL     1      43.133 -14.235   3.121  1.00  0.00     0.162 HD
ENDROOT
BRANCH   1   5
HETATM    5  C   UNL     1      41.836 -16.418   3.401  1.00  0.00     0.098 C 
HETATM    6  C   UNL     1      41.689 -17.072   4.654  1.00  0.00     0.070 C 
HETATM    7  C   UNL     1      40.930 -16.608   5.847  1.00  0.00     0.073 C 
HETATM    8  N   UNL     1      42.354 -18.229   4.708  1.00  0.00    -0.170 NA
HETATM    9  N   UNL     1      42.869 -18.410   3.458  1.00  0.00    -0.221 N 
HETATM   10  C   UNL     1      42.655 -17.274   2.693  1.00  0.00     0.145 C 
HETATM   11 CL   UNL     1      43.452 -17.012   1.199  1.00  0.00    -0.061 Cl
BRANCH   9  12
HETATM   12  C   UNL     1      43.474 -19.669   3.152  1.00  0.00     0.060 A 
HETATM   13  C   UNL     1      43.210 -20.367   1.968  1.00  0.00     0.031 A 
HETATM   14  C   UNL     1      43.815 -21.606   1.726  1.00  0.00     0.002 A 
HETATM   15  C   UNL     1      44.678 -22.164   2.666  1.00  0.00     0.000 A 
HETATM   16  C   UNL     1      44.930 -21.493   3.858  1.00  0.00     0.002 A 
HETATM   17  C   UNL     1      44.327 -20.257   4.104  1.00  0.00     0.031 A 
ENDBRANCH   9  12
ENDBRANCH   1   5
BRANCH   2  18
HETATM   18  C   UNL     1      41.757 -12.772   2.473  1.00  0.00     0.159 C 
BRANCH  18  19
HETATM   19  C   UNL     1      42.225 -12.574   1.020  1.00  0.00     0.169 C 
BRANCH  19  20
HETATM   20  O   UNL     1      42.462 -11.181   0.787  1.00  0.00    -0.389 OA
HETATM   21  H   UNL     1      42.666 -11.087  -0.161  1.00  0.00     0.210 HD
ENDBRANCH  19  20
BRANCH  19  22
HETATM   22  C   UNL     1      41.256 -13.139  -0.002  1.00  0.00    -0.025 A 
HETATM   23  C   UNL     1      41.508 -14.345  -0.676  1.00  0.00     0.053 A 
HETATM   24  C   UNL     1      40.601 -14.829  -1.617  1.00  0.00     0.138 A 
HETATM   25  F   UNL     1      40.872 -15.992  -2.229  1.00  0.00    -0.204 F 
HETATM   26  C   UNL     1      39.437 -14.125  -1.911  1.00  0.00     0.072 A 
HETATM   27 CL   UNL     1      38.313 -14.722  -3.068  1.00  0.00    -0.081 Cl
HETATM   28  C   UNL     1      39.178 -12.920  -1.260  1.00  0.00     0.028 A 
HETATM   29  C   UNL     1      40.083 -12.429  -0.312  1.00  0.00     0.012 A 
ENDBRANCH  19  22
ENDBRANCH  18  19
ENDBRANCH   2  18
TORSDOF 6
ENDMDL
MODEL 5
REMARK VINA RESULT:      -8.4      6.599     10.263
REMARK  6 active torsions:
REMARK  status: ('A' for Active; 'I' for Inactive)
REMARK    1  A    between atoms: N_4  and  C_5 
REMARK    2  A    between atoms: C_13  and  C_14 
REMARK       I    between atoms: C_14  and  N_15 
REMARK    3  A    between atoms: N_15  and  C_16 
REMARK    4  A    between atoms: C_16  and  C_17 
REMARK    5  A    between atoms: C_17  and  O_18 
REMARK    6  A    between atoms: C_17  and  C_19 
ROOT
HETATM    1  C   UNL     1      43.039 -14.635   3.417  1.00  0.00     0.257 C 
HETATM    2  N   UNL     1      41.723 -14.247   3.428  1.00  0.00    -0.354 N 
HETATM    3  O   UNL     1      43.947 -13.842   3.184  1.00  0.00    -0.267 OA
HETATM    4  H   UNL     1      41.023 -14.884   3.792  1.00  0.00     0.162 HD
ENDROOT
BRANCH   1   5
HETATM    5  C   UNL     1      43.304 -16.032   3.736  1.00  0.00     0.098 C 
HETATM    6  C   UNL     1      43.203 -16.638   5.017  1.00  0.00     0.070 C 
HETATM    7  C   UNL     1      42.799 -16.005   6.301  1.00  0.00     0.073 C 
HETATM    8  N   UNL     1      43.543 -17.930   5.000  1.00  0.00    -0.170 NA
HETATM    9  N   UNL     1      43.778 -18.226   3.689  1.00  0.00    -0.221 N 
HETATM   10  C   UNL     1      43.742 -17.065   2.932  1.00  0.00     0.145 C 
HETATM   11 CL   UNL     1      44.320 -17.005   1.320  1.00  0.00    -0.061 Cl
BRANCH   9  12
HETATM   12  C   UNL     1      43.976 -19.596   3.330  1.00  0.00     0.060 A 
HETATM   13  C   UNL     1      43.520 -20.135   2.121  1.00  0.00     0.031 A 
HETATM   14  C   UNL     1      43.724 -21.487   1.828  1.00  0.00     0.002 A 
HETATM   15  C   UNL     1      44.371 -22.317   2.739  1.00  0.00     0.000 A 
HETATM   16  C   UNL     1      44.808 -21.801   3.956  1.00  0.00     0.002 A 
HETATM   17  C   UNL     1      44.605 -20.451   4.254  1.00  0.00     0.031 A 
ENDBRANCH   9  12
ENDBRANCH   1   5
BRANCH   2  18
HETATM   18  C   UNL     1      41.338 -12.849   3.331  1.00  0.00     0.159 C 
BRANCH  18  19
HETATM   19  C   UNL     1      40.240 -12.601   2.281  1.00  0.00     0.169 C 
BRANCH  19  20
HETATM   20  O   UNL     1      39.035 -13.253   2.696  1.00  0.00    -0.389 OA
HETATM   21  H   UNL     1      39.274 -13.837   3.438  1.00  0.00     0.210 HD
ENDBRANCH  19  20
BRANCH  19  22
HETATM   22  C   UNL     1      40.640 -13.034   0.883  1.00  0.00    -0.025 A 
HETATM   23  C   UNL     1      41.722 -12.450   0.206  1.00  0.00     0.053 A 
HETATM   24  C   UNL     1      42.056 -12.866  -1.082  1.00  0.00     0.138 A 
HETATM   25  F   UNL     1      43.106 -12.293  -1.689  1.00  0.00    -0.204 F 
HETATM   26  C   UNL     1      41.318 -13.858  -1.722  1.00  0.00     0.072 A 
HETATM   27 CL   UNL     1      41.730 -14.378  -3.309  1.00  0.00    -0.081 Cl
HETATM   28  C   UNL     1      40.233 -14.440  -1.069  1.00  0.00     0.028 A 
HETATM   29  C   UNL     1      39.895 -14.029   0.226  1.00  0.00     0.012 A 
ENDBRANCH  19  22
ENDBRANCH  18  19
ENDBRANCH   2  18
TORSDOF 6
ENDMDL
MODEL 6
REMARK VINA RESULT:      -8.3      3.390      9.622
REMARK  6 active torsions:
REMARK  status: ('A' for Active; 'I' for Inactive)
REMARK    1  A    between atoms: N_4  and  C_5 
REMARK    2  A    between atoms: C_13  and  C_14 
REMARK       I    between atoms: C_14  and  N_15 
REMARK    3  A    between atoms: N_15  and  C_16 
REMARK    4  A    between atoms: C_16  and  C_17 
REMARK    5  A    between atoms: C_17  and  O_18 
REMARK    6  A    between atoms: C_17  and  C_19 
ROOT
HETATM    1  C   UNL     1      43.380 -14.398   5.264  1.00  0.00     0.257 C 
HETATM    2  N   UNL     1      42.885 -13.950   6.463  1.00  0.00    -0.354 N 
HETATM    3  O   UNL     1      43.958 -13.649   4.481  1.00  0.00    -0.267 OA
HETATM    4  H   UNL     1      42.573 -14.626   7.152  1.00  0.00     0.162 HD
ENDROOT
BRANCH   1   5
HETATM    5  C   UNL     1      43.216 -15.819   4.987  1.00  0.00     0.098 C 
HETATM    6  C   UNL     1      42.242 -16.405   4.134  1.00  0.00     0.070 C 
HETATM    7  C   UNL     1      41.195 -15.718   3.331  1.00  0.00     0.073 C 
HETATM    8  N   UNL     1      42.319 -17.738   4.110  1.00  0.00    -0.170 NA
HETATM    9  N   UNL     1      43.410 -18.052   4.867  1.00  0.00    -0.221 N 
HETATM   10  C   UNL     1      43.894 -16.912   5.489  1.00  0.00     0.145 C 
HETATM   11 CL   UNL     1      45.032 -16.979   6.767  1.00  0.00    -0.061 Cl
BRANCH   9  12
HETATM   12  C   UNL     1      43.864 -19.408   4.868  1.00  0.00     0.060 A 
HETATM   13  C   UNL     1      43.914 -20.188   6.030  1.00  0.00     0.031 A 
HETATM   14  C   UNL     1      44.385 -21.505   5.979  1.00  0.00     0.002 A 
HETATM   15  C   UNL     1      44.822 -22.051   4.775  1.00  0.00     0.000 A 
HETATM   16  C   UNL     1      44.801 -21.279   3.617  1.00  0.00     0.002 A 
HETATM   17  C   UNL     1      44.333 -19.964   3.664  1.00  0.00     0.031 A 
ENDBRANCH   9  12
ENDBRANCH   1   5
BRANCH   2  18
HETATM   18  C   UNL     1      43.162 -12.609   6.950  1.00  0.00     0.159 C 
BRANCH  18  19
HETATM   19  C   UNL     1      44.243 -12.581   8.046  1.00  0.00     0.169 C 
BRANCH  19  20
HETATM   20  O   UNL     1      44.472 -13.914   8.518  1.00  0.00    -0.389 OA
HETATM   21  H   UNL     1      45.270 -13.881   9.075  1.00  0.00     0.210 HD
ENDBRANCH  19  20
BRANCH  19  22
HETATM   22  C   UNL     1      43.906 -11.648   9.195  1.00  0.00    -0.025 A 
HETATM   23  C   UNL     1      42.802 -10.783   9.148  1.00  0.00     0.053 A 
HETATM   24  C   UNL     1      42.527  -9.932  10.217  1.00  0.00     0.138 A 
HETATM   25  F   UNL     1      41.454  -9.130  10.140  1.00  0.00    -0.204 F 
HETATM   26  C   UNL     1      43.345  -9.918  11.343  1.00  0.00     0.072 A 
HETATM   27 CL   UNL     1      43.007  -8.873  12.667  1.00  0.00    -0.081 Cl
HETATM   28  C   UNL     1      44.453 -10.762  11.401  1.00  0.00     0.028 A 
HETATM   29  C   UNL     1      44.732 -11.622  10.332  1.00  0.00     0.012 A 
ENDBRANCH  19  22
ENDBRANCH  18  19
ENDBRANCH   2  18
TORSDOF 6
ENDMDL
MODEL 7
REMARK VINA RESULT:      -8.3      6.803     10.778
REMARK  6 active torsions:
REMARK  status: ('A' for Active; 'I' for Inactive)
REMARK    1  A    between atoms: N_4  and  C_5 
REMARK    2  A    between atoms: C_13  and  C_14 
REMARK       I    between atoms: C_14  and  N_15 
REMARK    3  A    between atoms: N_15  and  C_16 
REMARK    4  A    between atoms: C_16  and  C_17 
REMARK    5  A    between atoms: C_17  and  O_18 
REMARK    6  A    between atoms: C_17  and  C_19 
ROOT
HETATM    1  C   UNL     1      42.832 -14.948   2.897  1.00  0.00     0.257 C 
HETATM    2  N   UNL     1      41.537 -14.852   2.450  1.00  0.00    -0.354 N 
HETATM    3  O   UNL     1      43.590 -13.982   2.896  1.00  0.00    -0.267 OA
HETATM    4  H   UNL     1      40.895 -15.617   2.627  1.00  0.00     0.162 HD
ENDROOT
BRANCH   1   5
HETATM    5  C   UNL     1      43.243 -16.248   3.410  1.00  0.00     0.098 C 
HETATM    6  C   UNL     1      43.383 -16.610   4.777  1.00  0.00     0.070 C 
HETATM    7  C   UNL     1      43.132 -15.768   5.978  1.00  0.00     0.073 C 
HETATM    8  N   UNL     1      43.811 -17.865   4.933  1.00  0.00    -0.170 NA
HETATM    9  N   UNL     1      43.866 -18.388   3.674  1.00  0.00    -0.221 N 
HETATM   10  C   UNL     1      43.631 -17.391   2.740  1.00  0.00     0.145 C 
HETATM   11 CL   UNL     1      43.952 -17.605   1.071  1.00  0.00    -0.061 Cl
BRANCH   9  12
HETATM   12  C   UNL     1      44.108 -19.791   3.535  1.00  0.00     0.060 A 
HETATM   13  C   UNL     1      44.632 -20.575   4.570  1.00  0.00     0.031 A 
HETATM   14  C   UNL     1      44.867 -21.940   4.374  1.00  0.00     0.002 A 
HETATM   15  C   UNL     1      44.595 -22.533   3.144  1.00  0.00     0.000 A 
HETATM   16  C   UNL     1      44.096 -21.761   2.099  1.00  0.00     0.002 A 
HETATM   17  C   UNL     1      43.862 -20.398   2.290  1.00  0.00     0.031 A 
ENDBRANCH   9  12
ENDBRANCH   1   5
BRANCH   2  18
HETATM   18  C   UNL     1      40.941 -13.572   2.107  1.00  0.00     0.159 C 
BRANCH  18  19
HETATM   19  C   UNL     1      40.041 -13.644   0.860  1.00  0.00     0.169 C 
BRANCH  19  20
HETATM   20  O   UNL     1      39.634 -15.001   0.650  1.00  0.00    -0.389 OA
HETATM   21  H   UNL     1      40.303 -15.564   1.081  1.00  0.00     0.210 HD
ENDBRANCH  19  20
BRANCH  19  22
HETATM   22  C   UNL     1      40.697 -13.075  -0.384  1.00  0.00    -0.025 A 
HETATM   23  C   UNL     1      41.897 -12.348  -0.324  1.00  0.00     0.053 A 
HETATM   24  C   UNL     1      42.467 -11.831  -1.486  1.00  0.00     0.138 A 
HETATM   25  F   UNL     1      43.621 -11.154  -1.388  1.00  0.00    -0.204 F 
HETATM   26  C   UNL     1      41.855 -12.017  -2.722  1.00  0.00     0.072 A 
HETATM   27 CL   UNL     1      42.558 -11.384  -4.158  1.00  0.00    -0.081 Cl
HETATM   28  C   UNL     1      40.657 -12.726  -2.798  1.00  0.00     0.028 A 
HETATM   29  C   UNL     1      40.081 -13.251  -1.635  1.00  0.00     0.012 A 
ENDBRANCH  19  22
ENDBRANCH  18  19
ENDBRANCH   2  18
TORSDOF 6
ENDMDL
MODEL 8
REMARK VINA RESULT:      -8.2      7.520     10.953
REMARK  6 active torsions:
REMARK  status: ('A' for Active; 'I' for Inactive)
REMARK    1  A    between atoms: N_4  and  C_5 
REMARK    2  A    between atoms: C_13  and  C_14 
REMARK       I    between atoms: C_14  and  N_15 
REMARK    3  A    between atoms: N_15  and  C_16 
REMARK    4  A    between atoms: C_16  and  C_17 
REMARK    5  A    between atoms: C_17  and  O_18 
REMARK    6  A    between atoms: C_17  and  C_19 
ROOT
HETATM    1  C   UNL     1      41.141 -15.158   1.596  1.00  0.00     0.257 C 
HETATM    2  N   UNL     1      42.001 -14.249   1.031  1.00  0.00    -0.354 N 
HETATM    3  O   UNL     1      39.951 -15.198   1.295  1.00  0.00    -0.267 OA
HETATM    4  H   UNL     1      42.999 -14.359   1.172  1.00  0.00     0.162 HD
ENDROOT
BRANCH   1   5
HETATM    5  C   UNL     1      41.726 -16.098   2.542  1.00  0.00     0.098 C 
HETATM    6  C   UNL     1      41.500 -16.133   3.945  1.00  0.00     0.070 C 
HETATM    7  C   UNL     1      40.623 -15.246   4.755  1.00  0.00     0.073 C 
HETATM    8  N   UNL     1      42.206 -17.090   4.553  1.00  0.00    -0.170 NA
HETATM    9  N   UNL     1      42.834 -17.771   3.551  1.00  0.00    -0.221 N 
HETATM   10  C   UNL     1      42.638 -17.116   2.345  1.00  0.00     0.145 C 
HETATM   11 CL   UNL     1      43.548 -17.488   0.942  1.00  0.00    -0.061 Cl
BRANCH   9  12
HETATM   12  C   UNL     1      43.515 -18.984   3.880  1.00  0.00     0.060 A 
HETATM   13  C   UNL     1      43.892 -19.308   5.189  1.00  0.00     0.031 A 
HETATM   14  C   UNL     1      44.574 -20.501   5.454  1.00  0.00     0.002 A 
HETATM   15  C   UNL     1      44.899 -21.373   4.418  1.00  0.00     0.000 A 
HETATM   16  C   UNL     1      44.553 -21.051   3.109  1.00  0.00     0.002 A 
HETATM   17  C   UNL     1      43.872 -19.861   2.840  1.00  0.00     0.031 A 
ENDBRANCH   9  12
ENDBRANCH   1   5
BRANCH   2  18
HETATM   18  C   UNL     1      41.592 -13.396  -0.072  1.00  0.00     0.159 C 
BRANCH  18  19
HETATM   19  C   UNL     1      41.751 -14.074  -1.445  1.00  0.00     0.169 C 
BRANCH  19  20
HETATM   20  O   UNL     1      42.668 -13.316  -2.242  1.00  0.00    -0.389 OA
HETATM   21  H   UNL     1      43.238 -13.959  -2.702  1.00  0.00     0.210 HD
ENDBRANCH  19  20
BRANCH  19  22
HETATM   22  C   UNL     1      40.434 -14.271  -2.171  1.00  0.00    -0.025 A 
HETATM   23  C   UNL     1      40.295 -15.197  -3.219  1.00  0.00     0.053 A 
HETATM   24  C   UNL     1      39.073 -15.345  -3.871  1.00  0.00     0.138 A 
HETATM   25  F   UNL     1      38.977 -16.250  -4.857  1.00  0.00    -0.204 F 
HETATM   26  C   UNL     1      37.973 -14.575  -3.504  1.00  0.00     0.072 A 
HETATM   27 CL   UNL     1      36.461 -14.758  -4.303  1.00  0.00    -0.081 Cl
HETATM   28  C   UNL     1      38.097 -13.643  -2.474  1.00  0.00     0.028 A 
HETATM   29  C   UNL     1      39.321 -13.492  -1.813  1.00  0.00     0.012 A 
ENDBRANCH  19  22
ENDBRANCH  18  19
ENDBRANCH   2  18
TORSDOF 6
ENDMDL
MODEL 9
REMARK VINA RESULT:      -8.1      3.498      9.516
REMARK  6 active torsions:
REMARK  status: ('A' for Active; 'I' for Inactive)
REMARK    1  A    between atoms: N_4  and  C_5 
REMARK    2  A    between atoms: C_13  and  C_14 
REMARK       I    between atoms: C_14  and  N_15 
REMARK    3  A    between atoms: N_15  and  C_16 
REMARK    4  A    between atoms: C_16  and  C_17 
REMARK    5  A    between atoms: C_17  and  O_18 
REMARK    6  A    between atoms: C_17  and  C_19 
ROOT
HETATM    1  C   UNL     1      42.896 -13.343   6.424  1.00  0.00     0.257 C 
HETATM    2  N   UNL     1      43.830 -13.132   7.407  1.00  0.00    -0.354 N 
HETATM    3  O   UNL     1      41.963 -12.566   6.239  1.00  0.00    -0.267 OA
HETATM    4  H   UNL     1      44.674 -13.695   7.416  1.00  0.00     0.162 HD
ENDROOT
BRANCH   1   5
HETATM    5  C   UNL     1      43.093 -14.519   5.587  1.00  0.00     0.098 C 
HETATM    6  C   UNL     1      43.100 -14.551   4.166  1.00  0.00     0.070 C 
HETATM    7  C   UNL     1      42.924 -13.415   3.223  1.00  0.00     0.073 C 
HETATM    8  N   UNL     1      43.270 -15.785   3.683  1.00  0.00    -0.170 NA
HETATM    9  N   UNL     1      43.481 -16.576   4.774  1.00  0.00    -0.221 N 
HETATM   10  C   UNL     1      43.269 -15.844   5.933  1.00  0.00     0.145 C 
HETATM   11 CL   UNL     1      43.112 -16.585   7.469  1.00  0.00    -0.061 Cl
BRANCH   9  12
HETATM   12  C   UNL     1      43.890 -17.929   4.560  1.00  0.00     0.060 A 
HETATM   13  C   UNL     1      43.885 -18.530   3.296  1.00  0.00     0.031 A 
HETATM   14  C   UNL     1      44.279 -19.864   3.145  1.00  0.00     0.002 A 
HETATM   15  C   UNL     1      44.667 -20.615   4.251  1.00  0.00     0.000 A 
HETATM   16  C   UNL     1      44.654 -20.037   5.517  1.00  0.00     0.002 A 
HETATM   17  C   UNL     1      44.261 -18.706   5.673  1.00  0.00     0.031 A 
ENDBRANCH   9  12
ENDBRANCH   1   5
BRANCH   2  18
HETATM   18  C   UNL     1      43.867 -11.898   8.173  1.00  0.00     0.159 C 
BRANCH  18  19
HETATM   19  C   UNL     1      44.287 -12.113   9.638  1.00  0.00     0.169 C 
BRANCH  19  20
HETATM   20  O   UNL     1      44.155 -13.500   9.967  1.00  0.00    -0.389 OA
HETATM   21  H   UNL     1      45.054 -13.877   9.959  1.00  0.00     0.210 HD
ENDBRANCH  19  20
BRANCH  19  22
HETATM   22  C   UNL     1      43.516 -11.247  10.616  1.00  0.00    -0.025 A 
HETATM   23  C   UNL     1      44.115 -10.714  11.769  1.00  0.00     0.053 A 
HETATM   24  C   UNL     1      43.373  -9.930  12.650  1.00  0.00     0.138 A 
HETATM   25  F   UNL     1      43.986  -9.428  13.733  1.00  0.00    -0.204 F 
HETATM   26  C   UNL     1      42.027  -9.669  12.410  1.00  0.00     0.072 A 
HETATM   27 CL   UNL     1      41.110  -8.697  13.494  1.00  0.00    -0.081 Cl
HETATM   28  C   UNL     1      41.414 -10.200  11.276  1.00  0.00     0.028 A 
HETATM   29  C   UNL     1      42.154 -10.985  10.385  1.00  0.00     0.012 A 
ENDBRANCH  19  22
ENDBRANCH  18  19
ENDBRANCH   2  18
TORSDOF 6
ENDMDL
MODEL 10
REMARK VINA RESULT:      -8.1      3.816      9.493
REMARK  6 active torsions:
REMARK  status: ('A' for Active; 'I' for Inactive)
REMARK    1  A    between atoms: N_4  and  C_5 
REMARK    2  A    between atoms: C_13  and  C_14 
REMARK       I    between atoms: C_14  and  N_15 
REMARK    3  A    between atoms: N_15  and  C_16 
REMARK    4  A    between atoms: C_16  and  C_17 
REMARK    5  A    between atoms: C_17  and  O_18 
REMARK    6  A    between atoms: C_17  and  C_19 
ROOT
HETATM    1  C   UNL     1      41.623 -11.988   5.525  1.00  0.00     0.257 C 
HETATM    2  N   UNL     1      41.554 -12.116   6.890  1.00  0.00    -0.354 N 
HETATM    3  O   UNL     1      41.709 -10.890   4.981  1.00  0.00    -0.267 OA
HETATM    4  H   UNL     1      41.659 -13.035   7.306  1.00  0.00     0.162 HD
ENDROOT
BRANCH   1   5
HETATM    5  C   UNL     1      41.628 -13.227   4.760  1.00  0.00     0.098 C 
HETATM    6  C   UNL     1      40.668 -13.623   3.790  1.00  0.00     0.070 C 
HETATM    7  C   UNL     1      39.467 -12.875   3.330  1.00  0.00     0.073 C 
HETATM    8  N   UNL     1      40.923 -14.832   3.282  1.00  0.00    -0.170 NA
HETATM    9  N   UNL     1      42.112 -15.213   3.831  1.00  0.00    -0.221 N 
HETATM   10  C   UNL     1      42.492 -14.303   4.805  1.00  0.00     0.145 C 
HETATM   11 CL   UNL     1      43.743 -14.632   5.929  1.00  0.00    -0.061 Cl
BRANCH   9  12
HETATM   12  C   UNL     1      42.744 -16.391   3.325  1.00  0.00     0.060 A 
HETATM   13  C   UNL     1      42.768 -17.600   4.030  1.00  0.00     0.031 A 
HETATM   14  C   UNL     1      43.418 -18.718   3.496  1.00  0.00     0.002 A 
HETATM   15  C   UNL     1      44.059 -18.639   2.262  1.00  0.00     0.000 A 
HETATM   16  C   UNL     1      44.064 -17.437   1.561  1.00  0.00     0.002 A 
HETATM   17  C   UNL     1      43.418 -16.318   2.091  1.00  0.00     0.031 A 
ENDBRANCH   9  12
ENDBRANCH   1   5
BRANCH   2  18
HETATM   18  C   UNL     1      41.746 -10.979   7.774  1.00  0.00     0.159 C 
BRANCH  18  19
HETATM   19  C   UNL     1      43.064 -11.051   8.567  1.00  0.00     0.169 C 
BRANCH  19  20
HETATM   20  O   UNL     1      43.698 -12.310   8.313  1.00  0.00    -0.389 OA
HETATM   21  H   UNL     1      43.335 -12.942   8.960  1.00  0.00     0.210 HD
ENDBRANCH  19  20
BRANCH  19  22
HETATM   22  C   UNL     1      42.881 -10.825  10.055  1.00  0.00    -0.025 A 
HETATM   23  C   UNL     1      41.637 -10.998  10.684  1.00  0.00     0.053 A 
HETATM   24  C   UNL     1      41.501 -10.772  12.053  1.00  0.00     0.138 A 
HETATM   25  F   UNL     1      40.300 -10.961  12.618  1.00  0.00    -0.204 F 
HETATM   26  C   UNL     1      42.591 -10.364  12.817  1.00  0.00     0.072 A 
HETATM   27 CL   UNL     1      42.428 -10.088  14.507  1.00  0.00    -0.081 Cl
HETATM   28  C   UNL     1      43.830 -10.176  12.207  1.00  0.00     0.028 A 
HETATM   29  C   UNL     1      43.973 -10.405  10.833  1.00  0.00     0.012 A 
ENDBRANCH  19  22
ENDBRANCH  18  19
ENDBRANCH   2  18
TORSDOF 6
ENDMDL
