MODEL 1
REMARK VINA RESULT:      -9.1      0.000      0.000
REMARK  5 active torsions:
REMARK  status: ('A' for Active; 'I' for Inactive)
REMARK    1  A    between atoms: C_7  and  C_8 
REMARK    2  A    between atoms: N_9  and  N_10 
REMARK       I    between atoms: N_10  and  C_11 
REMARK    3  A    between atoms: C_11  and  C_12 
REMARK    4  A    between atoms: C_12  and  N_13 
REMARK       I    between atoms: N_13  and  C_14 
REMARK    5  A    between atoms: C_14  and  C_15 
ROOT
HETATM    1  N   UNL     1      43.620 -14.113   6.890  1.00  0.00    -0.246 N 
HETATM    2  C   UNL     1      44.304 -13.227   7.709  1.00  0.00     0.255 C 
HETATM    3  O   UNL     1      45.403 -13.428   8.224  1.00  0.00    -0.270 OA
HETATM    4  H   UNL     1      42.713 -13.834   6.504  1.00  0.00     0.192 HD
ENDROOT
BRANCH   1   5
HETATM    5  N   UNL     1      44.146 -15.340   6.614  1.00  0.00    -0.184 NA
HETATM    6  C   UNL     1      43.312 -16.215   6.152  1.00  0.00     0.153 C 
BRANCH   6   7
HETATM    7  C   UNL     1      43.765 -17.561   5.845  1.00  0.00     0.018 A 
HETATM    8  C   UNL     1      44.140 -18.544   6.753  1.00  0.00     0.018 A 
HETATM    9  C   UNL     1      44.198 -18.534   8.240  1.00  0.00     0.069 C 
HETATM   10  N   UNL     1      44.488 -19.664   6.039  1.00  0.00    -0.358 N 
HETATM   11  H   UNL     1      44.798 -20.535   6.445  1.00  0.00     0.166 HD
HETATM   12  C   UNL     1      44.350 -19.442   4.690  1.00  0.00     0.043 A 
HETATM   13  C   UNL     1      43.901 -18.131   4.535  1.00  0.00     0.004 A 
HETATM   14  C   UNL     1      44.586 -20.301   3.610  1.00  0.00     0.030 A 
HETATM   15  C   UNL     1      43.675 -17.657   3.223  1.00  0.00     0.014 A 
HETATM   16  C   UNL     1      43.904 -18.503   2.131  1.00  0.00     0.001 A 
HETATM   17  C   UNL     1      44.353 -19.806   2.325  1.00  0.00     0.002 A 
ENDBRANCH   6   7
ENDBRANCH   1   5
BRANCH   2  18
HETATM   18  C   UNL     1      43.499 -11.963   8.017  1.00  0.00     0.227 C 
BRANCH  18  19
HETATM   19  N   UNL     1      43.423 -11.639   9.433  1.00  0.00    -0.348 N 
HETATM   20  C   UNL     1      42.667 -10.599   9.915  1.00  0.00     0.255 C 
HETATM   21  O   UNL     1      42.138  -9.785   9.161  1.00  0.00    -0.268 OA
HETATM   22  H   UNL     1      43.886 -12.269  10.080  1.00  0.00     0.163 HD
BRANCH  20  23
HETATM   23  C   UNL     1      42.529 -10.468  11.393  1.00  0.00     0.070 A 
HETATM   24  C   UNL     1      41.437 -10.974  12.101  1.00  0.00     0.132 A 
HETATM   25  F   UNL     1      40.445 -11.627  11.474  1.00  0.00    -0.205 F 
HETATM   26  C   UNL     1      41.338 -10.815  13.483  1.00  0.00     0.043 A 
HETATM   27  C   UNL     1      42.340 -10.140  14.177  1.00  0.00     0.003 A 
HETATM   28  C   UNL     1      43.437  -9.627  13.486  1.00  0.00     0.001 A 
HETATM   29  C   UNL     1      43.532  -9.788  12.101  1.00  0.00     0.020 A 
ENDBRANCH  20  23
ENDBRANCH  18  19
ENDBRANCH   2  18
TORSDOF 5
ENDMDL
MODEL 2
REMARK VINA RESULT:      -8.9      6.489      9.031
REMARK  5 active torsions:
REMARK  status: ('A' for Active; 'I' for Inactive)
REMARK    1  A    between atoms: C_7  and  C_8 
REMARK    2  A    between atoms: N_9  and  N_10 
REMARK       I    between atoms: N_10  and  C_11 
REMARK    3  A    between atoms: C_11  and  C_12 
REMARK    4  A    between atoms: C_12  and  N_13 
REMARK       I    between atoms: N_13  and  C_14 
REMARK    5  A    between atoms: C_14  and  C_15 
ROOT
HETATM    1  N   UNL     1      42.898 -15.159   2.513  1.00  0.00    -0.246 N 
HETATM    2  C   UNL     1      43.231 -13.885   2.950  1.00  0.00     0.255 C 
HETATM    3  O   UNL     1      44.188 -13.601   3.669  1.00  0.00    -0.270 OA
HETATM    4  H   UNL     1      42.084 -15.278   1.903  1.00  0.00     0.192 HD
ENDROOT
BRANCH   1   5
HETATM    5  N   UNL     1      43.640 -16.234   2.901  1.00  0.00    -0.184 NA
HETATM    6  C   UNL     1      43.001 -17.148   3.558  1.00  0.00     0.153 C 
BRANCH   6   7
HETATM    7  C   UNL     1      43.702 -18.327   4.036  1.00  0.00     0.018 A 
HETATM    8  C   UNL     1      44.366 -18.469   5.248  1.00  0.00     0.018 A 
HETATM    9  C   UNL     1      44.563 -17.518   6.376  1.00  0.00     0.069 C 
HETATM   10  N   UNL     1      44.878 -19.742   5.299  1.00  0.00    -0.358 N 
HETATM   11  H   UNL     1      45.406 -20.122   6.071  1.00  0.00     0.166 HD
HETATM   12  C   UNL     1      44.567 -20.436   4.155  1.00  0.00     0.043 A 
HETATM   13  C   UNL     1      43.831 -19.576   3.341  1.00  0.00     0.004 A 
HETATM   14  C   UNL     1      44.878 -21.752   3.791  1.00  0.00     0.030 A 
HETATM   15  C   UNL     1      43.383 -20.063   2.093  1.00  0.00     0.014 A 
HETATM   16  C   UNL     1      43.685 -21.376   1.712  1.00  0.00     0.001 A 
HETATM   17  C   UNL     1      44.421 -22.207   2.552  1.00  0.00     0.002 A 
ENDBRANCH   6   7
ENDBRANCH   1   5
BRANCH   2  18
HETATM   18  C   UNL     1      42.208 -12.828   2.529  1.00  0.00     0.227 C 
BRANCH  18  19
HETATM   19  N   UNL     1      41.540 -13.118   1.271  1.00  0.00    -0.348 N 
HETATM   20  C   UNL     1      41.923 -12.550   0.080  1.00  0.00     0.255 C 
HETATM   21  O   UNL     1      42.752 -11.643   0.038  1.00  0.00    -0.268 OA
HETATM   22  H   UNL     1      40.819 -13.833   1.280  1.00  0.00     0.163 HD
BRANCH  20  23
HETATM   23  C   UNL     1      41.279 -13.051  -1.167  1.00  0.00     0.070 A 
HETATM   24  C   UNL     1      41.989 -13.284  -2.347  1.00  0.00     0.132 A 
HETATM   25  F   UNL     1      43.313 -13.076  -2.413  1.00  0.00    -0.205 F 
HETATM   26  C   UNL     1      41.344 -13.736  -3.498  1.00  0.00     0.043 A 
HETATM   27  C   UNL     1      39.968 -13.962  -3.479  1.00  0.00     0.003 A 
HETATM   28  C   UNL     1      39.244 -13.734  -2.310  1.00  0.00     0.001 A 
HETATM   29  C   UNL     1      39.895 -13.279  -1.159  1.00  0.00     0.020 A 
ENDBRANCH  20  23
ENDBRANCH  18  19
ENDBRANCH   2  18
TORSDOF 5
ENDMDL
MODEL 3
REMARK VINA RESULT:      -8.9      1.437      1.567
REMARK  5 active torsions:
REMARK  status: ('A' for Active; 'I' for Inactive)
REMARK    1  A    between atoms: C_7  and  C_8 
REMARK    2  A    between atoms: N_9  and  N_10 
REMARK       I    between atoms: N_10  and  C_11 
REMARK    3  A    between atoms: C_11  and  C_12 
REMARK    4  A    between atoms: C_12  and  N_13 
REMARK       I    between atoms: N_13  and  C_14 
REMARK    5  A    between atoms: C_14  and  C_15 
ROOT
HETATM    1  N   UNL     1      42.842 -14.128   6.517  1.00  0.00    -0.246 N 
HETATM    2  C   UNL     1      42.518 -13.102   5.642  1.00  0.00     0.255 C 
HETATM    3  O   UNL     1      42.722 -13.103   4.429  1.00  0.00    -0.270 OA
HETATM    4  H   UNL     1      42.612 -14.026   7.510  1.00  0.00     0.192 HD
ENDROOT
BRANCH   1   5
HETATM    5  N   UNL     1      43.466 -15.251   6.060  1.00  0.00    -0.184 NA
HETATM    6  C   UNL     1      42.780 -16.344   6.138  1.00  0.00     0.153 C 
BRANCH   6   7
HETATM    7  C   UNL     1      43.359 -17.601   5.697  1.00  0.00     0.018 A 
HETATM    8  C   UNL     1      43.964 -18.567   6.493  1.00  0.00     0.018 A 
HETATM    9  C   UNL     1      44.203 -18.618   7.961  1.00  0.00     0.069 C 
HETATM   10  N   UNL     1      44.362 -19.595   5.675  1.00  0.00    -0.358 N 
HETATM   11  H   UNL     1      44.829 -20.434   5.987  1.00  0.00     0.166 HD
HETATM   12  C   UNL     1      44.033 -19.330   4.368  1.00  0.00     0.043 A 
HETATM   13  C   UNL     1      43.404 -18.086   4.347  1.00  0.00     0.004 A 
HETATM   14  C   UNL     1      44.242 -20.099   3.216  1.00  0.00     0.030 A 
HETATM   15  C   UNL     1      42.960 -17.586   3.103  1.00  0.00     0.014 A 
HETATM   16  C   UNL     1      43.159 -18.342   1.941  1.00  0.00     0.001 A 
HETATM   17  C   UNL     1      43.791 -19.581   2.000  1.00  0.00     0.002 A 
ENDBRANCH   6   7
ENDBRANCH   1   5
BRANCH   2  18
HETATM   18  C   UNL     1      41.952 -11.872   6.354  1.00  0.00     0.227 C 
BRANCH  18  19
HETATM   19  N   UNL     1      42.324 -11.777   7.757  1.00  0.00    -0.348 N 
HETATM   20  C   UNL     1      42.281 -10.596   8.457  1.00  0.00     0.255 C 
HETATM   21  O   UNL     1      42.077  -9.522   7.893  1.00  0.00    -0.268 OA
HETATM   22  H   UNL     1      42.541 -12.642   8.242  1.00  0.00     0.163 HD
BRANCH  20  23
HETATM   23  C   UNL     1      42.519 -10.650   9.927  1.00  0.00     0.070 A 
HETATM   24  C   UNL     1      41.533 -11.025  10.842  1.00  0.00     0.132 A 
HETATM   25  F   UNL     1      40.303 -11.374  10.433  1.00  0.00    -0.205 F 
HETATM   26  C   UNL     1      41.793 -11.046  12.212  1.00  0.00     0.043 A 
HETATM   27  C   UNL     1      43.054 -10.687  12.685  1.00  0.00     0.003 A 
HETATM   28  C   UNL     1      44.050 -10.310  11.785  1.00  0.00     0.001 A 
HETATM   29  C   UNL     1      43.785 -10.289  10.413  1.00  0.00     0.020 A 
ENDBRANCH  20  23
ENDBRANCH  18  19
ENDBRANCH   2  18
TORSDOF 5
ENDMDL
MODEL 4
REMARK VINA RESULT:      -8.8      6.691      9.890
REMARK  5 active torsions:
REMARK  status: ('A' for Active; 'I' for Inactive)
REMARK    1  A    between atoms: C_7  and  C_8 
REMARK    2  A    between atoms: N_9  and  N_10 
REMARK       I    between atoms: N_10  and  C_11 
REMARK    3  A    between atoms: C_11  and  C_12 
REMARK    4  A    between atoms: C_12  and  N_13 
REMARK       I    between atoms: N_13  and  C_14 
REMARK    5  A    between atoms: C_14  and  C_15 
ROOT
HETATM    1  N   UNL     1      41.868 -15.813   2.056  1.00  0.00    -0.246 N 
HETATM    2  C   UNL     1      40.952 -14.946   2.633  1.00  0.00     0.255 C 
HETATM    3  O   UNL     1      40.400 -15.104   3.720  1.00  0.00    -0.270 OA
HETATM    4  H   UNL     1      42.276 -15.573   1.148  1.00  0.00     0.192 HD
ENDROOT
BRANCH   1   5
HETATM    5  N   UNL     1      42.209 -16.972   2.688  1.00  0.00    -0.184 NA
HETATM    6  C   UNL     1      43.412 -17.019   3.160  1.00  0.00     0.153 C 
BRANCH   6   7
HETATM    7  C   UNL     1      43.884 -18.216   3.834  1.00  0.00     0.018 A 
HETATM    8  C   UNL     1      44.306 -18.320   5.154  1.00  0.00     0.018 A 
HETATM    9  C   UNL     1      44.409 -17.301   6.234  1.00  0.00     0.069 C 
HETATM   10  N   UNL     1      44.657 -19.628   5.380  1.00  0.00    -0.358 N 
HETATM   11  H   UNL     1      44.998 -19.991   6.258  1.00  0.00     0.166 HD
HETATM   12  C   UNL     1      44.475 -20.383   4.247  1.00  0.00     0.043 A 
HETATM   13  C   UNL     1      43.992 -19.526   3.258  1.00  0.00     0.004 A 
HETATM   14  C   UNL     1      44.697 -21.749   4.032  1.00  0.00     0.030 A 
HETATM   15  C   UNL     1      43.717 -20.070   1.984  1.00  0.00     0.014 A 
HETATM   16  C   UNL     1      43.932 -21.434   1.751  1.00  0.00     0.001 A 
HETATM   17  C   UNL     1      44.414 -22.259   2.763  1.00  0.00     0.002 A 
ENDBRANCH   6   7
ENDBRANCH   1   5
BRANCH   2  18
HETATM   18  C   UNL     1      40.590 -13.773   1.719  1.00  0.00     0.227 C 
BRANCH  18  19
HETATM   19  N   UNL     1      39.880 -14.161   0.510  1.00  0.00    -0.348 N 
HETATM   20  C   UNL     1      40.373 -13.916  -0.749  1.00  0.00     0.255 C 
HETATM   21  O   UNL     1      41.367 -13.213  -0.925  1.00  0.00    -0.268 OA
HETATM   22  H   UNL     1      39.031 -14.705   0.622  1.00  0.00     0.163 HD
BRANCH  20  23
HETATM   23  C   UNL     1      39.646 -14.508  -1.906  1.00  0.00     0.070 A 
HETATM   24  C   UNL     1      40.224 -15.441  -2.770  1.00  0.00     0.132 A 
HETATM   25  F   UNL     1      41.484 -15.867  -2.588  1.00  0.00    -0.205 F 
HETATM   26  C   UNL     1      39.513 -15.958  -3.852  1.00  0.00     0.043 A 
HETATM   27  C   UNL     1      38.203 -15.542  -4.085  1.00  0.00     0.003 A 
HETATM   28  C   UNL     1      37.610 -14.611  -3.233  1.00  0.00     0.001 A 
HETATM   29  C   UNL     1      38.327 -14.094  -2.150  1.00  0.00     0.020 A 
ENDBRANCH  20  23
ENDBRANCH  18  19
ENDBRANCH   2  18
TORSDOF 5
ENDMDL
MODEL 5
REMARK VINA RESULT:      -8.7      6.424      8.696
REMARK  5 active torsions:
REMARK  status: ('A' for Active; 'I' for Inactive)
REMARK    1  A    between atoms: C_7  and  C_8 
REMARK    2  A    between atoms: N_9  and  N_10 
REMARK       I    between atoms: N_10  and  C_11 
REMARK    3  A    between atoms: C_11  and  C_12 
REMARK    4  A    between atoms: C_12  and  N_13 
REMARK       I    between atoms: N_13  and  C_14 
REMARK    5  A    between atoms: C_14  and  C_15 
ROOT
HETATM    1  N   UNL     1      41.264 -15.536   3.763  1.00  0.00    -0.246 N 
HETATM    2  C   UNL     1      40.339 -15.399   2.739  1.00  0.00     0.255 C 
HETATM    3  O   UNL     1      39.912 -16.310   2.031  1.00  0.00    -0.270 OA
HETATM    4  H   UNL     1      41.539 -14.707   4.298  1.00  0.00     0.192 HD
ENDROOT
BRANCH   1   5
HETATM    5  N   UNL     1      41.806 -16.755   4.042  1.00  0.00    -0.184 NA
HETATM    6  C   UNL     1      43.098 -16.814   4.012  1.00  0.00     0.153 C 
BRANCH   6   7
HETATM    7  C   UNL     1      43.776 -18.071   4.274  1.00  0.00     0.018 A 
HETATM    8  C   UNL     1      44.542 -18.390   5.390  1.00  0.00     0.018 A 
HETATM    9  C   UNL     1      44.895 -17.593   6.597  1.00  0.00     0.069 C 
HETATM   10  N   UNL     1      44.987 -19.679   5.238  1.00  0.00    -0.358 N 
HETATM   11  H   UNL     1      45.565 -20.174   5.903  1.00  0.00     0.166 HD
HETATM   12  C   UNL     1      44.533 -20.214   4.057  1.00  0.00     0.043 A 
HETATM   13  C   UNL     1      43.772 -19.230   3.427  1.00  0.00     0.004 A 
HETATM   14  C   UNL     1      44.738 -21.487   3.510  1.00  0.00     0.030 A 
HETATM   15  C   UNL     1      43.184 -19.540   2.181  1.00  0.00     0.014 A 
HETATM   16  C   UNL     1      43.377 -20.808   1.620  1.00  0.00     0.001 A 
HETATM   17  C   UNL     1      44.142 -21.766   2.278  1.00  0.00     0.002 A 
ENDBRANCH   6   7
ENDBRANCH   1   5
BRANCH   2  18
HETATM   18  C   UNL     1      39.950 -13.942   2.482  1.00  0.00     0.227 C 
BRANCH  18  19
HETATM   19  N   UNL     1      40.365 -13.438   1.182  1.00  0.00    -0.348 N 
HETATM   20  C   UNL     1      41.665 -13.094   0.902  1.00  0.00     0.255 C 
HETATM   21  O   UNL     1      42.521 -13.044   1.784  1.00  0.00    -0.268 OA
HETATM   22  H   UNL     1      39.670 -13.426   0.443  1.00  0.00     0.163 HD
BRANCH  20  23
HETATM   23  C   UNL     1      42.005 -12.754  -0.508  1.00  0.00     0.070 A 
HETATM   24  C   UNL     1      42.575 -11.533  -0.878  1.00  0.00     0.132 A 
HETATM   25  F   UNL     1      42.859 -10.594   0.038  1.00  0.00    -0.205 F 
HETATM   26  C   UNL     1      42.862 -11.248  -2.213  1.00  0.00     0.043 A 
HETATM   27  C   UNL     1      42.579 -12.191  -3.200  1.00  0.00     0.003 A 
HETATM   28  C   UNL     1      42.011 -13.414  -2.848  1.00  0.00     0.001 A 
HETATM   29  C   UNL     1      41.723 -13.695  -1.510  1.00  0.00     0.020 A 
ENDBRANCH  20  23
ENDBRANCH  18  19
ENDBRANCH   2  18
TORSDOF 5
ENDMDL
MODEL 6
REMARK VINA RESULT:      -8.7      6.465      9.880
REMARK  5 active torsions:
REMARK  status: ('A' for Active; 'I' for Inactive)
REMARK    1  A    between atoms: C_7  and  C_8 
REMARK    2  A    between atoms: N_9  and  N_10 
REMARK       I    between atoms: N_10  and  C_11 
REMARK    3  A    between atoms: C_11  and  C_12 
REMARK    4  A    between atoms: C_12  and  N_13 
REMARK       I    between atoms: N_13  and  C_14 
REMARK    5  A    between atoms: C_14  and  C_15 
ROOT
HETATM    1  N   UNL     1      42.027 -15.144   1.621  1.00  0.00    -0.246 N 
HETATM    2  C   UNL     1      42.117 -13.782   1.864  1.00  0.00     0.255 C 
HETATM    3  O   UNL     1      42.954 -13.235   2.581  1.00  0.00    -0.270 OA
HETATM    4  H   UNL     1      41.295 -15.490   0.992  1.00  0.00     0.192 HD
ENDROOT
BRANCH   1   5
HETATM    5  N   UNL     1      42.894 -16.009   2.220  1.00  0.00    -0.184 NA
HETATM    6  C   UNL     1      42.350 -16.997   2.854  1.00  0.00     0.153 C 
BRANCH   6   7
HETATM    7  C   UNL     1      43.184 -17.966   3.545  1.00  0.00     0.018 A 
HETATM    8  C   UNL     1      43.799 -17.807   4.781  1.00  0.00     0.018 A 
HETATM    9  C   UNL     1      43.805 -16.662   5.733  1.00  0.00     0.069 C 
HETATM   10  N   UNL     1      44.480 -18.965   5.063  1.00  0.00    -0.358 N 
HETATM   11  H   UNL     1      45.017 -19.130   5.901  1.00  0.00     0.166 HD
HETATM   12  C   UNL     1      44.326 -19.877   4.047  1.00  0.00     0.043 A 
HETATM   13  C   UNL     1      43.520 -19.280   3.079  1.00  0.00     0.004 A 
HETATM   14  C   UNL     1      44.835 -21.176   3.923  1.00  0.00     0.030 A 
HETATM   15  C   UNL     1      43.208 -20.028   1.922  1.00  0.00     0.014 A 
HETATM   16  C   UNL     1      43.707 -21.328   1.780  1.00  0.00     0.001 A 
HETATM   17  C   UNL     1      44.509 -21.892   2.769  1.00  0.00     0.002 A 
ENDBRANCH   6   7
ENDBRANCH   1   5
BRANCH   2  18
HETATM   18  C   UNL     1      40.979 -12.988   1.219  1.00  0.00     0.227 C 
BRANCH  18  19
HETATM   19  N   UNL     1      40.269 -13.711   0.176  1.00  0.00    -0.348 N 
HETATM   20  C   UNL     1      40.359 -13.374  -1.152  1.00  0.00     0.255 C 
HETATM   21  O   UNL     1      40.919 -12.342  -1.517  1.00  0.00    -0.268 OA
HETATM   22  H   UNL     1      39.759 -14.545   0.452  1.00  0.00     0.163 HD
BRANCH  20  23
HETATM   23  C   UNL     1      39.726 -14.287  -2.145  1.00  0.00     0.070 A 
HETATM   24  C   UNL     1      38.402 -14.150  -2.567  1.00  0.00     0.132 A 
HETATM   25  F   UNL     1      37.623 -13.162  -2.098  1.00  0.00    -0.205 F 
HETATM   26  C   UNL     1      37.843 -15.038  -3.486  1.00  0.00     0.043 A 
HETATM   27  C   UNL     1      38.612 -16.083  -3.997  1.00  0.00     0.003 A 
HETATM   28  C   UNL     1      39.935 -16.235  -3.586  1.00  0.00     0.001 A 
HETATM   29  C   UNL     1      40.491 -15.343  -2.664  1.00  0.00     0.020 A 
ENDBRANCH  20  23
ENDBRANCH  18  19
ENDBRANCH   2  18
TORSDOF 5
ENDMDL
MODEL 7
REMARK VINA RESULT:      -8.7      6.492      9.422
REMARK  5 active torsions:
REMARK  status: ('A' for Active; 'I' for Inactive)
REMARK    1  A    between atoms: C_7  and  C_8 
REMARK    2  A    between atoms: N_9  and  N_10 
REMARK       I    between atoms: N_10  and  C_11 
REMARK    3  A    between atoms: C_11  and  C_12 
REMARK    4  A    between atoms: C_12  and  N_13 
REMARK       I    between atoms: N_13  and  C_14 
REMARK    5  A    between atoms: C_14  and  C_15 
ROOT
HETATM    1  N   UNL     1      41.151 -16.049   2.550  1.00  0.00    -0.246 N 
HETATM    2  C   UNL     1      40.748 -14.961   3.311  1.00  0.00     0.255 C 
HETATM    3  O   UNL     1      40.856 -14.861   4.532  1.00  0.00    -0.270 OA
HETATM    4  H   UNL     1      41.024 -16.018   1.534  1.00  0.00     0.192 HD
ENDROOT
BRANCH   1   5
HETATM    5  N   UNL     1      41.696 -17.144   3.151  1.00  0.00    -0.184 NA
HETATM    6  C   UNL     1      42.982 -17.126   3.287  1.00  0.00     0.153 C 
BRANCH   6   7
HETATM    7  C   UNL     1      43.666 -18.253   3.896  1.00  0.00     0.018 A 
HETATM    8  C   UNL     1      44.260 -18.290   5.152  1.00  0.00     0.018 A 
HETATM    9  C   UNL     1      44.383 -17.250   6.210  1.00  0.00     0.069 C 
HETATM   10  N   UNL     1      44.781 -19.547   5.333  1.00  0.00    -0.358 N 
HETATM   11  H   UNL     1      45.268 -19.858   6.161  1.00  0.00     0.166 HD
HETATM   12  C   UNL     1      44.543 -20.334   4.232  1.00  0.00     0.043 A 
HETATM   13  C   UNL     1      43.848 -19.551   3.312  1.00  0.00     0.004 A 
HETATM   14  C   UNL     1      44.888 -21.670   3.992  1.00  0.00     0.030 A 
HETATM   15  C   UNL     1      43.477 -20.141   2.083  1.00  0.00     0.014 A 
HETATM   16  C   UNL     1      43.813 -21.476   1.826  1.00  0.00     0.001 A 
HETATM   17  C   UNL     1      44.508 -22.227   2.769  1.00  0.00     0.002 A 
ENDBRANCH   6   7
ENDBRANCH   1   5
BRANCH   2  18
HETATM   18  C   UNL     1      40.036 -13.890   2.483  1.00  0.00     0.227 C 
BRANCH  18  19
HETATM   19  N   UNL     1      39.694 -14.313   1.135  1.00  0.00    -0.348 N 
HETATM   20  C   UNL     1      40.154 -13.663   0.015  1.00  0.00     0.255 C 
HETATM   21  O   UNL     1      40.751 -12.592   0.094  1.00  0.00    -0.268 OA
HETATM   22  H   UNL     1      39.162 -15.172   1.037  1.00  0.00     0.163 HD
BRANCH  20  23
HETATM   23  C   UNL     1      39.880 -14.285  -1.310  1.00  0.00     0.070 A 
HETATM   24  C   UNL     1      38.693 -14.077  -2.016  1.00  0.00     0.132 A 
HETATM   25  F   UNL     1      37.727 -13.281  -1.531  1.00  0.00    -0.205 F 
HETATM   26  C   UNL     1      38.469 -14.693  -3.247  1.00  0.00     0.043 A 
HETATM   27  C   UNL     1      39.441 -15.532  -3.790  1.00  0.00     0.003 A 
HETATM   28  C   UNL     1      40.631 -15.752  -3.099  1.00  0.00     0.001 A 
HETATM   29  C   UNL     1      40.851 -15.134  -1.865  1.00  0.00     0.020 A 
ENDBRANCH  20  23
ENDBRANCH  18  19
ENDBRANCH   2  18
TORSDOF 5
ENDMDL
MODEL 8
REMARK VINA RESULT:      -8.6      6.452     10.387
REMARK  5 active torsions:
REMARK  status: ('A' for Active; 'I' for Inactive)
REMARK    1  A    between atoms: C_7  and  C_8 
REMARK    2  A    between atoms: N_9  and  N_10 
REMARK       I    between atoms: N_10  and  C_11 
REMARK    3  A    between atoms: C_11  and  C_12 
REMARK    4  A    between atoms: C_12  and  N_13 
REMARK       I    between atoms: N_13  and  C_14 
REMARK    5  A    between atoms: C_14  and  C_15 
ROOT
HETATM    1  N   UNL     1      41.343 -14.448   1.997  1.00  0.00    -0.246 N 
HETATM    2  C   UNL     1      42.366 -14.101   2.867  1.00  0.00     0.255 C 
HETATM    3  O   UNL     1      43.215 -13.233   2.666  1.00  0.00    -0.270 OA
HETATM    4  H   UNL     1      40.682 -15.180   2.274  1.00  0.00     0.192 HD
ENDROOT
BRANCH   1   5
HETATM    5  N   UNL     1      41.228 -13.828   0.788  1.00  0.00    -0.184 NA
HETATM    6  C   UNL     1      41.813 -14.421  -0.202  1.00  0.00     0.153 C 
BRANCH   6   7
HETATM    7  C   UNL     1      41.770 -13.835  -1.530  1.00  0.00     0.018 A 
HETATM    8  C   UNL     1      41.298 -14.433  -2.692  1.00  0.00     0.018 A 
HETATM    9  C   UNL     1      40.724 -15.785  -2.935  1.00  0.00     0.069 C 
HETATM   10  N   UNL     1      41.432 -13.528  -3.715  1.00  0.00    -0.358 N 
HETATM   11  H   UNL     1      41.164 -13.694  -4.674  1.00  0.00     0.166 HD
HETATM   12  C   UNL     1      41.976 -12.353  -3.255  1.00  0.00     0.043 A 
HETATM   13  C   UNL     1      42.202 -12.514  -1.888  1.00  0.00     0.004 A 
HETATM   14  C   UNL     1      42.278 -11.172  -3.944  1.00  0.00     0.030 A 
HETATM   15  C   UNL     1      42.761 -11.431  -1.175  1.00  0.00     0.014 A 
HETATM   16  C   UNL     1      43.067 -10.242  -1.847  1.00  0.00     0.001 A 
HETATM   17  C   UNL     1      42.827 -10.117  -3.213  1.00  0.00     0.002 A 
ENDBRANCH   6   7
ENDBRANCH   1   5
BRANCH   2  18
HETATM   18  C   UNL     1      42.418 -14.995   4.108  1.00  0.00     0.227 C 
BRANCH  18  19
HETATM   19  N   UNL     1      43.090 -16.267   3.893  1.00  0.00    -0.348 N 
HETATM   20  C   UNL     1      42.426 -17.469   3.923  1.00  0.00     0.255 C 
HETATM   21  O   UNL     1      41.255 -17.548   4.289  1.00  0.00    -0.268 OA
HETATM   22  H   UNL     1      44.070 -16.238   3.631  1.00  0.00     0.163 HD
BRANCH  20  23
HETATM   23  C   UNL     1      43.181 -18.689   3.522  1.00  0.00     0.070 A 
HETATM   24  C   UNL     1      42.972 -19.346   2.307  1.00  0.00     0.132 A 
HETATM   25  F   UNL     1      42.071 -18.895   1.420  1.00  0.00    -0.205 F 
HETATM   26  C   UNL     1      43.688 -20.496   1.978  1.00  0.00     0.043 A 
HETATM   27  C   UNL     1      44.630 -21.006   2.869  1.00  0.00     0.003 A 
HETATM   28  C   UNL     1      44.852 -20.363   4.086  1.00  0.00     0.001 A 
HETATM   29  C   UNL     1      44.130 -19.212   4.413  1.00  0.00     0.020 A 
ENDBRANCH  20  23
ENDBRANCH  18  19
ENDBRANCH   2  18
TORSDOF 5
ENDMDL
MODEL 9
REMARK VINA RESULT:      -8.4      2.056      3.054
REMARK  5 active torsions:
REMARK  status: ('A' for Active; 'I' for Inactive)
REMARK    1  A    between atoms: C_7  and  C_8 
REMARK    2  A    between atoms: N_9  and  N_10 
REMARK       I    between atoms: N_10  and  C_11 
REMARK    3  A    between atoms: C_11  and  C_12 
REMARK    4  A    between atoms: C_12  and  N_13 
REMARK       I    between atoms: N_13  and  C_14 
REMARK    5  A    between atoms: C_14  and  C_15 
ROOT
HETATM    1  N   UNL     1      42.316 -13.807   4.335  1.00  0.00    -0.246 N 
HETATM    2  C   UNL     1      42.830 -13.463   5.576  1.00  0.00     0.255 C 
HETATM    3  O   UNL     1      43.738 -14.047   6.164  1.00  0.00    -0.270 OA
HETATM    4  H   UNL     1      41.565 -13.238   3.932  1.00  0.00     0.192 HD
ENDROOT
BRANCH   1   5
HETATM    5  N   UNL     1      42.798 -14.894   3.669  1.00  0.00    -0.184 NA
HETATM    6  C   UNL     1      42.119 -15.986   3.813  1.00  0.00     0.153 C 
BRANCH   6   7
HETATM    7  C   UNL     1      42.558 -17.208   3.162  1.00  0.00     0.018 A 
HETATM    8  C   UNL     1      42.246 -17.627   1.874  1.00  0.00     0.018 A 
HETATM    9  C   UNL     1      41.410 -16.999   0.814  1.00  0.00     0.069 C 
HETATM   10  N   UNL     1      42.874 -18.829   1.660  1.00  0.00    -0.358 N 
HETATM   11  H   UNL     1      42.825 -19.362   0.805  1.00  0.00     0.166 HD
HETATM   12  C   UNL     1      43.590 -19.207   2.770  1.00  0.00     0.043 A 
HETATM   13  C   UNL     1      43.410 -18.213   3.731  1.00  0.00     0.004 A 
HETATM   14  C   UNL     1      44.377 -20.344   2.986  1.00  0.00     0.030 A 
HETATM   15  C   UNL     1      44.057 -18.368   4.978  1.00  0.00     0.014 A 
HETATM   16  C   UNL     1      44.849 -19.499   5.211  1.00  0.00     0.001 A 
HETATM   17  C   UNL     1      45.006 -20.471   4.227  1.00  0.00     0.002 A 
ENDBRANCH   6   7
ENDBRANCH   1   5
BRANCH   2  18
HETATM   18  C   UNL     1      42.073 -12.304   6.230  1.00  0.00     0.227 C 
BRANCH  18  19
HETATM   19  N   UNL     1      42.549 -11.963   7.562  1.00  0.00    -0.348 N 
HETATM   20  C   UNL     1      42.405 -10.708   8.100  1.00  0.00     0.255 C 
HETATM   21  O   UNL     1      42.008  -9.760   7.425  1.00  0.00    -0.268 OA
HETATM   22  H   UNL     1      42.924 -12.716   8.130  1.00  0.00     0.163 HD
BRANCH  20  23
HETATM   23  C   UNL     1      42.775 -10.520   9.531  1.00  0.00     0.070 A 
HETATM   24  C   UNL     1      41.890 -10.010  10.484  1.00  0.00     0.132 A 
HETATM   25  F   UNL     1      40.634  -9.668  10.152  1.00  0.00    -0.205 F 
HETATM   26  C   UNL     1      42.282  -9.834  11.810  1.00  0.00     0.043 A 
HETATM   27  C   UNL     1      43.577 -10.169  12.201  1.00  0.00     0.003 A 
HETATM   28  C   UNL     1      44.474 -10.679  11.264  1.00  0.00     0.001 A 
HETATM   29  C   UNL     1      44.077 -10.853   9.935  1.00  0.00     0.020 A 
ENDBRANCH  20  23
ENDBRANCH  18  19
ENDBRANCH   2  18
TORSDOF 5
ENDMDL
MODEL 10
REMARK VINA RESULT:      -7.9      6.106      9.861
REMARK  5 active torsions:
REMARK  status: ('A' for Active; 'I' for Inactive)
REMARK    1  A    between atoms: C_7  and  C_8 
REMARK    2  A    between atoms: N_9  and  N_10 
REMARK       I    between atoms: N_10  and  C_11 
REMARK    3  A    between atoms: C_11  and  C_12 
REMARK    4  A    between atoms: C_12  and  N_13 
REMARK       I    between atoms: N_13  and  C_14 
REMARK    5  A    between atoms: C_14  and  C_15 
ROOT
HETATM    1  N   UNL     1      40.446 -15.513   2.557  1.00  0.00    -0.246 N 
HETATM    2  C   UNL     1      39.837 -14.433   3.179  1.00  0.00     0.255 C 
HETATM    3  O   UNL     1      39.733 -14.270   4.394  1.00  0.00    -0.270 OA
HETATM    4  H   UNL     1      40.488 -15.538   1.534  1.00  0.00     0.192 HD
ENDROOT
BRANCH   1   5
HETATM    5  N   UNL     1      40.971 -16.528   3.300  1.00  0.00    -0.184 NA
HETATM    6  C   UNL     1      42.259 -16.646   3.256  1.00  0.00     0.153 C 
BRANCH   6   7
HETATM    7  C   UNL     1      42.918 -17.708   3.996  1.00  0.00     0.018 A 
HETATM    8  C   UNL     1      43.491 -18.860   3.470  1.00  0.00     0.018 A 
HETATM    9  C   UNL     1      43.600 -19.349   2.068  1.00  0.00     0.069 C 
HETATM   10  N   UNL     1      44.010 -19.584   4.514  1.00  0.00    -0.358 N 
HETATM   11  H   UNL     1      44.489 -20.468   4.423  1.00  0.00     0.166 HD
HETATM   12  C   UNL     1      43.796 -18.937   5.707  1.00  0.00     0.043 A 
HETATM   13  C   UNL     1      43.111 -17.758   5.417  1.00  0.00     0.004 A 
HETATM   14  C   UNL     1      44.160 -19.308   7.008  1.00  0.00     0.030 A 
HETATM   15  C   UNL     1      42.774 -16.903   6.490  1.00  0.00     0.014 A 
HETATM   16  C   UNL     1      43.131 -17.258   7.796  1.00  0.00     0.001 A 
HETATM   17  C   UNL     1      43.815 -18.443   8.049  1.00  0.00     0.002 A 
ENDBRANCH   6   7
ENDBRANCH   1   5
BRANCH   2  18
HETATM   18  C   UNL     1      39.187 -13.466   2.187  1.00  0.00     0.227 C 
BRANCH  18  19
HETATM   19  N   UNL     1      39.026 -14.012   0.848  1.00  0.00    -0.348 N 
HETATM   20  C   UNL     1      39.707 -13.520  -0.238  1.00  0.00     0.255 C 
HETATM   21  O   UNL     1      40.371 -12.488  -0.168  1.00  0.00    -0.268 OA
HETATM   22  H   UNL     1      38.447 -14.840   0.749  1.00  0.00     0.163 HD
BRANCH  20  23
HETATM   23  C   UNL     1      39.593 -14.264  -1.524  1.00  0.00     0.070 A 
HETATM   24  C   UNL     1      38.490 -14.148  -2.373  1.00  0.00     0.132 A 
HETATM   25  F   UNL     1      37.465 -13.336  -2.072  1.00  0.00    -0.205 F 
HETATM   26  C   UNL     1      38.415 -14.877  -3.560  1.00  0.00     0.043 A 
HETATM   27  C   UNL     1      39.453 -15.737  -3.913  1.00  0.00     0.003 A 
HETATM   28  C   UNL     1      40.562 -15.866  -3.077  1.00  0.00     0.001 A 
HETATM   29  C   UNL     1      40.632 -15.135  -1.887  1.00  0.00     0.020 A 
ENDBRANCH  20  23
ENDBRANCH  18  19
ENDBRANCH   2  18
TORSDOF 5
ENDMDL
