MODEL 1
REMARK VINA RESULT:      -8.2      0.000      0.000
REMARK  4 active torsions:
REMARK  status: ('A' for Active; 'I' for Inactive)
REMARK    1  A    between atoms: C_5  and  C_6 
REMARK    2  A    between atoms: C_6  and  N_7 
REMARK    3  A    between atoms: N_10  and  C_12 
REMARK    4  A    between atoms: C_12  and  C_13 
ROOT
HETATM    1  N   UNL     1      42.718 -16.628   2.273  1.00  0.00    -0.406 N 
HETATM    2  C   UNL     1      41.783 -16.525   1.150  1.00  0.00     0.150 C 
HETATM    3  C   UNL     1      40.690 -15.425   1.149  1.00  0.00     0.206 C 
HETATM    4  N   UNL     1      41.212 -14.061   0.706  1.00  0.00    -0.061 N 
HETATM    5  H   UNL     1      40.375 -13.466   0.713  1.00  0.00     0.280 HD
HETATM    6  C   UNL     1      42.181 -13.421   1.661  1.00  0.00     0.242 C 
HETATM    7  C   UNL     1      42.291 -14.181   2.979  1.00  0.00     0.029 C 
HETATM    8  C   UNL     1      43.236 -15.391   2.845  1.00  0.00     0.123 C 
HETATM    9  C   UNL     1      40.013 -15.236   2.510  1.00  0.00     0.035 C 
HETATM   10  C   UNL     1      40.909 -14.537   3.535  1.00  0.00     0.010 C 
ENDROOT
BRANCH   4  11
HETATM   11  C   UNL     1      41.701 -13.971  -0.728  1.00  0.00     0.274 C 
BRANCH  11  12
HETATM   12  C   UNL     1      40.667 -14.344  -1.754  1.00  0.00    -0.032 A 
HETATM   13  C   UNL     1      39.505 -13.562  -1.904  1.00  0.00     0.022 A 
HETATM   14  C   UNL     1      38.542 -13.919  -2.868  1.00  0.00    -0.008 A 
HETATM   15  C   UNL     1      38.769 -15.044  -3.660  1.00  0.00     0.042 A 
HETATM   16  C   UNL     1      37.297 -13.365  -3.272  1.00  0.00     0.030 A 
HETATM   17  N   UNL     1      37.697 -15.157  -4.520  1.00  0.00    -0.365 N 
HETATM   18  C   UNL     1      39.912 -15.836  -3.536  1.00  0.00     0.031 A 
HETATM   19  H   UNL     1      37.595 -15.876  -5.224  1.00  0.00     0.165 HD
HETATM   20  C   UNL     1      36.801 -14.148  -4.289  1.00  0.00     0.089 A 
HETATM   21  C   UNL     1      40.856 -15.467  -2.570  1.00  0.00     0.011 A 
ENDBRANCH  11  12
ENDBRANCH   4  11
BRANCH   1  22
HETATM   22  C   UNL     1      42.388 -17.643   3.290  1.00  0.00     0.157 C 
BRANCH  22  23
HETATM   23  C   UNL     1      43.198 -18.910   3.195  1.00  0.00    -0.023 A 
HETATM   24  C   UNL     1      44.017 -19.330   4.240  1.00  0.00     0.125 A 
HETATM   25  N   UNL     1      44.761 -20.458   4.217  1.00  0.00    -0.273 NA
HETATM   26  C   UNL     1      44.663 -21.230   3.114  1.00  0.00     0.116 A 
HETATM   27  C   UNL     1      43.860 -20.919   2.029  1.00  0.00     0.020 A 
HETATM   28  C   UNL     1      43.119 -19.742   2.073  1.00  0.00     0.011 A 
ENDBRANCH  22  23
ENDBRANCH   1  22
TORSDOF 4
ENDMDL
MODEL 2
REMARK VINA RESULT:      -8.0      4.188      8.555
REMARK  4 active torsions:
REMARK  status: ('A' for Active; 'I' for Inactive)
REMARK    1  A    between atoms: C_5  and  C_6 
REMARK    2  A    between atoms: C_6  and  N_7 
REMARK    3  A    between atoms: N_10  and  C_12 
REMARK    4  A    between atoms: C_12  and  C_13 
ROOT
HETATM    1  N   UNL     1      42.054 -13.233   5.157  1.00  0.00    -0.406 N 
HETATM    2  C   UNL     1      41.729 -14.578   5.637  1.00  0.00     0.150 C 
HETATM    3  C   UNL     1      41.397 -15.705   4.624  1.00  0.00     0.206 C 
HETATM    4  N   UNL     1      42.639 -16.337   4.002  1.00  0.00    -0.061 N 
HETATM    5  H   UNL     1      42.260 -17.080   3.404  1.00  0.00     0.280 HD
HETATM    6  C   UNL     1      43.414 -15.428   3.090  1.00  0.00     0.242 C 
HETATM    7  C   UNL     1      42.686 -14.116   2.815  1.00  0.00     0.029 C 
HETATM    8  C   UNL     1      42.890 -13.116   3.969  1.00  0.00     0.123 C 
HETATM    9  C   UNL     1      40.493 -15.245   3.475  1.00  0.00     0.035 C 
HETATM   10  C   UNL     1      41.216 -14.357   2.460  1.00  0.00     0.010 C 
ENDROOT
BRANCH   4  11
HETATM   11  C   UNL     1      43.554 -17.081   4.957  1.00  0.00     0.274 C 
BRANCH  11  12
HETATM   12  C   UNL     1      43.875 -18.487   4.532  1.00  0.00    -0.032 A 
HETATM   13  C   UNL     1      43.613 -18.904   3.212  1.00  0.00     0.022 A 
HETATM   14  C   UNL     1      43.916 -20.223   2.823  1.00  0.00    -0.008 A 
HETATM   15  C   UNL     1      44.477 -21.088   3.760  1.00  0.00     0.042 A 
HETATM   16  C   UNL     1      43.787 -20.947   1.606  1.00  0.00     0.030 A 
HETATM   17  N   UNL     1      44.688 -22.293   3.124  1.00  0.00    -0.365 N 
HETATM   18  C   UNL     1      44.751 -20.703   5.075  1.00  0.00     0.031 A 
HETATM   19  H   UNL     1      45.101 -23.110   3.556  1.00  0.00     0.165 HD
HETATM   20  C   UNL     1      44.270 -22.217   1.822  1.00  0.00     0.089 A 
HETATM   21  C   UNL     1      44.439 -19.389   5.443  1.00  0.00     0.011 A 
ENDBRANCH  11  12
ENDBRANCH   4  11
BRANCH   1  22
HETATM   22  C   UNL     1      40.947 -12.259   5.185  1.00  0.00     0.157 C 
BRANCH  22  23
HETATM   23  C   UNL     1      40.628 -11.713   6.552  1.00  0.00    -0.023 A 
HETATM   24  C   UNL     1      39.426 -12.007   7.191  1.00  0.00     0.125 A 
HETATM   25  N   UNL     1      39.086 -11.553   8.418  1.00  0.00    -0.273 NA
HETATM   26  C   UNL     1      39.999 -10.795   9.062  1.00  0.00     0.116 A 
HETATM   27  C   UNL     1      41.234 -10.464   8.528  1.00  0.00     0.020 A 
HETATM   28  C   UNL     1      41.549 -10.931   7.256  1.00  0.00     0.011 A 
ENDBRANCH  22  23
ENDBRANCH   1  22
TORSDOF 4
ENDMDL
MODEL 3
REMARK VINA RESULT:      -8.0      1.877      2.505
REMARK  4 active torsions:
REMARK  status: ('A' for Active; 'I' for Inactive)
REMARK    1  A    between atoms: C_5  and  C_6 
REMARK    2  A    between atoms: C_6  and  N_7 
REMARK    3  A    between atoms: N_10  and  C_12 
REMARK    4  A    between atoms: C_12  and  C_13 
ROOT
HETATM    1  N   UNL     1      42.930 -17.194   3.164  1.00  0.00    -0.406 N 
HETATM    2  C   UNL     1      41.527 -17.011   3.540  1.00  0.00     0.150 C 
HETATM    3  C   UNL     1      41.083 -15.725   4.284  1.00  0.00     0.206 C 
HETATM    4  N   UNL     1      40.882 -14.533   3.354  1.00  0.00    -0.061 N 
HETATM    5  H   UNL     1      40.551 -13.788   3.978  1.00  0.00     0.280 HD
HETATM    6  C   UNL     1      42.143 -14.010   2.724  1.00  0.00     0.242 C 
HETATM    7  C   UNL     1      43.397 -14.658   3.303  1.00  0.00     0.029 C 
HETATM    8  C   UNL     1      43.658 -16.034   2.661  1.00  0.00     0.123 C 
HETATM    9  C   UNL     1      42.057 -15.289   5.383  1.00  0.00     0.035 C 
HETATM   10  C   UNL     1      43.353 -14.689   4.833  1.00  0.00     0.010 C 
ENDROOT
BRANCH   4  11
HETATM   11  C   UNL     1      39.764 -14.666   2.335  1.00  0.00     0.274 C 
BRANCH  11  12
HETATM   12  C   UNL     1      40.238 -14.757   0.911  1.00  0.00    -0.032 A 
HETATM   13  C   UNL     1      40.076 -13.662   0.040  1.00  0.00     0.022 A 
HETATM   14  C   UNL     1      40.523 -13.757  -1.292  1.00  0.00    -0.008 A 
HETATM   15  C   UNL     1      41.124 -14.940  -1.717  1.00  0.00     0.042 A 
HETATM   16  C   UNL     1      40.519 -12.866  -2.401  1.00  0.00     0.030 A 
HETATM   17  N   UNL     1      41.479 -14.764  -3.037  1.00  0.00    -0.365 N 
HETATM   18  C   UNL     1      41.301 -16.041  -0.876  1.00  0.00     0.031 A 
HETATM   19  H   UNL     1      41.951 -15.455  -3.607  1.00  0.00     0.165 HD
HETATM   20  C   UNL     1      41.113 -13.513  -3.459  1.00  0.00     0.089 A 
HETATM   21  C   UNL     1      40.848 -15.929   0.443  1.00  0.00     0.011 A 
ENDBRANCH  11  12
ENDBRANCH   4  11
BRANCH   1  22
HETATM   22  C   UNL     1      43.733 -18.032   4.073  1.00  0.00     0.157 C 
BRANCH  22  23
HETATM   23  C   UNL     1      43.973 -19.435   3.581  1.00  0.00    -0.023 A 
HETATM   24  C   UNL     1      44.542 -20.406   4.401  1.00  0.00     0.125 A 
HETATM   25  N   UNL     1      44.776 -21.682   4.020  1.00  0.00    -0.273 NA
HETATM   26  C   UNL     1      44.395 -22.024   2.771  1.00  0.00     0.116 A 
HETATM   27  C   UNL     1      43.799 -21.144   1.883  1.00  0.00     0.020 A 
HETATM   28  C   UNL     1      43.586 -19.832   2.297  1.00  0.00     0.011 A 
ENDBRANCH  22  23
ENDBRANCH   1  22
TORSDOF 4
ENDMDL
MODEL 4
REMARK VINA RESULT:      -7.9      3.243      8.267
REMARK  4 active torsions:
REMARK  status: ('A' for Active; 'I' for Inactive)
REMARK    1  A    between atoms: C_5  and  C_6 
REMARK    2  A    between atoms: C_6  and  N_7 
REMARK    3  A    between atoms: N_10  and  C_12 
REMARK    4  A    between atoms: C_12  and  C_13 
ROOT
HETATM    1  N   UNL     1      41.311 -13.796   3.454  1.00  0.00    -0.406 N 
HETATM    2  C   UNL     1      41.563 -15.135   3.992  1.00  0.00     0.150 C 
HETATM    3  C   UNL     1      41.231 -16.389   3.142  1.00  0.00     0.206 C 
HETATM    4  N   UNL     1      42.306 -16.714   2.108  1.00  0.00    -0.061 N 
HETATM    5  H   UNL     1      41.968 -17.578   1.669  1.00  0.00     0.280 HD
HETATM    6  C   UNL     1      42.431 -15.709   0.998  1.00  0.00     0.242 C 
HETATM    7  C   UNL     1      41.316 -14.668   1.023  1.00  0.00     0.029 C 
HETATM    8  C   UNL     1      41.618 -13.558   2.049  1.00  0.00     0.123 C 
HETATM    9  C   UNL     1      39.896 -16.285   2.397  1.00  0.00     0.035 C 
HETATM   10  C   UNL     1      39.945 -15.322   1.208  1.00  0.00     0.010 C 
ENDROOT
BRANCH   4  11
HETATM   11  C   UNL     1      43.664 -17.104   2.663  1.00  0.00     0.274 C 
BRANCH  11  12
HETATM   12  C   UNL     1      43.870 -18.587   2.797  1.00  0.00    -0.032 A 
HETATM   13  C   UNL     1      44.321 -19.131   4.016  1.00  0.00     0.022 A 
HETATM   14  C   UNL     1      44.511 -20.521   4.133  1.00  0.00    -0.008 A 
HETATM   15  C   UNL     1      44.243 -21.331   3.032  1.00  0.00     0.042 A 
HETATM   16  C   UNL     1      44.938 -21.373   5.188  1.00  0.00     0.030 A 
HETATM   17  N   UNL     1      44.491 -22.632   3.415  1.00  0.00    -0.365 N 
HETATM   18  C   UNL     1      43.793 -20.822   1.811  1.00  0.00     0.031 A 
HETATM   19  H   UNL     1      44.367 -23.443   2.822  1.00  0.00     0.165 HD
HETATM   20  C   UNL     1      44.916 -22.665   4.716  1.00  0.00     0.089 A 
HETATM   21  C   UNL     1      43.613 -19.437   1.714  1.00  0.00     0.011 A 
ENDBRANCH  11  12
ENDBRANCH   4  11
BRANCH   1  22
HETATM   22  C   UNL     1      40.057 -13.156   3.890  1.00  0.00     0.157 C 
BRANCH  22  23
HETATM   23  C   UNL     1      40.157 -12.406   5.193  1.00  0.00    -0.023 A 
HETATM   24  C   UNL     1      39.167 -12.504   6.167  1.00  0.00     0.125 A 
HETATM   25  N   UNL     1      39.204 -11.863   7.357  1.00  0.00    -0.273 NA
HETATM   26  C   UNL     1      40.296 -11.110   7.609  1.00  0.00     0.116 A 
HETATM   27  C   UNL     1      41.349 -10.965   6.721  1.00  0.00     0.020 A 
HETATM   28  C   UNL     1      41.275 -11.623   5.497  1.00  0.00     0.011 A 
ENDBRANCH  22  23
ENDBRANCH   1  22
TORSDOF 4
ENDMDL
MODEL 5
REMARK VINA RESULT:      -7.9      2.778      4.775
REMARK  4 active torsions:
REMARK  status: ('A' for Active; 'I' for Inactive)
REMARK    1  A    between atoms: C_5  and  C_6 
REMARK    2  A    between atoms: C_6  and  N_7 
REMARK    3  A    between atoms: N_10  and  C_12 
REMARK    4  A    between atoms: C_12  and  C_13 
ROOT
HETATM    1  N   UNL     1      43.390 -17.781   4.768  1.00  0.00    -0.406 N 
HETATM    2  C   UNL     1      42.071 -17.849   5.399  1.00  0.00     0.150 C 
HETATM    3  C   UNL     1      41.774 -17.014   6.672  1.00  0.00     0.206 C 
HETATM    4  N   UNL     1      41.440 -15.557   6.369  1.00  0.00    -0.061 N 
HETATM    5  H   UNL     1      41.228 -15.159   7.291  1.00  0.00     0.280 HD
HETATM    6  C   UNL     1      42.588 -14.751   5.827  1.00  0.00     0.242 C 
HETATM    7  C   UNL     1      43.910 -15.509   5.879  1.00  0.00     0.029 C 
HETATM    8  C   UNL     1      44.042 -16.479   4.689  1.00  0.00     0.123 C 
HETATM    9  C   UNL     1      42.923 -17.019   7.686  1.00  0.00     0.035 C 
HETATM   10  C   UNL     1      44.119 -16.174   7.243  1.00  0.00     0.010 C 
ENDROOT
BRANCH   4  11
HETATM   11  C   UNL     1      40.168 -15.318   5.577  1.00  0.00     0.274 C 
BRANCH  11  12
HETATM   12  C   UNL     1      40.402 -14.924   4.145  1.00  0.00    -0.032 A 
HETATM   13  C   UNL     1      40.691 -15.907   3.178  1.00  0.00     0.022 A 
HETATM   14  C   UNL     1      40.909 -15.529   1.839  1.00  0.00    -0.008 A 
HETATM   15  C   UNL     1      40.826 -14.180   1.500  1.00  0.00     0.042 A 
HETATM   16  C   UNL     1      41.208 -16.244   0.648  1.00  0.00     0.030 A 
HETATM   17  N   UNL     1      41.059 -14.087   0.145  1.00  0.00    -0.365 N 
HETATM   18  C   UNL     1      40.538 -13.182   2.435  1.00  0.00     0.031 A 
HETATM   19  H   UNL     1      41.048 -13.225  -0.386  1.00  0.00     0.165 HD
HETATM   20  C   UNL     1      41.295 -15.330  -0.377  1.00  0.00     0.089 A 
HETATM   21  C   UNL     1      40.328 -13.578   3.761  1.00  0.00     0.011 A 
ENDBRANCH  11  12
ENDBRANCH   4  11
BRANCH   1  22
HETATM   22  C   UNL     1      44.319 -18.874   5.106  1.00  0.00     0.157 C 
BRANCH  22  23
HETATM   23  C   UNL     1      44.322 -20.018   4.126  1.00  0.00    -0.023 A 
HETATM   24  C   UNL     1      44.683 -21.307   4.513  1.00  0.00     0.125 A 
HETATM   25  N   UNL     1      44.698 -22.374   3.683  1.00  0.00    -0.273 NA
HETATM   26  C   UNL     1      44.303 -22.161   2.410  1.00  0.00     0.116 A 
HETATM   27  C   UNL     1      43.901 -20.926   1.928  1.00  0.00     0.020 A 
HETATM   28  C   UNL     1      43.912 -19.842   2.801  1.00  0.00     0.011 A 
ENDBRANCH  22  23
ENDBRANCH   1  22
TORSDOF 4
ENDMDL
MODEL 6
REMARK VINA RESULT:      -7.9      1.750      3.290
REMARK  4 active torsions:
REMARK  status: ('A' for Active; 'I' for Inactive)
REMARK    1  A    between atoms: C_5  and  C_6 
REMARK    2  A    between atoms: C_6  and  N_7 
REMARK    3  A    between atoms: N_10  and  C_12 
REMARK    4  A    between atoms: C_12  and  C_13 
ROOT
HETATM    1  N   UNL     1      43.075 -17.402   4.506  1.00  0.00    -0.406 N 
HETATM    2  C   UNL     1      43.096 -16.043   3.961  1.00  0.00     0.150 C 
HETATM    3  C   UNL     1      43.178 -15.823   2.427  1.00  0.00     0.206 C 
HETATM    4  N   UNL     1      41.831 -15.973   1.727  1.00  0.00    -0.061 N 
HETATM    5  H   UNL     1      42.041 -15.756   0.746  1.00  0.00     0.280 HD
HETATM    6  C   UNL     1      41.277 -17.370   1.729  1.00  0.00     0.242 C 
HETATM    7  C   UNL     1      42.275 -18.394   2.261  1.00  0.00     0.029 C 
HETATM    8  C   UNL     1      42.289 -18.407   3.802  1.00  0.00     0.123 C 
HETATM    9  C   UNL     1      44.165 -16.763   1.728  1.00  0.00     0.035 C 
HETATM   10  C   UNL     1      43.658 -18.204   1.633  1.00  0.00     0.010 C 
ENDROOT
BRANCH   4  11
HETATM   11  C   UNL     1      40.771 -14.953   2.099  1.00  0.00     0.274 C 
BRANCH  11  12
HETATM   12  C   UNL     1      39.892 -14.535   0.953  1.00  0.00    -0.032 A 
HETATM   13  C   UNL     1      40.433 -14.391  -0.339  1.00  0.00     0.022 A 
HETATM   14  C   UNL     1      39.602 -13.999  -1.406  1.00  0.00    -0.008 A 
HETATM   15  C   UNL     1      38.251 -13.766  -1.155  1.00  0.00     0.042 A 
HETATM   16  C   UNL     1      39.817 -13.771  -2.793  1.00  0.00     0.030 A 
HETATM   17  N   UNL     1      37.670 -13.418  -2.355  1.00  0.00    -0.365 N 
HETATM   18  C   UNL     1      37.685 -13.902   0.115  1.00  0.00     0.031 A 
HETATM   19  H   UNL     1      36.689 -13.205  -2.482  1.00  0.00     0.165 HD
HETATM   20  C   UNL     1      38.611 -13.415  -3.350  1.00  0.00     0.089 A 
HETATM   21  C   UNL     1      38.528 -14.289   1.163  1.00  0.00     0.011 A 
ENDBRANCH  11  12
ENDBRANCH   4  11
BRANCH   1  22
HETATM   22  C   UNL     1      44.367 -17.915   4.996  1.00  0.00     0.157 C 
BRANCH  22  23
HETATM   23  C   UNL     1      44.376 -19.388   5.310  1.00  0.00    -0.023 A 
HETATM   24  C   UNL     1      45.011 -20.306   4.476  1.00  0.00     0.125 A 
HETATM   25  N   UNL     1      45.060 -21.637   4.706  1.00  0.00    -0.273 NA
HETATM   26  C   UNL     1      44.477 -22.080   5.841  1.00  0.00     0.116 A 
HETATM   27  C   UNL     1      43.841 -21.251   6.750  1.00  0.00     0.020 A 
HETATM   28  C   UNL     1      43.792 -19.887   6.478  1.00  0.00     0.011 A 
ENDBRANCH  22  23
ENDBRANCH   1  22
TORSDOF 4
ENDMDL
MODEL 7
REMARK VINA RESULT:      -7.8      4.054      8.614
REMARK  4 active torsions:
REMARK  status: ('A' for Active; 'I' for Inactive)
REMARK    1  A    between atoms: C_5  and  C_6 
REMARK    2  A    between atoms: C_6  and  N_7 
REMARK    3  A    between atoms: N_10  and  C_12 
REMARK    4  A    between atoms: C_12  and  C_13 
ROOT
HETATM    1  N   UNL     1      40.959 -13.665   5.356  1.00  0.00    -0.406 N 
HETATM    2  C   UNL     1      40.940 -15.121   5.200  1.00  0.00     0.150 C 
HETATM    3  C   UNL     1      41.197 -15.756   3.808  1.00  0.00     0.206 C 
HETATM    4  N   UNL     1      42.677 -15.839   3.450  1.00  0.00    -0.061 N 
HETATM    5  H   UNL     1      42.682 -16.315   2.541  1.00  0.00     0.280 HD
HETATM    6  C   UNL     1      43.342 -14.510   3.222  1.00  0.00     0.242 C 
HETATM    7  C   UNL     1      42.346 -13.355   3.200  1.00  0.00     0.029 C 
HETATM    8  C   UNL     1      41.976 -12.914   4.629  1.00  0.00     0.123 C 
HETATM    9  C   UNL     1      40.489 -15.023   2.663  1.00  0.00     0.035 C 
HETATM   10  C   UNL     1      41.135 -13.678   2.321  1.00  0.00     0.010 C 
ENDROOT
BRANCH   4  11
HETATM   11  C   UNL     1      43.524 -16.742   4.329  1.00  0.00     0.274 C 
BRANCH  11  12
HETATM   12  C   UNL     1      43.723 -18.126   3.778  1.00  0.00    -0.032 A 
HETATM   13  C   UNL     1      44.182 -19.162   4.614  1.00  0.00     0.022 A 
HETATM   14  C   UNL     1      44.366 -20.455   4.089  1.00  0.00    -0.008 A 
HETATM   15  C   UNL     1      44.081 -20.681   2.743  1.00  0.00     0.042 A 
HETATM   16  C   UNL     1      44.799 -21.692   4.640  1.00  0.00     0.030 A 
HETATM   17  N   UNL     1      44.325 -22.015   2.495  1.00  0.00    -0.365 N 
HETATM   18  C   UNL     1      43.621 -19.675   1.890  1.00  0.00     0.031 A 
HETATM   19  H   UNL     1      44.191 -22.471   1.602  1.00  0.00     0.165 HD
HETATM   20  C   UNL     1      44.764 -22.632   3.636  1.00  0.00     0.089 A 
HETATM   21  C   UNL     1      43.448 -18.396   2.430  1.00  0.00     0.011 A 
ENDBRANCH  11  12
ENDBRANCH   4  11
BRANCH   1  22
HETATM   22  C   UNL     1      39.641 -13.004   5.356  1.00  0.00     0.157 C 
BRANCH  22  23
HETATM   23  C   UNL     1      39.483 -11.923   6.393  1.00  0.00    -0.023 A 
HETATM   24  C   UNL     1      39.372 -10.581   6.035  1.00  0.00     0.125 A 
HETATM   25  N   UNL     1      39.222  -9.568   6.917  1.00  0.00    -0.273 NA
HETATM   26  C   UNL     1      39.144  -9.904   8.223  1.00  0.00     0.116 A 
HETATM   27  C   UNL     1      39.218 -11.208   8.685  1.00  0.00     0.020 A 
HETATM   28  C   UNL     1      39.390 -12.229   7.755  1.00  0.00     0.011 A 
ENDBRANCH  22  23
ENDBRANCH   1  22
TORSDOF 4
ENDMDL
MODEL 8
REMARK VINA RESULT:      -7.5      3.508      6.465
REMARK  4 active torsions:
REMARK  status: ('A' for Active; 'I' for Inactive)
REMARK    1  A    between atoms: C_5  and  C_6 
REMARK    2  A    between atoms: C_6  and  N_7 
REMARK    3  A    between atoms: N_10  and  C_12 
REMARK    4  A    between atoms: C_12  and  C_13 
ROOT
HETATM    1  N   UNL     1      42.432 -17.629   3.023  1.00  0.00    -0.406 N 
HETATM    2  C   UNL     1      42.538 -16.453   3.889  1.00  0.00     0.150 C 
HETATM    3  C   UNL     1      42.227 -15.041   3.325  1.00  0.00     0.206 C 
HETATM    4  N   UNL     1      40.734 -14.735   3.265  1.00  0.00    -0.061 N 
HETATM    5  H   UNL     1      40.697 -13.769   2.921  1.00  0.00     0.280 HD
HETATM    6  C   UNL     1      39.966 -15.557   2.267  1.00  0.00     0.242 C 
HETATM    7  C   UNL     1      40.877 -16.393   1.374  1.00  0.00     0.029 C 
HETATM    8  C   UNL     1      41.317 -17.686   2.085  1.00  0.00     0.123 C 
HETATM    9  C   UNL     1      42.800 -14.805   1.924  1.00  0.00     0.035 C 
HETATM   10  C   UNL     1      42.042 -15.561   0.830  1.00  0.00     0.010 C 
ENDROOT
BRANCH   4  11
HETATM   11  C   UNL     1      40.015 -14.667   4.600  1.00  0.00     0.274 C 
BRANCH  11  12
HETATM   12  C   UNL     1      39.831 -13.271   5.128  1.00  0.00    -0.032 A 
HETATM   13  C   UNL     1      39.746 -13.045   6.516  1.00  0.00     0.022 A 
HETATM   14  C   UNL     1      39.573 -11.734   7.001  1.00  0.00    -0.008 A 
HETATM   15  C   UNL     1      39.496 -10.684   6.088  1.00  0.00     0.042 A 
HETATM   16  C   UNL     1      39.457 -11.170   8.301  1.00  0.00     0.030 A 
HETATM   17  N   UNL     1      39.348  -9.523   6.816  1.00  0.00    -0.365 N 
HETATM   18  C   UNL     1      39.580 -10.877   4.707  1.00  0.00     0.031 A 
HETATM   19  H   UNL     1      39.279  -8.596   6.418  1.00  0.00     0.165 HD
HETATM   20  C   UNL     1      39.319  -9.809   8.155  1.00  0.00     0.089 A 
HETATM   21  C   UNL     1      39.748 -12.186   4.244  1.00  0.00     0.011 A 
ENDBRANCH  11  12
ENDBRANCH   4  11
BRANCH   1  22
HETATM   22  C   UNL     1      43.699 -18.116   2.448  1.00  0.00     0.157 C 
BRANCH  22  23
HETATM   23  C   UNL     1      44.002 -19.563   2.741  1.00  0.00    -0.023 A 
HETATM   24  C   UNL     1      44.506 -19.965   3.975  1.00  0.00     0.125 A 
HETATM   25  N   UNL     1      44.791 -21.247   4.299  1.00  0.00    -0.273 NA
HETATM   26  C   UNL     1      44.532 -22.184   3.362  1.00  0.00     0.116 A 
HETATM   27  C   UNL     1      44.008 -21.895   2.113  1.00  0.00     0.020 A 
HETATM   28  C   UNL     1      43.741 -20.565   1.801  1.00  0.00     0.011 A 
ENDBRANCH  22  23
ENDBRANCH   1  22
TORSDOF 4
ENDMDL
MODEL 9
REMARK VINA RESULT:      -7.5      4.181      5.594
REMARK  4 active torsions:
REMARK  status: ('A' for Active; 'I' for Inactive)
REMARK    1  A    between atoms: C_5  and  C_6 
REMARK    2  A    between atoms: C_6  and  N_7 
REMARK    3  A    between atoms: N_10  and  C_12 
REMARK    4  A    between atoms: C_12  and  C_13 
ROOT
HETATM    1  N   UNL     1      43.289 -17.725   4.705  1.00  0.00    -0.406 N 
HETATM    2  C   UNL     1      42.137 -17.798   5.606  1.00  0.00     0.150 C 
HETATM    3  C   UNL     1      42.048 -16.852   6.832  1.00  0.00     0.206 C 
HETATM    4  N   UNL     1      41.551 -15.454   6.475  1.00  0.00    -0.061 N 
HETATM    5  H   UNL     1      41.504 -14.973   7.381  1.00  0.00     0.280 HD
HETATM    6  C   UNL     1      42.499 -14.649   5.631  1.00  0.00     0.242 C 
HETATM    7  C   UNL     1      43.856 -15.325   5.470  1.00  0.00     0.029 C 
HETATM    8  C   UNL     1      43.812 -16.406   4.372  1.00  0.00     0.123 C 
HETATM    9  C   UNL     1      43.378 -16.689   7.574  1.00  0.00     0.035 C 
HETATM   10  C   UNL     1      44.391 -15.831   6.812  1.00  0.00     0.010 C 
ENDROOT
BRANCH   4  11
HETATM   11  C   UNL     1      40.129 -15.368   5.952  1.00  0.00     0.274 C 
BRANCH  11  12
HETATM   12  C   UNL     1      39.792 -14.055   5.301  1.00  0.00    -0.032 A 
HETATM   13  C   UNL     1      39.715 -13.960   3.897  1.00  0.00     0.022 A 
HETATM   14  C   UNL     1      39.399 -12.727   3.296  1.00  0.00    -0.008 A 
HETATM   15  C   UNL     1      39.162 -11.622   4.113  1.00  0.00     0.042 A 
HETATM   16  C   UNL     1      39.240 -12.296   1.951  1.00  0.00     0.030 A 
HETATM   17  N   UNL     1      38.862 -10.562   3.285  1.00  0.00    -0.365 N 
HETATM   18  C   UNL     1      39.228 -11.686   5.507  1.00  0.00     0.031 A 
HETATM   19  H   UNL     1      38.629  -9.629   3.601  1.00  0.00     0.165 HD
HETATM   20  C   UNL     1      38.910 -10.961   1.976  1.00  0.00     0.089 A 
HETATM   21  C   UNL     1      39.547 -12.920   6.085  1.00  0.00     0.011 A 
ENDBRANCH  11  12
ENDBRANCH   4  11
BRANCH   1  22
HETATM   22  C   UNL     1      44.347 -18.726   4.937  1.00  0.00     0.157 C 
BRANCH  22  23
HETATM   23  C   UNL     1      44.318 -19.897   3.990  1.00  0.00    -0.023 A 
HETATM   24  C   UNL     1      44.731 -21.166   4.389  1.00  0.00     0.125 A 
HETATM   25  N   UNL     1      44.721 -22.256   3.589  1.00  0.00    -0.273 NA
HETATM   26  C   UNL     1      44.246 -22.088   2.336  1.00  0.00     0.116 A 
HETATM   27  C   UNL     1      43.788 -20.876   1.847  1.00  0.00     0.020 A 
HETATM   28  C   UNL     1      43.826 -19.768   2.687  1.00  0.00     0.011 A 
ENDBRANCH  22  23
ENDBRANCH   1  22
TORSDOF 4
ENDMDL
MODEL 10
REMARK VINA RESULT:      -7.4      3.052      3.983
REMARK  4 active torsions:
REMARK  status: ('A' for Active; 'I' for Inactive)
REMARK    1  A    between atoms: C_5  and  C_6 
REMARK    2  A    between atoms: C_6  and  N_7 
REMARK    3  A    between atoms: N_10  and  C_12 
REMARK    4  A    between atoms: C_12  and  C_13 
ROOT
HETATM    1  N   UNL     1      43.036 -17.950   4.203  1.00  0.00    -0.406 N 
HETATM    2  C   UNL     1      42.910 -16.495   4.314  1.00  0.00     0.150 C 
HETATM    3  C   UNL     1      42.818 -15.623   3.034  1.00  0.00     0.206 C 
HETATM    4  N   UNL     1      41.419 -15.596   2.426  1.00  0.00    -0.061 N 
HETATM    5  H   UNL     1      41.511 -14.953   1.631  1.00  0.00     0.280 HD
HETATM    6  C   UNL     1      40.963 -16.905   1.846  1.00  0.00     0.242 C 
HETATM    7  C   UNL     1      42.077 -17.946   1.806  1.00  0.00     0.029 C 
HETATM    8  C   UNL     1      42.251 -18.626   3.177  1.00  0.00     0.123 C 
HETATM    9  C   UNL     1      43.789 -16.056   1.931  1.00  0.00     0.035 C 
HETATM   10  C   UNL     1      43.372 -17.357   1.240  1.00  0.00     0.010 C 
ENDROOT
BRANCH   4  11
HETATM   11  C   UNL     1      40.337 -14.957   3.278  1.00  0.00     0.274 C 
BRANCH  11  12
HETATM   12  C   UNL     1      39.335 -14.153   2.496  1.00  0.00    -0.032 A 
HETATM   13  C   UNL     1      39.188 -12.774   2.743  1.00  0.00     0.022 A 
HETATM   14  C   UNL     1      38.247 -12.029   2.007  1.00  0.00    -0.008 A 
HETATM   15  C   UNL     1      37.482 -12.679   1.040  1.00  0.00     0.042 A 
HETATM   16  C   UNL     1      37.857 -10.661   2.000  1.00  0.00     0.030 A 
HETATM   17  N   UNL     1      36.665 -11.731   0.463  1.00  0.00    -0.365 N 
HETATM   18  C   UNL     1      37.607 -14.045   0.771  1.00  0.00     0.031 A 
HETATM   19  H   UNL     1      36.007 -11.912  -0.285  1.00  0.00     0.165 HD
HETATM   20  C   UNL     1      36.883 -10.509   1.040  1.00  0.00     0.089 A 
HETATM   21  C   UNL     1      38.546 -14.768   1.516  1.00  0.00     0.011 A 
ENDBRANCH  11  12
ENDBRANCH   4  11
BRANCH   1  22
HETATM   22  C   UNL     1      44.404 -18.485   4.332  1.00  0.00     0.157 C 
BRANCH  22  23
HETATM   23  C   UNL     1      44.515 -19.973   4.127  1.00  0.00    -0.023 A 
HETATM   24  C   UNL     1      44.616 -20.851   5.204  1.00  0.00     0.125 A 
HETATM   25  N   UNL     1      44.711 -22.194   5.085  1.00  0.00    -0.273 NA
HETATM   26  C   UNL     1      44.669 -22.699   3.833  1.00  0.00     0.116 A 
HETATM   27  C   UNL     1      44.546 -21.918   2.696  1.00  0.00     0.020 A 
HETATM   28  C   UNL     1      44.467 -20.537   2.848  1.00  0.00     0.011 A 
ENDBRANCH  22  23
ENDBRANCH   1  22
TORSDOF 4
ENDMDL
