MODEL 1
REMARK VINA RESULT:      -8.6      0.000      0.000
REMARK  11 active torsions:
REMARK  status: ('A' for Active; 'I' for Inactive)
REMARK    1  A    between atoms: C_4  and  C_5 
REMARK       I    between atoms: C_5  and  N_6 
REMARK    2  A    between atoms: N_6  and  C_7 
REMARK    3  A    between atoms: C_7  and  C_8 
REMARK    4  A    between atoms: C_8  and  C_9 
REMARK    5  A    between atoms: C_9  and  C_10 
REMARK    6  A    between atoms: C_10  and  C_11 
REMARK    7  A    between atoms: C_11  and  C_12 
REMARK       I    between atoms: C_12  and  N_13 
REMARK    8  A    between atoms: N_13  and  N_14 
REMARK    9  A    between atoms: C_15  and  C_16 
REMARK   10  A    between atoms: C_17  and  O_18 
REMARK   11  A    between atoms: C_20  and  O_21 
ROOT
HETATM    1  C   UNL     1      45.453 -12.006   8.833  1.00  0.00     0.237 C 
HETATM    2  N   UNL     1      44.489 -12.398   9.753  1.00  0.00    -0.247 N 
HETATM    3  O   UNL     1      46.149 -11.001   8.946  1.00  0.00    -0.272 OA
HETATM    4  H   UNL     1      43.937 -13.237   9.607  1.00  0.00     0.192 HD
ENDROOT
BRANCH   1   5
HETATM    5  C   UNL     1      45.562 -12.966   7.662  1.00  0.00     0.105 C 
BRANCH   5   6
HETATM    6  C   UNL     1      44.344 -13.882   7.571  1.00  0.00     0.009 C 
BRANCH   6   7
HETATM    7  C   UNL     1      44.620 -15.126   6.727  1.00  0.00     0.002 C 
BRANCH   7   8
HETATM    8  C   UNL     1      43.463 -16.121   6.835  1.00  0.00     0.020 C 
BRANCH   8   9
HETATM    9  C   UNL     1      42.763 -16.324   5.494  1.00  0.00     0.123 C 
BRANCH   9  10
HETATM   10  N   UNL     1      42.995 -17.662   4.984  1.00  0.00    -0.357 N 
HETATM   11  C   UNL     1      43.591 -17.873   3.756  1.00  0.00     0.251 C 
HETATM   12  O   UNL     1      43.908 -16.955   3.006  1.00  0.00    -0.268 OA
HETATM   13  H   UNL     1      42.919 -18.423   5.641  1.00  0.00     0.162 HD
BRANCH  11  14
HETATM   14  C   UNL     1      43.870 -19.289   3.366  1.00  0.00     0.032 A 
HETATM   15  C   UNL     1      44.602 -20.173   4.170  1.00  0.00     0.017 A 
HETATM   16  C   UNL     1      44.825 -21.488   3.748  1.00  0.00     0.001 A 
HETATM   17  C   UNL     1      44.308 -21.932   2.532  1.00  0.00     0.000 A 
HETATM   18  C   UNL     1      43.565 -21.065   1.734  1.00  0.00     0.001 A 
HETATM   19  C   UNL     1      43.346 -19.750   2.149  1.00  0.00     0.017 A 
ENDBRANCH  11  14
ENDBRANCH   9  10
ENDBRANCH   8   9
ENDBRANCH   7   8
ENDBRANCH   6   7
ENDBRANCH   5   6
ENDBRANCH   1   5
BRANCH   2  20
HETATM   20  N   UNL     1      44.285 -11.629  10.853  1.00  0.00    -0.184 NA
HETATM   21  C   UNL     1      43.086 -11.610  11.338  1.00  0.00     0.153 C 
BRANCH  21  22
HETATM   22  C   UNL     1      42.779 -10.794  12.531  1.00  0.00     0.016 A 
HETATM   23  C   UNL     1      41.624 -11.004  13.298  1.00  0.00     0.080 A 
HETATM   24  C   UNL     1      41.369 -10.216  14.419  1.00  0.00     0.074 A 
HETATM   25  C   UNL     1      42.273  -9.218  14.767  1.00  0.00     0.068 A 
HETATM   26  C   UNL     1      43.422  -8.996  14.014  1.00  0.00     0.037 A 
HETATM   27  C   UNL     1      43.680  -9.787  12.891  1.00  0.00     0.018 A 
BRANCH  23  28
HETATM   28  O   UNL     1      40.693 -11.967  13.015  1.00  0.00    -0.360 OA
HETATM   29  H   UNL     1      40.373 -12.355  13.862  1.00  0.00     0.217 HD
ENDBRANCH  23  28
BRANCH  25  30
HETATM   30  O   UNL     1      42.064  -8.423  15.856  1.00  0.00    -0.361 OA
HETATM   31  H   UNL     1      42.836  -7.842  15.966  1.00  0.00     0.217 HD
ENDBRANCH  25  30
ENDBRANCH  21  22
ENDBRANCH   2  20
TORSDOF 11
ENDMDL
MODEL 2
REMARK VINA RESULT:      -8.4      2.560     11.531
REMARK  11 active torsions:
REMARK  status: ('A' for Active; 'I' for Inactive)
REMARK    1  A    between atoms: C_4  and  C_5 
REMARK       I    between atoms: C_5  and  N_6 
REMARK    2  A    between atoms: N_6  and  C_7 
REMARK    3  A    between atoms: C_7  and  C_8 
REMARK    4  A    between atoms: C_8  and  C_9 
REMARK    5  A    between atoms: C_9  and  C_10 
REMARK    6  A    between atoms: C_10  and  C_11 
REMARK    7  A    between atoms: C_11  and  C_12 
REMARK       I    between atoms: C_12  and  N_13 
REMARK    8  A    between atoms: N_13  and  N_14 
REMARK    9  A    between atoms: C_15  and  C_16 
REMARK   10  A    between atoms: C_17  and  O_18 
REMARK   11  A    between atoms: C_20  and  O_21 
ROOT
HETATM    1  C   UNL     1      41.491 -15.599   4.905  1.00  0.00     0.237 C 
HETATM    2  N   UNL     1      42.601 -16.089   4.229  1.00  0.00    -0.247 N 
HETATM    3  O   UNL     1      40.749 -16.281   5.606  1.00  0.00    -0.272 OA
HETATM    4  H   UNL     1      43.178 -15.481   3.659  1.00  0.00     0.192 HD
ENDROOT
BRANCH   1   5
HETATM    5  C   UNL     1      41.294 -14.108   4.692  1.00  0.00     0.105 C 
BRANCH   5   6
HETATM    6  C   UNL     1      42.603 -13.339   4.860  1.00  0.00     0.009 C 
BRANCH   6   7
HETATM    7  C   UNL     1      43.004 -13.197   6.327  1.00  0.00     0.002 C 
BRANCH   7   8
HETATM    8  C   UNL     1      44.228 -14.059   6.641  1.00  0.00     0.020 C 
BRANCH   8   9
HETATM    9  C   UNL     1      45.146 -13.390   7.659  1.00  0.00     0.123 C 
BRANCH   9  10
HETATM   10  N   UNL     1      44.379 -12.657   8.648  1.00  0.00    -0.357 N 
HETATM   11  C   UNL     1      44.844 -11.476   9.193  1.00  0.00     0.251 C 
HETATM   12  O   UNL     1      45.944 -11.007   8.918  1.00  0.00    -0.268 OA
HETATM   13  H   UNL     1      43.409 -12.910   8.756  1.00  0.00     0.162 HD
BRANCH  11  14
HETATM   14  C   UNL     1      43.935 -10.751  10.133  1.00  0.00     0.032 A 
HETATM   15  C   UNL     1      42.674 -10.268   9.757  1.00  0.00     0.017 A 
HETATM   16  C   UNL     1      41.869  -9.601  10.686  1.00  0.00     0.001 A 
HETATM   17  C   UNL     1      42.310  -9.425  11.996  1.00  0.00     0.000 A 
HETATM   18  C   UNL     1      43.555  -9.916  12.384  1.00  0.00     0.001 A 
HETATM   19  C   UNL     1      44.364 -10.576  11.457  1.00  0.00     0.017 A 
ENDBRANCH  11  14
ENDBRANCH   9  10
ENDBRANCH   8   9
ENDBRANCH   7   8
ENDBRANCH   6   7
ENDBRANCH   5   6
ENDBRANCH   1   5
BRANCH   2  20
HETATM   20  N   UNL     1      42.896 -17.411   4.332  1.00  0.00    -0.184 NA
HETATM   21  C   UNL     1      43.596 -17.929   3.375  1.00  0.00     0.153 C 
BRANCH  21  22
HETATM   22  C   UNL     1      43.956 -19.361   3.409  1.00  0.00     0.016 A 
HETATM   23  C   UNL     1      44.517 -19.961   4.546  1.00  0.00     0.080 A 
HETATM   24  C   UNL     1      44.842 -21.315   4.542  1.00  0.00     0.074 A 
HETATM   25  C   UNL     1      44.604 -22.068   3.397  1.00  0.00     0.068 A 
HETATM   26  C   UNL     1      44.049 -21.487   2.260  1.00  0.00     0.037 A 
HETATM   27  C   UNL     1      43.721 -20.129   2.263  1.00  0.00     0.018 A 
BRANCH  23  28
HETATM   28  O   UNL     1      44.779 -19.282   5.706  1.00  0.00    -0.360 OA
HETATM   29  H   UNL     1      45.663 -19.559   6.041  1.00  0.00     0.217 HD
ENDBRANCH  23  28
BRANCH  25  30
HETATM   30  O   UNL     1      44.906 -23.397   3.347  1.00  0.00    -0.361 OA
HETATM   31  H   UNL     1      44.109 -23.884   3.077  1.00  0.00     0.217 HD
ENDBRANCH  25  30
ENDBRANCH  21  22
ENDBRANCH   2  20
TORSDOF 11
ENDMDL
MODEL 3
REMARK VINA RESULT:      -8.2      5.795      7.308
REMARK  11 active torsions:
REMARK  status: ('A' for Active; 'I' for Inactive)
REMARK    1  A    between atoms: C_4  and  C_5 
REMARK       I    between atoms: C_5  and  N_6 
REMARK    2  A    between atoms: N_6  and  C_7 
REMARK    3  A    between atoms: C_7  and  C_8 
REMARK    4  A    between atoms: C_8  and  C_9 
REMARK    5  A    between atoms: C_9  and  C_10 
REMARK    6  A    between atoms: C_10  and  C_11 
REMARK    7  A    between atoms: C_11  and  C_12 
REMARK       I    between atoms: C_12  and  N_13 
REMARK    8  A    between atoms: N_13  and  N_14 
REMARK    9  A    between atoms: C_15  and  C_16 
REMARK   10  A    between atoms: C_17  and  O_18 
REMARK   11  A    between atoms: C_20  and  O_21 
ROOT
HETATM    1  C   UNL     1      39.722 -13.762   2.338  1.00  0.00     0.237 C 
HETATM    2  N   UNL     1      40.665 -13.272   3.233  1.00  0.00    -0.247 N 
HETATM    3  O   UNL     1      39.098 -14.807   2.494  1.00  0.00    -0.272 OA
HETATM    4  H   UNL     1      41.156 -12.403   3.052  1.00  0.00     0.192 HD
ENDROOT
BRANCH   1   5
HETATM    5  C   UNL     1      39.534 -12.852   1.137  1.00  0.00     0.105 C 
BRANCH   5   6
HETATM    6  C   UNL     1      40.806 -12.763   0.297  1.00  0.00     0.009 C 
BRANCH   6   7
HETATM    7  C   UNL     1      41.021 -14.011  -0.558  1.00  0.00     0.002 C 
BRANCH   7   8
HETATM    8  C   UNL     1      41.999 -14.971   0.121  1.00  0.00     0.020 C 
BRANCH   8   9
HETATM    9  C   UNL     1      41.445 -16.392   0.186  1.00  0.00     0.123 C 
BRANCH   9  10
HETATM   10  N   UNL     1      42.369 -17.279   0.866  1.00  0.00    -0.357 N 
HETATM   11  C   UNL     1      42.110 -17.755   2.137  1.00  0.00     0.251 C 
HETATM   12  O   UNL     1      41.122 -17.419   2.782  1.00  0.00    -0.268 OA
HETATM   13  H   UNL     1      43.085 -17.714   0.306  1.00  0.00     0.162 HD
BRANCH  11  14
HETATM   14  C   UNL     1      43.080 -18.737   2.711  1.00  0.00     0.032 A 
HETATM   15  C   UNL     1      43.574 -19.833   1.991  1.00  0.00     0.017 A 
HETATM   16  C   UNL     1      44.484 -20.714   2.585  1.00  0.00     0.001 A 
HETATM   17  C   UNL     1      44.916 -20.500   3.892  1.00  0.00     0.000 A 
HETATM   18  C   UNL     1      44.443 -19.403   4.611  1.00  0.00     0.001 A 
HETATM   19  C   UNL     1      43.529 -18.526   4.023  1.00  0.00     0.017 A 
ENDBRANCH  11  14
ENDBRANCH   9  10
ENDBRANCH   8   9
ENDBRANCH   7   8
ENDBRANCH   6   7
ENDBRANCH   5   6
ENDBRANCH   1   5
BRANCH   2  20
HETATM   20  N   UNL     1      40.933 -13.988   4.355  1.00  0.00    -0.184 NA
HETATM   21  C   UNL     1      42.092 -14.560   4.420  1.00  0.00     0.153 C 
BRANCH  21  22
HETATM   22  C   UNL     1      42.460 -15.360   5.606  1.00  0.00     0.016 A 
HETATM   23  C   UNL     1      41.640 -16.388   6.094  1.00  0.00     0.080 A 
HETATM   24  C   UNL     1      42.021 -17.124   7.213  1.00  0.00     0.074 A 
HETATM   25  C   UNL     1      43.225 -16.827   7.844  1.00  0.00     0.068 A 
HETATM   26  C   UNL     1      44.049 -15.808   7.373  1.00  0.00     0.037 A 
HETATM   27  C   UNL     1      43.668 -15.071   6.250  1.00  0.00     0.018 A 
BRANCH  23  28
HETATM   28  O   UNL     1      40.444 -16.734   5.524  1.00  0.00    -0.360 OA
HETATM   29  H   UNL     1      39.855 -15.944   5.522  1.00  0.00     0.217 HD
ENDBRANCH  23  28
BRANCH  25  30
HETATM   30  O   UNL     1      43.639 -17.520   8.943  1.00  0.00    -0.361 OA
HETATM   31  H   UNL     1      43.867 -18.425   8.669  1.00  0.00     0.217 HD
ENDBRANCH  25  30
ENDBRANCH  21  22
ENDBRANCH   2  20
TORSDOF 11
ENDMDL
MODEL 4
REMARK VINA RESULT:      -8.1      5.897      9.433
REMARK  11 active torsions:
REMARK  status: ('A' for Active; 'I' for Inactive)
REMARK    1  A    between atoms: C_4  and  C_5 
REMARK       I    between atoms: C_5  and  N_6 
REMARK    2  A    between atoms: N_6  and  C_7 
REMARK    3  A    between atoms: C_7  and  C_8 
REMARK    4  A    between atoms: C_8  and  C_9 
REMARK    5  A    between atoms: C_9  and  C_10 
REMARK    6  A    between atoms: C_10  and  C_11 
REMARK    7  A    between atoms: C_11  and  C_12 
REMARK       I    between atoms: C_12  and  N_13 
REMARK    8  A    between atoms: N_13  and  N_14 
REMARK    9  A    between atoms: C_15  and  C_16 
REMARK   10  A    between atoms: C_17  and  O_18 
REMARK   11  A    between atoms: C_20  and  O_21 
ROOT
HETATM    1  C   UNL     1      43.283 -13.938   4.266  1.00  0.00     0.237 C 
HETATM    2  N   UNL     1      42.146 -14.527   3.726  1.00  0.00    -0.247 N 
HETATM    3  O   UNL     1      44.270 -13.613   3.613  1.00  0.00    -0.272 OA
HETATM    4  H   UNL     1      41.359 -14.780   4.313  1.00  0.00     0.192 HD
ENDROOT
BRANCH   1   5
HETATM    5  C   UNL     1      43.171 -13.727   5.765  1.00  0.00     0.105 C 
BRANCH   5   6
HETATM    6  C   UNL     1      44.444 -14.161   6.489  1.00  0.00     0.009 C 
BRANCH   6   7
HETATM    7  C   UNL     1      44.521 -15.677   6.661  1.00  0.00     0.002 C 
BRANCH   7   8
HETATM    8  C   UNL     1      43.568 -16.147   7.762  1.00  0.00     0.020 C 
BRANCH   8   9
HETATM    9  C   UNL     1      42.481 -17.069   7.216  1.00  0.00     0.123 C 
BRANCH   9  10
HETATM   10  N   UNL     1      43.039 -18.038   6.292  1.00  0.00    -0.357 N 
HETATM   11  C   UNL     1      42.622 -18.104   4.977  1.00  0.00     0.251 C 
HETATM   12  O   UNL     1      41.729 -17.394   4.527  1.00  0.00    -0.268 OA
HETATM   13  H   UNL     1      43.889 -18.502   6.571  1.00  0.00     0.162 HD
BRANCH  11  14
HETATM   14  C   UNL     1      43.327 -19.075   4.084  1.00  0.00     0.032 A 
HETATM   15  C   UNL     1      44.288 -19.983   4.549  1.00  0.00     0.017 A 
HETATM   16  C   UNL     1      44.909 -20.868   3.662  1.00  0.00     0.001 A 
HETATM   17  C   UNL     1      44.565 -20.864   2.312  1.00  0.00     0.000 A 
HETATM   18  C   UNL     1      43.598 -19.976   1.842  1.00  0.00     0.001 A 
HETATM   19  C   UNL     1      42.982 -19.086   2.724  1.00  0.00     0.017 A 
ENDBRANCH  11  14
ENDBRANCH   9  10
ENDBRANCH   8   9
ENDBRANCH   7   8
ENDBRANCH   6   7
ENDBRANCH   5   6
ENDBRANCH   1   5
BRANCH   2  20
HETATM   20  N   UNL     1      42.110 -14.773   2.391  1.00  0.00    -0.184 NA
HETATM   21  C   UNL     1      41.653 -13.829   1.635  1.00  0.00     0.153 C 
BRANCH  21  22
HETATM   22  C   UNL     1      41.576 -14.019   0.172  1.00  0.00     0.016 A 
HETATM   23  C   UNL     1      41.082 -15.201  -0.399  1.00  0.00     0.080 A 
HETATM   24  C   UNL     1      41.022 -15.344  -1.783  1.00  0.00     0.074 A 
HETATM   25  C   UNL     1      41.460 -14.302  -2.594  1.00  0.00     0.068 A 
HETATM   26  C   UNL     1      41.954 -13.123  -2.042  1.00  0.00     0.037 A 
HETATM   27  C   UNL     1      42.013 -12.978  -0.654  1.00  0.00     0.018 A 
BRANCH  23  28
HETATM   28  O   UNL     1      40.636 -16.266   0.336  1.00  0.00    -0.360 OA
HETATM   29  H   UNL     1      41.311 -16.983   0.294  1.00  0.00     0.217 HD
ENDBRANCH  23  28
BRANCH  25  30
HETATM   30  O   UNL     1      41.419 -14.397  -3.954  1.00  0.00    -0.361 OA
HETATM   31  H   UNL     1      41.103 -13.551  -4.313  1.00  0.00     0.217 HD
ENDBRANCH  25  30
ENDBRANCH  21  22
ENDBRANCH   2  20
TORSDOF 11
ENDMDL
MODEL 5
REMARK VINA RESULT:      -8.1      5.642      7.087
REMARK  11 active torsions:
REMARK  status: ('A' for Active; 'I' for Inactive)
REMARK    1  A    between atoms: C_4  and  C_5 
REMARK       I    between atoms: C_5  and  N_6 
REMARK    2  A    between atoms: N_6  and  C_7 
REMARK    3  A    between atoms: C_7  and  C_8 
REMARK    4  A    between atoms: C_8  and  C_9 
REMARK    5  A    between atoms: C_9  and  C_10 
REMARK    6  A    between atoms: C_10  and  C_11 
REMARK    7  A    between atoms: C_11  and  C_12 
REMARK       I    between atoms: C_12  and  N_13 
REMARK    8  A    between atoms: N_13  and  N_14 
REMARK    9  A    between atoms: C_15  and  C_16 
REMARK   10  A    between atoms: C_17  and  O_18 
REMARK   11  A    between atoms: C_20  and  O_21 
ROOT
HETATM    1  C   UNL     1      41.934 -13.645   2.916  1.00  0.00     0.237 C 
HETATM    2  N   UNL     1      42.880 -14.662   2.918  1.00  0.00    -0.247 N 
HETATM    3  O   UNL     1      41.441 -13.156   3.928  1.00  0.00    -0.272 OA
HETATM    4  H   UNL     1      43.251 -15.034   2.050  1.00  0.00     0.192 HD
ENDROOT
BRANCH   1   5
HETATM    5  C   UNL     1      41.574 -13.190   1.513  1.00  0.00     0.105 C 
BRANCH   5   6
HETATM    6  C   UNL     1      40.925 -14.314   0.707  1.00  0.00     0.009 C 
BRANCH   6   7
HETATM    7  C   UNL     1      39.818 -15.019   1.489  1.00  0.00     0.002 C 
BRANCH   7   8
HETATM    8  C   UNL     1      40.188 -16.480   1.755  1.00  0.00     0.020 C 
BRANCH   8   9
HETATM    9  C   UNL     1      41.344 -16.941   0.871  1.00  0.00     0.123 C 
BRANCH   9  10
HETATM   10  N   UNL     1      41.944 -18.154   1.393  1.00  0.00    -0.357 N 
HETATM   11  C   UNL     1      43.299 -18.237   1.647  1.00  0.00     0.251 C 
HETATM   12  O   UNL     1      44.078 -17.321   1.401  1.00  0.00    -0.268 OA
HETATM   13  H   UNL     1      41.320 -18.848   1.775  1.00  0.00     0.162 HD
BRANCH  11  14
HETATM   14  C   UNL     1      43.802 -19.499   2.272  1.00  0.00     0.032 A 
HETATM   15  C   UNL     1      44.573 -19.518   3.443  1.00  0.00     0.017 A 
HETATM   16  C   UNL     1      45.009 -20.733   3.979  1.00  0.00     0.001 A 
HETATM   17  C   UNL     1      44.668 -21.935   3.361  1.00  0.00     0.000 A 
HETATM   18  C   UNL     1      43.888 -21.928   2.207  1.00  0.00     0.001 A 
HETATM   19  C   UNL     1      43.457 -20.715   1.665  1.00  0.00     0.017 A 
ENDBRANCH  11  14
ENDBRANCH   9  10
ENDBRANCH   8   9
ENDBRANCH   7   8
ENDBRANCH   6   7
ENDBRANCH   5   6
ENDBRANCH   1   5
BRANCH   2  20
HETATM   20  N   UNL     1      43.295 -15.166   4.109  1.00  0.00    -0.184 NA
HETATM   21  C   UNL     1      42.660 -16.200   4.558  1.00  0.00     0.153 C 
BRANCH  21  22
HETATM   22  C   UNL     1      43.046 -16.806   5.849  1.00  0.00     0.016 A 
HETATM   23  C   UNL     1      43.381 -16.027   6.966  1.00  0.00     0.080 A 
HETATM   24  C   UNL     1      43.738 -16.633   8.168  1.00  0.00     0.074 A 
HETATM   25  C   UNL     1      43.760 -18.022   8.248  1.00  0.00     0.068 A 
HETATM   26  C   UNL     1      43.433 -18.809   7.147  1.00  0.00     0.037 A 
HETATM   27  C   UNL     1      43.073 -18.201   5.942  1.00  0.00     0.018 A 
BRANCH  23  28
HETATM   28  O   UNL     1      43.380 -14.658   6.959  1.00  0.00    -0.360 OA
HETATM   29  H   UNL     1      42.685 -14.340   7.582  1.00  0.00     0.217 HD
ENDBRANCH  23  28
BRANCH  25  30
HETATM   30  O   UNL     1      44.103 -18.659   9.404  1.00  0.00    -0.361 OA
HETATM   31  H   UNL     1      43.288 -18.910   9.871  1.00  0.00     0.217 HD
ENDBRANCH  25  30
ENDBRANCH  21  22
ENDBRANCH   2  20
TORSDOF 11
ENDMDL
MODEL 6
REMARK VINA RESULT:      -8.0      5.788      8.302
REMARK  11 active torsions:
REMARK  status: ('A' for Active; 'I' for Inactive)
REMARK    1  A    between atoms: C_4  and  C_5 
REMARK       I    between atoms: C_5  and  N_6 
REMARK    2  A    between atoms: N_6  and  C_7 
REMARK    3  A    between atoms: C_7  and  C_8 
REMARK    4  A    between atoms: C_8  and  C_9 
REMARK    5  A    between atoms: C_9  and  C_10 
REMARK    6  A    between atoms: C_10  and  C_11 
REMARK    7  A    between atoms: C_11  and  C_12 
REMARK       I    between atoms: C_12  and  N_13 
REMARK    8  A    between atoms: N_13  and  N_14 
REMARK    9  A    between atoms: C_15  and  C_16 
REMARK   10  A    between atoms: C_17  and  O_18 
REMARK   11  A    between atoms: C_20  and  O_21 
ROOT
HETATM    1  C   UNL     1      43.275 -19.139   2.221  1.00  0.00     0.237 C 
HETATM    2  N   UNL     1      42.416 -18.705   3.223  1.00  0.00    -0.247 N 
HETATM    3  O   UNL     1      44.177 -18.460   1.740  1.00  0.00    -0.272 OA
HETATM    4  H   UNL     1      41.683 -19.307   3.582  1.00  0.00     0.192 HD
ENDROOT
BRANCH   1   5
HETATM    5  C   UNL     1      42.983 -20.564   1.784  1.00  0.00     0.105 C 
BRANCH   5   6
HETATM    6  C   UNL     1      44.267 -21.376   1.626  1.00  0.00     0.009 C 
BRANCH   6   7
HETATM    7  C   UNL     1      45.088 -21.412   2.914  1.00  0.00     0.002 C 
BRANCH   7   8
HETATM    8  C   UNL     1      44.720 -22.634   3.757  1.00  0.00     0.020 C 
BRANCH   8   9
HETATM    9  C   UNL     1      44.678 -22.303   5.247  1.00  0.00     0.123 C 
BRANCH   9  10
HETATM   10  N   UNL     1      44.562 -20.873   5.458  1.00  0.00    -0.357 N 
HETATM   11  C   UNL     1      43.973 -20.357   6.596  1.00  0.00     0.251 C 
HETATM   12  O   UNL     1      43.471 -21.066   7.463  1.00  0.00    -0.268 OA
HETATM   13  H   UNL     1      45.118 -20.275   4.867  1.00  0.00     0.162 HD
BRANCH  11  14
HETATM   14  C   UNL     1      43.988 -18.871   6.760  1.00  0.00     0.032 A 
HETATM   15  C   UNL     1      45.037 -18.062   6.302  1.00  0.00     0.017 A 
HETATM   16  C   UNL     1      44.988 -16.676   6.483  1.00  0.00     0.001 A 
HETATM   17  C   UNL     1      43.890 -16.089   7.109  1.00  0.00     0.000 A 
HETATM   18  C   UNL     1      42.835 -16.883   7.553  1.00  0.00     0.001 A 
HETATM   19  C   UNL     1      42.883 -18.268   7.380  1.00  0.00     0.017 A 
ENDBRANCH  11  14
ENDBRANCH   9  10
ENDBRANCH   8   9
ENDBRANCH   7   8
ENDBRANCH   6   7
ENDBRANCH   5   6
ENDBRANCH   1   5
BRANCH   2  20
HETATM   20  N   UNL     1      42.564 -17.446   3.709  1.00  0.00    -0.184 NA
HETATM   21  C   UNL     1      41.481 -16.775   3.932  1.00  0.00     0.153 C 
BRANCH  21  22
HETATM   22  C   UNL     1      41.555 -15.396   4.457  1.00  0.00     0.016 A 
HETATM   23  C   UNL     1      42.602 -14.526   4.118  1.00  0.00     0.080 A 
HETATM   24  C   UNL     1      42.638 -13.232   4.631  1.00  0.00     0.074 A 
HETATM   25  C   UNL     1      41.624 -12.811   5.485  1.00  0.00     0.068 A 
HETATM   26  C   UNL     1      40.580 -13.663   5.833  1.00  0.00     0.037 A 
HETATM   27  C   UNL     1      40.542 -14.961   5.318  1.00  0.00     0.018 A 
BRANCH  23  28
HETATM   28  O   UNL     1      43.631 -14.873   3.285  1.00  0.00    -0.360 OA
HETATM   29  H   UNL     1      43.782 -15.844   3.357  1.00  0.00     0.217 HD
ENDBRANCH  23  28
BRANCH  25  30
HETATM   30  O   UNL     1      41.618 -11.552   6.011  1.00  0.00    -0.361 OA
HETATM   31  H   UNL     1      42.298 -11.504   6.704  1.00  0.00     0.217 HD
ENDBRANCH  25  30
ENDBRANCH  21  22
ENDBRANCH   2  20
TORSDOF 11
ENDMDL
MODEL 7
REMARK VINA RESULT:      -8.0      2.921     11.571
REMARK  11 active torsions:
REMARK  status: ('A' for Active; 'I' for Inactive)
REMARK    1  A    between atoms: C_4  and  C_5 
REMARK       I    between atoms: C_5  and  N_6 
REMARK    2  A    between atoms: N_6  and  C_7 
REMARK    3  A    between atoms: C_7  and  C_8 
REMARK    4  A    between atoms: C_8  and  C_9 
REMARK    5  A    between atoms: C_9  and  C_10 
REMARK    6  A    between atoms: C_10  and  C_11 
REMARK    7  A    between atoms: C_11  and  C_12 
REMARK       I    between atoms: C_12  and  N_13 
REMARK    8  A    between atoms: N_13  and  N_14 
REMARK    9  A    between atoms: C_15  and  C_16 
REMARK   10  A    between atoms: C_17  and  O_18 
REMARK   11  A    between atoms: C_20  and  O_21 
ROOT
HETATM    1  C   UNL     1      43.255 -14.995   4.937  1.00  0.00     0.237 C 
HETATM    2  N   UNL     1      42.793 -15.886   3.978  1.00  0.00    -0.247 N 
HETATM    3  O   UNL     1      43.915 -15.317   5.921  1.00  0.00    -0.272 OA
HETATM    4  H   UNL     1      42.247 -15.566   3.185  1.00  0.00     0.192 HD
ENDROOT
BRANCH   1   5
HETATM    5  C   UNL     1      42.863 -13.560   4.633  1.00  0.00     0.105 C 
BRANCH   5   6
HETATM    6  C   UNL     1      42.214 -12.887   5.841  1.00  0.00     0.009 C 
BRANCH   6   7
HETATM    7  C   UNL     1      40.914 -12.173   5.474  1.00  0.00     0.002 C 
BRANCH   7   8
HETATM    8  C   UNL     1      39.907 -12.256   6.622  1.00  0.00     0.020 C 
BRANCH   8   9
HETATM    9  C   UNL     1      39.792 -10.932   7.373  1.00  0.00     0.123 C 
BRANCH   9  10
HETATM   10  N   UNL     1      40.398 -11.026   8.687  1.00  0.00    -0.357 N 
HETATM   11  C   UNL     1      41.659 -10.519   8.938  1.00  0.00     0.251 C 
HETATM   12  O   UNL     1      42.356 -10.013   8.065  1.00  0.00    -0.268 OA
HETATM   13  H   UNL     1      39.792 -11.263   9.456  1.00  0.00     0.162 HD
BRANCH  11  14
HETATM   14  C   UNL     1      42.153 -10.583  10.348  1.00  0.00     0.032 A 
HETATM   15  C   UNL     1      43.408 -10.095  10.740  1.00  0.00     0.017 A 
HETATM   16  C   UNL     1      43.809 -10.182  12.077  1.00  0.00     0.001 A 
HETATM   17  C   UNL     1      42.959 -10.739  13.030  1.00  0.00     0.000 A 
HETATM   18  C   UNL     1      41.704 -11.211  12.653  1.00  0.00     0.001 A 
HETATM   19  C   UNL     1      41.302 -11.133  11.317  1.00  0.00     0.017 A 
ENDBRANCH  11  14
ENDBRANCH   9  10
ENDBRANCH   8   9
ENDBRANCH   7   8
ENDBRANCH   6   7
ENDBRANCH   5   6
ENDBRANCH   1   5
BRANCH   2  20
HETATM   20  N   UNL     1      43.072 -17.207   4.126  1.00  0.00    -0.184 NA
HETATM   21  C   UNL     1      43.658 -17.794   3.133  1.00  0.00     0.153 C 
BRANCH  21  22
HETATM   22  C   UNL     1      43.993 -19.231   3.212  1.00  0.00     0.016 A 
HETATM   23  C   UNL     1      44.587 -19.795   4.350  1.00  0.00     0.080 A 
HETATM   24  C   UNL     1      44.887 -21.155   4.390  1.00  0.00     0.074 A 
HETATM   25  C   UNL     1      44.590 -21.948   3.286  1.00  0.00     0.068 A 
HETATM   26  C   UNL     1      44.002 -21.403   2.149  1.00  0.00     0.037 A 
HETATM   27  C   UNL     1      43.700 -20.040   2.108  1.00  0.00     0.018 A 
BRANCH  23  28
HETATM   28  O   UNL     1      44.906 -19.076   5.470  1.00  0.00    -0.360 OA
HETATM   29  H   UNL     1      44.177 -18.439   5.654  1.00  0.00     0.217 HD
ENDBRANCH  23  28
BRANCH  25  30
HETATM   30  O   UNL     1      44.865 -23.284   3.280  1.00  0.00    -0.361 OA
HETATM   31  H   UNL     1      45.048 -23.557   2.365  1.00  0.00     0.217 HD
ENDBRANCH  25  30
ENDBRANCH  21  22
ENDBRANCH   2  20
TORSDOF 11
ENDMDL
MODEL 8
REMARK VINA RESULT:      -8.0      1.694      2.040
REMARK  11 active torsions:
REMARK  status: ('A' for Active; 'I' for Inactive)
REMARK    1  A    between atoms: C_4  and  C_5 
REMARK       I    between atoms: C_5  and  N_6 
REMARK    2  A    between atoms: N_6  and  C_7 
REMARK    3  A    between atoms: C_7  and  C_8 
REMARK    4  A    between atoms: C_8  and  C_9 
REMARK    5  A    between atoms: C_9  and  C_10 
REMARK    6  A    between atoms: C_10  and  C_11 
REMARK    7  A    between atoms: C_11  and  C_12 
REMARK       I    between atoms: C_12  and  N_13 
REMARK    8  A    between atoms: N_13  and  N_14 
REMARK    9  A    between atoms: C_15  and  C_16 
REMARK   10  A    between atoms: C_17  and  O_18 
REMARK   11  A    between atoms: C_20  and  O_21 
ROOT
HETATM    1  C   UNL     1      44.015 -12.493   8.425  1.00  0.00     0.237 C 
HETATM    2  N   UNL     1      44.152 -12.559   9.806  1.00  0.00    -0.247 N 
HETATM    3  O   UNL     1      43.247 -11.734   7.841  1.00  0.00    -0.272 OA
HETATM    4  H   UNL     1      44.799 -13.209  10.237  1.00  0.00     0.192 HD
ENDROOT
BRANCH   1   5
HETATM    5  C   UNL     1      44.932 -13.464   7.704  1.00  0.00     0.105 C 
BRANCH   5   6
HETATM    6  C   UNL     1      44.155 -14.367   6.749  1.00  0.00     0.009 C 
BRANCH   6   7
HETATM    7  C   UNL     1      44.552 -15.836   6.893  1.00  0.00     0.002 C 
BRANCH   7   8
HETATM    8  C   UNL     1      43.463 -16.622   7.626  1.00  0.00     0.020 C 
BRANCH   8   9
HETATM    9  C   UNL     1      43.867 -18.077   7.847  1.00  0.00     0.123 C 
BRANCH   9  10
HETATM   10  N   UNL     1      44.149 -18.735   6.585  1.00  0.00    -0.357 N 
HETATM   11  C   UNL     1      44.000 -20.100   6.434  1.00  0.00     0.251 C 
HETATM   12  O   UNL     1      43.677 -20.839   7.359  1.00  0.00    -0.268 OA
HETATM   13  H   UNL     1      44.235 -18.148   5.771  1.00  0.00     0.162 HD
BRANCH  11  14
HETATM   14  C   UNL     1      44.226 -20.666   5.069  1.00  0.00     0.032 A 
HETATM   15  C   UNL     1      44.220 -19.882   3.906  1.00  0.00     0.017 A 
HETATM   16  C   UNL     1      44.442 -20.473   2.658  1.00  0.00     0.001 A 
HETATM   17  C   UNL     1      44.685 -21.842   2.563  1.00  0.00     0.000 A 
HETATM   18  C   UNL     1      44.710 -22.626   3.714  1.00  0.00     0.001 A 
HETATM   19  C   UNL     1      44.482 -22.041   4.962  1.00  0.00     0.017 A 
ENDBRANCH  11  14
ENDBRANCH   9  10
ENDBRANCH   8   9
ENDBRANCH   7   8
ENDBRANCH   6   7
ENDBRANCH   5   6
ENDBRANCH   1   5
BRANCH   2  20
HETATM   20  N   UNL     1      43.388 -11.742  10.577  1.00  0.00    -0.184 NA
HETATM   21  C   UNL     1      43.719 -11.639  11.823  1.00  0.00     0.153 C 
BRANCH  21  22
HETATM   22  C   UNL     1      42.937 -10.774  12.731  1.00  0.00     0.016 A 
HETATM   23  C   UNL     1      41.586 -11.021  13.012  1.00  0.00     0.080 A 
HETATM   24  C   UNL     1      40.881 -10.185  13.875  1.00  0.00     0.074 A 
HETATM   25  C   UNL     1      41.532  -9.101  14.455  1.00  0.00     0.068 A 
HETATM   26  C   UNL     1      42.873  -8.843  14.184  1.00  0.00     0.037 A 
HETATM   27  C   UNL     1      43.581  -9.681  13.320  1.00  0.00     0.018 A 
BRANCH  23  28
HETATM   28  O   UNL     1      40.882 -12.067  12.478  1.00  0.00    -0.360 OA
HETATM   29  H   UNL     1      41.144 -12.174  11.534  1.00  0.00     0.217 HD
ENDBRANCH  23  28
BRANCH  25  30
HETATM   30  O   UNL     1      40.882  -8.257  15.306  1.00  0.00    -0.361 OA
HETATM   31  H   UNL     1      41.353  -8.253  16.156  1.00  0.00     0.217 HD
ENDBRANCH  25  30
ENDBRANCH  21  22
ENDBRANCH   2  20
TORSDOF 11
ENDMDL
MODEL 9
REMARK VINA RESULT:      -7.9      5.921     10.486
REMARK  11 active torsions:
REMARK  status: ('A' for Active; 'I' for Inactive)
REMARK    1  A    between atoms: C_4  and  C_5 
REMARK       I    between atoms: C_5  and  N_6 
REMARK    2  A    between atoms: N_6  and  C_7 
REMARK    3  A    between atoms: C_7  and  C_8 
REMARK    4  A    between atoms: C_8  and  C_9 
REMARK    5  A    between atoms: C_9  and  C_10 
REMARK    6  A    between atoms: C_10  and  C_11 
REMARK    7  A    between atoms: C_11  and  C_12 
REMARK       I    between atoms: C_12  and  N_13 
REMARK    8  A    between atoms: N_13  and  N_14 
REMARK    9  A    between atoms: C_15  and  C_16 
REMARK   10  A    between atoms: C_17  and  O_18 
REMARK   11  A    between atoms: C_20  and  O_21 
ROOT
HETATM    1  C   UNL     1      40.811 -16.099   1.708  1.00  0.00     0.237 C 
HETATM    2  N   UNL     1      42.074 -16.487   1.279  1.00  0.00    -0.247 N 
HETATM    3  O   UNL     1      40.008 -16.845   2.260  1.00  0.00    -0.272 OA
HETATM    4  H   UNL     1      42.698 -15.829   0.823  1.00  0.00     0.192 HD
ENDROOT
BRANCH   1   5
HETATM    5  C   UNL     1      40.528 -14.634   1.426  1.00  0.00     0.105 C 
BRANCH   5   6
HETATM    6  C   UNL     1      41.733 -13.940   0.796  1.00  0.00     0.009 C 
BRANCH   6   7
HETATM    7  C   UNL     1      42.028 -12.590   1.450  1.00  0.00     0.002 C 
BRANCH   7   8
HETATM    8  C   UNL     1      40.965 -12.253   2.498  1.00  0.00     0.020 C 
BRANCH   8   9
HETATM    9  C   UNL     1      41.584 -11.986   3.867  1.00  0.00     0.123 C 
BRANCH   9  10
HETATM   10  N   UNL     1      41.642 -13.201   4.657  1.00  0.00    -0.357 N 
HETATM   11  C   UNL     1      42.825 -13.893   4.831  1.00  0.00     0.251 C 
HETATM   12  O   UNL     1      43.875 -13.557   4.292  1.00  0.00    -0.268 OA
HETATM   13  H   UNL     1      40.854 -13.398   5.254  1.00  0.00     0.162 HD
BRANCH  11  14
HETATM   14  C   UNL     1      42.796 -15.080   5.739  1.00  0.00     0.032 A 
HETATM   15  C   UNL     1      43.795 -15.343   6.686  1.00  0.00     0.017 A 
HETATM   16  C   UNL     1      43.707 -16.469   7.510  1.00  0.00     0.001 A 
HETATM   17  C   UNL     1      42.617 -17.331   7.404  1.00  0.00     0.000 A 
HETATM   18  C   UNL     1      41.610 -17.069   6.477  1.00  0.00     0.001 A 
HETATM   19  C   UNL     1      41.698 -15.949   5.649  1.00  0.00     0.017 A 
ENDBRANCH  11  14
ENDBRANCH   9  10
ENDBRANCH   8   9
ENDBRANCH   7   8
ENDBRANCH   6   7
ENDBRANCH   5   6
ENDBRANCH   1   5
BRANCH   2  20
HETATM   20  N   UNL     1      42.461 -17.775   1.469  1.00  0.00    -0.184 NA
HETATM   21  C   UNL     1      43.213 -18.014   2.493  1.00  0.00     0.153 C 
BRANCH  21  22
HETATM   22  C   UNL     1      43.680 -19.389   2.767  1.00  0.00     0.016 A 
HETATM   23  C   UNL     1      44.373 -19.719   3.941  1.00  0.00     0.080 A 
HETATM   24  C   UNL     1      44.797 -21.026   4.167  1.00  0.00     0.074 A 
HETATM   25  C   UNL     1      44.526 -22.002   3.213  1.00  0.00     0.068 A 
HETATM   26  C   UNL     1      43.841 -21.690   2.042  1.00  0.00     0.037 A 
HETATM   27  C   UNL     1      43.415 -20.379   1.816  1.00  0.00     0.018 A 
BRANCH  23  28
HETATM   28  O   UNL     1      44.674 -18.811   4.921  1.00  0.00    -0.360 OA
HETATM   29  H   UNL     1      43.846 -18.342   5.181  1.00  0.00     0.217 HD
ENDBRANCH  23  28
BRANCH  25  30
HETATM   30  O   UNL     1      44.921 -23.295   3.391  1.00  0.00    -0.361 OA
HETATM   31  H   UNL     1      45.031 -23.707   2.517  1.00  0.00     0.217 HD
ENDBRANCH  25  30
ENDBRANCH  21  22
ENDBRANCH   2  20
TORSDOF 11
ENDMDL
MODEL 10
REMARK VINA RESULT:      -7.9      6.663     10.192
REMARK  11 active torsions:
REMARK  status: ('A' for Active; 'I' for Inactive)
REMARK    1  A    between atoms: C_4  and  C_5 
REMARK       I    between atoms: C_5  and  N_6 
REMARK    2  A    between atoms: N_6  and  C_7 
REMARK    3  A    between atoms: C_7  and  C_8 
REMARK    4  A    between atoms: C_8  and  C_9 
REMARK    5  A    between atoms: C_9  and  C_10 
REMARK    6  A    between atoms: C_10  and  C_11 
REMARK    7  A    between atoms: C_11  and  C_12 
REMARK       I    between atoms: C_12  and  N_13 
REMARK    8  A    between atoms: N_13  and  N_14 
REMARK    9  A    between atoms: C_15  and  C_16 
REMARK   10  A    between atoms: C_17  and  O_18 
REMARK   11  A    between atoms: C_20  and  O_21 
ROOT
HETATM    1  C   UNL     1      41.419 -16.203   3.507  1.00  0.00     0.237 C 
HETATM    2  N   UNL     1      41.979 -16.709   2.341  1.00  0.00    -0.247 N 
HETATM    3  O   UNL     1      41.059 -15.038   3.654  1.00  0.00    -0.272 OA
HETATM    4  H   UNL     1      42.263 -17.681   2.276  1.00  0.00     0.192 HD
ENDROOT
BRANCH   1   5
HETATM    5  C   UNL     1      41.287 -17.256   4.593  1.00  0.00     0.105 C 
BRANCH   5   6
HETATM    6  C   UNL     1      42.034 -16.851   5.862  1.00  0.00     0.009 C 
BRANCH   6   7
HETATM    7  C   UNL     1      43.509 -16.555   5.592  1.00  0.00     0.002 C 
BRANCH   7   8
HETATM    8  C   UNL     1      44.333 -16.697   6.874  1.00  0.00     0.020 C 
BRANCH   8   9
HETATM    9  C   UNL     1      45.222 -17.937   6.842  1.00  0.00     0.123 C 
BRANCH   9  10
HETATM   10  N   UNL     1      45.085 -18.642   5.582  1.00  0.00    -0.357 N 
HETATM   11  C   UNL     1      44.481 -19.883   5.512  1.00  0.00     0.251 C 
HETATM   12  O   UNL     1      44.077 -20.481   6.504  1.00  0.00    -0.268 OA
HETATM   13  H   UNL     1      45.233 -18.110   4.739  1.00  0.00     0.162 HD
BRANCH  11  14
HETATM   14  C   UNL     1      44.305 -20.482   4.153  1.00  0.00     0.032 A 
HETATM   15  C   UNL     1      43.828 -19.755   3.053  1.00  0.00     0.017 A 
HETATM   16  C   UNL     1      43.690 -20.374   1.807  1.00  0.00     0.001 A 
HETATM   17  C   UNL     1      44.039 -21.714   1.646  1.00  0.00     0.000 A 
HETATM   18  C   UNL     1      44.529 -22.440   2.730  1.00  0.00     0.001 A 
HETATM   19  C   UNL     1      44.662 -21.827   3.978  1.00  0.00     0.017 A 
ENDBRANCH  11  14
ENDBRANCH   9  10
ENDBRANCH   8   9
ENDBRANCH   7   8
ENDBRANCH   6   7
ENDBRANCH   5   6
ENDBRANCH   1   5
BRANCH   2  20
HETATM   20  N   UNL     1      42.155 -15.873   1.286  1.00  0.00    -0.184 NA
HETATM   21  C   UNL     1      41.249 -15.899   0.363  1.00  0.00     0.153 C 
BRANCH  21  22
HETATM   22  C   UNL     1      41.370 -15.023  -0.821  1.00  0.00     0.016 A 
HETATM   23  C   UNL     1      41.758 -13.680  -0.717  1.00  0.00     0.080 A 
HETATM   24  C   UNL     1      41.863 -12.885  -1.856  1.00  0.00     0.074 A 
HETATM   25  C   UNL     1      41.576 -13.438  -3.099  1.00  0.00     0.068 A 
HETATM   26  C   UNL     1      41.187 -14.770  -3.219  1.00  0.00     0.037 A 
HETATM   27  C   UNL     1      41.083 -15.568  -2.077  1.00  0.00     0.018 A 
BRANCH  23  28
HETATM   28  O   UNL     1      42.055 -13.070   0.472  1.00  0.00    -0.360 OA
HETATM   29  H   UNL     1      41.220 -12.945   0.980  1.00  0.00     0.217 HD
ENDBRANCH  23  28
BRANCH  25  30
HETATM   30  O   UNL     1      41.666 -12.698  -4.241  1.00  0.00    -0.361 OA
HETATM   31  H   UNL     1      41.887 -11.783  -3.999  1.00  0.00     0.217 HD
ENDBRANCH  25  30
ENDBRANCH  21  22
ENDBRANCH   2  20
TORSDOF 11
ENDMDL
