MODEL 1
REMARK VINA RESULT:      -8.7      0.000      0.000
REMARK  5 active torsions:
REMARK  status: ('A' for Active; 'I' for Inactive)
REMARK    1  A    between atoms: C_3  and  N_4 
REMARK       I    between atoms: N_4  and  C_5 
REMARK    2  A    between atoms: C_5  and  C_6 
REMARK    3  A    between atoms: C_6  and  N_7 
REMARK       I    between atoms: N_7  and  C_8 
REMARK    4  A    between atoms: C_8  and  C_9 
REMARK    5  A    between atoms: C_13  and  C_14 
ROOT
HETATM    1  N   UNL     1      41.453 -12.648   6.174  1.00  0.00    -0.347 N 
HETATM    2  C   UNL     1      40.545 -13.588   5.761  1.00  0.00     0.270 C 
HETATM    3  O   UNL     1      39.397 -13.273   5.460  1.00  0.00    -0.266 OA
HETATM    4  H   UNL     1      42.375 -12.935   6.468  1.00  0.00     0.163 HD
ENDROOT
BRANCH   2   5
HETATM    5  C   UNL     1      40.995 -14.950   5.754  1.00  0.00     0.120 A 
HETATM    6  N   UNL     1      40.180 -15.970   6.169  1.00  0.00    -0.272 N 
HETATM    7  H   UNL     1      39.224 -15.890   6.501  1.00  0.00     0.189 HD
HETATM    8  N   UNL     1      40.744 -17.183   6.108  1.00  0.00    -0.173 NA
HETATM    9  C   UNL     1      41.975 -16.945   5.645  1.00  0.00     0.093 A 
HETATM   10  C   UNL     1      42.177 -15.568   5.390  1.00  0.00     0.071 A 
BRANCH   9  11
HETATM   11  C   UNL     1      42.957 -18.006   5.424  1.00  0.00     0.044 A 
HETATM   12  C   UNL     1      43.261 -18.652   4.237  1.00  0.00     0.041 A 
HETATM   13  C   UNL     1      42.740 -18.463   2.858  1.00  0.00     0.071 C 
HETATM   14  N   UNL     1      44.198 -19.595   4.567  1.00  0.00    -0.278 N 
HETATM   15  C   UNL     1      44.815 -20.584   3.713  1.00  0.00     0.179 C 
HETATM   16  N   UNL     1      44.559 -19.566   5.864  1.00  0.00    -0.177 NA
HETATM   17  C   UNL     1      43.780 -18.620   6.403  1.00  0.00     0.065 A 
HETATM   18  C   UNL     1      43.861 -18.372   7.865  1.00  0.00     0.073 C 
ENDBRANCH   9  11
ENDBRANCH   2   5
BRANCH   1  19
HETATM   19  C   UNL     1      41.188 -11.217   6.083  1.00  0.00     0.226 C 
BRANCH  19  20
HETATM   20  C   UNL     1      41.678 -10.384   7.279  1.00  0.00     0.239 C 
HETATM   21  N   UNL     1      41.638 -11.070   8.480  1.00  0.00    -0.325 N 
HETATM   22  H   UNL     1      41.270 -12.015   8.425  1.00  0.00     0.169 HD
HETATM   23  O   UNL     1      41.963  -9.199   7.124  1.00  0.00    -0.271 OA
BRANCH  21  24
HETATM   24  C   UNL     1      41.975 -10.605   9.772  1.00  0.00     0.040 A 
HETATM   25  C   UNL     1      43.295 -10.800  10.240  1.00  0.00    -0.034 A 
HETATM   26  C   UNL     1      44.363 -11.449   9.399  1.00  0.00     0.050 C 
HETATM   27  C   UNL     1      43.640 -10.372  11.536  1.00  0.00     0.028 A 
HETATM   28  C   UNL     1      42.698  -9.754  12.353  1.00  0.00     0.011 A 
HETATM   29  C   UNL     1      41.404  -9.548  11.892  1.00  0.00     0.021 A 
HETATM   30 BR   UNL     1      43.179  -9.194  14.092  1.00  0.00    -0.051 Br
HETATM   31  C   UNL     1      41.048  -9.969  10.607  1.00  0.00     0.031 A 
ENDBRANCH  21  24
ENDBRANCH  19  20
ENDBRANCH   1  19
TORSDOF 5
ENDMDL
MODEL 2
REMARK VINA RESULT:      -8.7      0.324      1.321
REMARK  5 active torsions:
REMARK  status: ('A' for Active; 'I' for Inactive)
REMARK    1  A    between atoms: C_3  and  N_4 
REMARK       I    between atoms: N_4  and  C_5 
REMARK    2  A    between atoms: C_5  and  C_6 
REMARK    3  A    between atoms: C_6  and  N_7 
REMARK       I    between atoms: N_7  and  C_8 
REMARK    4  A    between atoms: C_8  and  C_9 
REMARK    5  A    between atoms: C_13  and  C_14 
ROOT
HETATM    1  N   UNL     1      41.456 -12.654   6.204  1.00  0.00    -0.347 N 
HETATM    2  C   UNL     1      40.529 -13.574   5.791  1.00  0.00     0.270 C 
HETATM    3  O   UNL     1      39.377 -13.241   5.525  1.00  0.00    -0.266 OA
HETATM    4  H   UNL     1      42.382 -12.958   6.470  1.00  0.00     0.163 HD
ENDROOT
BRANCH   2   5
HETATM    5  C   UNL     1      40.963 -14.941   5.744  1.00  0.00     0.120 A 
HETATM    6  N   UNL     1      40.146 -15.962   6.151  1.00  0.00    -0.272 N 
HETATM    7  H   UNL     1      39.197 -15.879   6.505  1.00  0.00     0.189 HD
HETATM    8  N   UNL     1      40.694 -17.179   6.051  1.00  0.00    -0.173 NA
HETATM    9  C   UNL     1      41.918 -16.943   5.568  1.00  0.00     0.093 A 
HETATM   10  C   UNL     1      42.131 -15.563   5.342  1.00  0.00     0.071 A 
BRANCH   9  11
HETATM   11  C   UNL     1      42.883 -18.009   5.302  1.00  0.00     0.044 A 
HETATM   12  C   UNL     1      43.186 -18.601   4.087  1.00  0.00     0.041 A 
HETATM   13  C   UNL     1      42.681 -18.335   2.715  1.00  0.00     0.071 C 
HETATM   14  N   UNL     1      44.105 -19.576   4.377  1.00  0.00    -0.278 N 
HETATM   15  C   UNL     1      44.711 -20.532   3.480  1.00  0.00     0.179 C 
HETATM   16  N   UNL     1      44.455 -19.618   5.676  1.00  0.00    -0.177 NA
HETATM   17  C   UNL     1      43.688 -18.686   6.256  1.00  0.00     0.065 A 
HETATM   18  C   UNL     1      43.760 -18.512   7.729  1.00  0.00     0.073 C 
ENDBRANCH   9  11
ENDBRANCH   2   5
BRANCH   1  19
HETATM   19  C   UNL     1      41.205 -11.219   6.151  1.00  0.00     0.226 C 
BRANCH  19  20
HETATM   20  C   UNL     1      41.716 -10.421   7.363  1.00  0.00     0.239 C 
HETATM   21  N   UNL     1      41.697 -11.141   8.544  1.00  0.00    -0.325 N 
HETATM   22  H   UNL     1      41.328 -12.084   8.468  1.00  0.00     0.169 HD
HETATM   23  O   UNL     1      41.999  -9.232   7.237  1.00  0.00    -0.271 OA
BRANCH  21  24
HETATM   24  C   UNL     1      42.056 -10.713   9.843  1.00  0.00     0.040 A 
HETATM   25  C   UNL     1      41.040 -10.249  10.709  1.00  0.00    -0.034 A 
HETATM   26  C   UNL     1      39.587 -10.230  10.313  1.00  0.00     0.050 C 
HETATM   27  C   UNL     1      41.382  -9.789  11.994  1.00  0.00     0.028 A 
HETATM   28  C   UNL     1      42.708  -9.796  12.419  1.00  0.00     0.011 A 
HETATM   29  C   UNL     1      43.707 -10.264  11.577  1.00  0.00     0.021 A 
HETATM   30 BR   UNL     1      43.148  -9.168  14.146  1.00  0.00    -0.051 Br
HETATM   31  C   UNL     1      43.380 -10.722  10.297  1.00  0.00     0.031 A 
ENDBRANCH  21  24
ENDBRANCH  19  20
ENDBRANCH   1  19
TORSDOF 5
ENDMDL
MODEL 3
REMARK VINA RESULT:      -8.5      0.921      1.824
REMARK  5 active torsions:
REMARK  status: ('A' for Active; 'I' for Inactive)
REMARK    1  A    between atoms: C_3  and  N_4 
REMARK       I    between atoms: N_4  and  C_5 
REMARK    2  A    between atoms: C_5  and  C_6 
REMARK    3  A    between atoms: C_6  and  N_7 
REMARK       I    between atoms: N_7  and  C_8 
REMARK    4  A    between atoms: C_8  and  C_9 
REMARK    5  A    between atoms: C_13  and  C_14 
ROOT
HETATM    1  N   UNL     1      41.563 -12.791   6.407  1.00  0.00    -0.347 N 
HETATM    2  C   UNL     1      40.589 -13.601   5.883  1.00  0.00     0.270 C 
HETATM    3  O   UNL     1      39.457 -13.178   5.668  1.00  0.00    -0.266 OA
HETATM    4  H   UNL     1      42.471 -13.174   6.626  1.00  0.00     0.163 HD
ENDROOT
BRANCH   2   5
HETATM    5  C   UNL     1      40.953 -14.970   5.655  1.00  0.00     0.120 A 
HETATM    6  N   UNL     1      40.213 -15.999   6.175  1.00  0.00    -0.272 N 
HETATM    7  H   UNL     1      39.372 -15.921   6.739  1.00  0.00     0.189 HD
HETATM    8  N   UNL     1      40.681 -17.218   5.878  1.00  0.00    -0.173 NA
HETATM    9  C   UNL     1      41.772 -16.976   5.146  1.00  0.00     0.093 A 
HETATM   10  C   UNL     1      41.977 -15.588   4.961  1.00  0.00     0.071 A 
BRANCH   9  11
HETATM   11  C   UNL     1      42.614 -18.042   4.604  1.00  0.00     0.044 A 
HETATM   12  C   UNL     1      43.494 -18.864   5.289  1.00  0.00     0.041 A 
HETATM   13  C   UNL     1      43.827 -18.954   6.735  1.00  0.00     0.071 C 
HETATM   14  N   UNL     1      44.077 -19.651   4.330  1.00  0.00    -0.278 N 
HETATM   15  C   UNL     1      45.113 -20.644   4.493  1.00  0.00     0.179 C 
HETATM   16  N   UNL     1      43.599 -19.434   3.091  1.00  0.00    -0.177 NA
HETATM   17  C   UNL     1      42.728 -18.428   3.243  1.00  0.00     0.065 A 
HETATM   18  C   UNL     1      42.057 -17.871   2.041  1.00  0.00     0.073 C 
ENDBRANCH   9  11
ENDBRANCH   2   5
BRANCH   1  19
HETATM   19  C   UNL     1      41.386 -11.351   6.543  1.00  0.00     0.226 C 
BRANCH  19  20
HETATM   20  C   UNL     1      41.048 -10.865   7.963  1.00  0.00     0.239 C 
HETATM   21  N   UNL     1      42.073 -11.062   8.871  1.00  0.00    -0.325 N 
HETATM   22  H   UNL     1      42.898 -11.522   8.496  1.00  0.00     0.169 HD
HETATM   23  O   UNL     1      39.920 -10.448   8.215  1.00  0.00    -0.271 OA
BRANCH  21  24
HETATM   24  C   UNL     1      42.092 -10.774  10.254  1.00  0.00     0.040 A 
HETATM   25  C   UNL     1      43.342 -10.587  10.891  1.00  0.00    -0.034 A 
HETATM   26  C   UNL     1      44.647 -10.646  10.141  1.00  0.00     0.050 C 
HETATM   27  C   UNL     1      43.382 -10.330  12.274  1.00  0.00     0.028 A 
HETATM   28  C   UNL     1      42.207 -10.251  13.015  1.00  0.00     0.011 A 
HETATM   29  C   UNL     1      40.978 -10.420  12.392  1.00  0.00     0.021 A 
HETATM   30 BR   UNL     1      42.284  -9.913  14.872  1.00  0.00    -0.051 Br
HETATM   31  C   UNL     1      40.923 -10.677  11.018  1.00  0.00     0.031 A 
ENDBRANCH  21  24
ENDBRANCH  19  20
ENDBRANCH   1  19
TORSDOF 5
ENDMDL
MODEL 4
REMARK VINA RESULT:      -8.4      6.999     10.112
REMARK  5 active torsions:
REMARK  status: ('A' for Active; 'I' for Inactive)
REMARK    1  A    between atoms: C_3  and  N_4 
REMARK       I    between atoms: N_4  and  C_5 
REMARK    2  A    between atoms: C_5  and  C_6 
REMARK    3  A    between atoms: C_6  and  N_7 
REMARK       I    between atoms: N_7  and  C_8 
REMARK    4  A    between atoms: C_8  and  C_9 
REMARK    5  A    between atoms: C_13  and  C_14 
ROOT
HETATM    1  N   UNL     1      41.359 -14.424   2.098  1.00  0.00    -0.347 N 
HETATM    2  C   UNL     1      41.750 -13.579   1.093  1.00  0.00     0.270 C 
HETATM    3  O   UNL     1      42.537 -12.661   1.304  1.00  0.00    -0.266 OA
HETATM    4  H   UNL     1      40.670 -15.139   1.914  1.00  0.00     0.163 HD
ENDROOT
BRANCH   2   5
HETATM    5  C   UNL     1      41.151 -13.796  -0.192  1.00  0.00     0.120 A 
HETATM    6  N   UNL     1      41.916 -14.024  -1.305  1.00  0.00    -0.272 N 
HETATM    7  H   UNL     1      42.930 -14.072  -1.349  1.00  0.00     0.189 HD
HETATM    8  N   UNL     1      41.212 -14.204  -2.430  1.00  0.00    -0.173 NA
HETATM    9  C   UNL     1      39.940 -14.079  -2.038  1.00  0.00     0.093 A 
HETATM   10  C   UNL     1      39.845 -13.841  -0.647  1.00  0.00     0.071 A 
BRANCH   9  11
HETATM   11  C   UNL     1      38.812 -14.198  -2.962  1.00  0.00     0.044 A 
HETATM   12  C   UNL     1      37.829 -13.260  -3.231  1.00  0.00     0.041 A 
HETATM   13  C   UNL     1      37.628 -11.878  -2.723  1.00  0.00     0.071 C 
HETATM   14  N   UNL     1      36.979 -13.870  -4.116  1.00  0.00    -0.278 N 
HETATM   15  C   UNL     1      35.751 -13.357  -4.679  1.00  0.00     0.179 C 
HETATM   16  N   UNL     1      37.372 -15.106  -4.477  1.00  0.00    -0.177 NA
HETATM   17  C   UNL     1      38.474 -15.329  -3.750  1.00  0.00     0.065 A 
HETATM   18  C   UNL     1      39.139 -16.653  -3.843  1.00  0.00     0.073 C 
ENDBRANCH   9  11
ENDBRANCH   2   5
BRANCH   1  19
HETATM   19  C   UNL     1      41.998 -14.423   3.408  1.00  0.00     0.226 C 
BRANCH  19  20
HETATM   20  C   UNL     1      42.170 -15.808   4.054  1.00  0.00     0.239 C 
HETATM   21  N   UNL     1      43.295 -16.484   3.615  1.00  0.00    -0.325 N 
HETATM   22  H   UNL     1      43.842 -15.997   2.911  1.00  0.00     0.169 HD
HETATM   23  O   UNL     1      41.299 -16.248   4.800  1.00  0.00    -0.271 OA
BRANCH  21  24
HETATM   24  C   UNL     1      43.736 -17.780   3.965  1.00  0.00     0.040 A 
HETATM   25  C   UNL     1      43.882 -18.746   2.942  1.00  0.00    -0.034 A 
HETATM   26  C   UNL     1      43.621 -18.432   1.492  1.00  0.00     0.050 C 
HETATM   27  C   UNL     1      44.289 -20.051   3.275  1.00  0.00     0.028 A 
HETATM   28  C   UNL     1      44.557 -20.394   4.597  1.00  0.00     0.011 A 
HETATM   29  C   UNL     1      44.429 -19.445   5.603  1.00  0.00     0.021 A 
HETATM   30 BR   UNL     1      45.097 -22.154   5.025  1.00  0.00    -0.051 Br
HETATM   31  C   UNL     1      44.024 -18.145   5.285  1.00  0.00     0.031 A 
ENDBRANCH  21  24
ENDBRANCH  19  20
ENDBRANCH   1  19
TORSDOF 5
ENDMDL
MODEL 5
REMARK VINA RESULT:      -8.1      3.086      4.712
REMARK  5 active torsions:
REMARK  status: ('A' for Active; 'I' for Inactive)
REMARK    1  A    between atoms: C_3  and  N_4 
REMARK       I    between atoms: N_4  and  C_5 
REMARK    2  A    between atoms: C_5  and  C_6 
REMARK    3  A    between atoms: C_6  and  N_7 
REMARK       I    between atoms: N_7  and  C_8 
REMARK    4  A    between atoms: C_8  and  C_9 
REMARK    5  A    between atoms: C_13  and  C_14 
ROOT
HETATM    1  N   UNL     1      43.969 -13.097   7.632  1.00  0.00    -0.347 N 
HETATM    2  C   UNL     1      44.064 -14.212   6.840  1.00  0.00     0.270 C 
HETATM    3  O   UNL     1      45.094 -14.879   6.802  1.00  0.00    -0.266 OA
HETATM    4  H   UNL     1      43.132 -12.532   7.607  1.00  0.00     0.163 HD
ENDROOT
BRANCH   2   5
HETATM    5  C   UNL     1      42.921 -14.516   6.028  1.00  0.00     0.120 A 
HETATM    6  N   UNL     1      41.965 -15.403   6.448  1.00  0.00    -0.272 N 
HETATM    7  H   UNL     1      41.949 -15.910   7.328  1.00  0.00     0.189 HD
HETATM    8  N   UNL     1      40.963 -15.585   5.579  1.00  0.00    -0.173 NA
HETATM    9  C   UNL     1      41.282 -14.795   4.549  1.00  0.00     0.093 A 
HETATM   10  C   UNL     1      42.486 -14.091   4.786  1.00  0.00     0.071 A 
BRANCH   9  11
HETATM   11  C   UNL     1      40.452 -14.684   3.350  1.00  0.00     0.044 A 
HETATM   12  C   UNL     1      39.636 -13.630   2.973  1.00  0.00     0.041 A 
HETATM   13  C   UNL     1      39.376 -12.314   3.613  1.00  0.00     0.071 C 
HETATM   14  N   UNL     1      39.035 -14.034   1.809  1.00  0.00    -0.278 N 
HETATM   15  C   UNL     1      38.043 -13.338   1.023  1.00  0.00     0.179 C 
HETATM   16  N   UNL     1      39.445 -15.244   1.383  1.00  0.00    -0.177 NA
HETATM   17  C   UNL     1      40.286 -15.664   2.336  1.00  0.00     0.065 A 
HETATM   18  C   UNL     1      40.878 -17.021   2.224  1.00  0.00     0.073 C 
ENDBRANCH   9  11
ENDBRANCH   2   5
BRANCH   1  19
HETATM   19  C   UNL     1      44.985 -12.757   8.620  1.00  0.00     0.226 C 
BRANCH  19  20
HETATM   20  C   UNL     1      44.589 -11.648   9.609  1.00  0.00     0.239 C 
HETATM   21  N   UNL     1      43.461 -11.949  10.351  1.00  0.00    -0.325 N 
HETATM   22  H   UNL     1      43.027 -12.841  10.132  1.00  0.00     0.169 HD
HETATM   23  O   UNL     1      45.202 -10.583   9.612  1.00  0.00    -0.271 OA
BRANCH  21  24
HETATM   24  C   UNL     1      42.801 -11.153  11.315  1.00  0.00     0.040 A 
HETATM   25  C   UNL     1      41.611 -10.485  10.943  1.00  0.00    -0.034 A 
HETATM   26  C   UNL     1      41.002 -10.622   9.572  1.00  0.00     0.050 C 
HETATM   27  C   UNL     1      40.958  -9.662  11.880  1.00  0.00     0.028 A 
HETATM   28  C   UNL     1      41.468  -9.508  13.165  1.00  0.00     0.011 A 
HETATM   29  C   UNL     1      42.628 -10.173  13.539  1.00  0.00     0.021 A 
HETATM   30 BR   UNL     1      40.580  -8.393  14.405  1.00  0.00    -0.051 Br
HETATM   31  C   UNL     1      43.288 -10.993  12.618  1.00  0.00     0.031 A 
ENDBRANCH  21  24
ENDBRANCH  19  20
ENDBRANCH   1  19
TORSDOF 5
ENDMDL
MODEL 6
REMARK VINA RESULT:      -8.1      3.652      9.727
REMARK  5 active torsions:
REMARK  status: ('A' for Active; 'I' for Inactive)
REMARK    1  A    between atoms: C_3  and  N_4 
REMARK       I    between atoms: N_4  and  C_5 
REMARK    2  A    between atoms: C_5  and  C_6 
REMARK    3  A    between atoms: C_6  and  N_7 
REMARK       I    between atoms: N_7  and  C_8 
REMARK    4  A    between atoms: C_8  and  C_9 
REMARK    5  A    between atoms: C_13  and  C_14 
ROOT
HETATM    1  N   UNL     1      41.403 -11.505   7.346  1.00  0.00    -0.347 N 
HETATM    2  C   UNL     1      41.663 -10.296   7.936  1.00  0.00     0.270 C 
HETATM    3  O   UNL     1      42.075  -9.344   7.280  1.00  0.00    -0.266 OA
HETATM    4  H   UNL     1      41.116 -12.290   7.912  1.00  0.00     0.163 HD
ENDROOT
BRANCH   2   5
HETATM    5  C   UNL     1      41.479 -10.228   9.357  1.00  0.00     0.120 A 
HETATM    6  N   UNL     1      41.480 -11.359  10.130  1.00  0.00    -0.272 N 
HETATM    7  H   UNL     1      41.610 -12.315   9.812  1.00  0.00     0.189 HD
HETATM    8  N   UNL     1      41.293 -11.133  11.436  1.00  0.00    -0.173 NA
HETATM    9  C   UNL     1      41.155  -9.806  11.518  1.00  0.00     0.093 A 
HETATM   10  C   UNL     1      41.280  -9.191  10.250  1.00  0.00     0.071 A 
BRANCH   9  11
HETATM   11  C   UNL     1      40.922  -9.111  12.783  1.00  0.00     0.044 A 
HETATM   12  C   UNL     1      41.815  -8.913  13.824  1.00  0.00     0.041 A 
HETATM   13  C   UNL     1      43.244  -9.291  13.973  1.00  0.00     0.071 C 
HETATM   14  N   UNL     1      41.101  -8.261  14.795  1.00  0.00    -0.278 N 
HETATM   15  C   UNL     1      41.537  -7.865  16.115  1.00  0.00     0.179 C 
HETATM   16  N   UNL     1      39.836  -7.977  14.436  1.00  0.00    -0.177 NA
HETATM   17  C   UNL     1      39.706  -8.523  13.220  1.00  0.00     0.065 A 
HETATM   18  C   UNL     1      38.385  -8.463  12.544  1.00  0.00     0.073 C 
ENDBRANCH   9  11
ENDBRANCH   2   5
BRANCH   1  19
HETATM   19  C   UNL     1      41.395 -11.679   5.898  1.00  0.00     0.226 C 
BRANCH  19  20
HETATM   20  C   UNL     1      42.060 -12.969   5.390  1.00  0.00     0.239 C 
HETATM   21  N   UNL     1      41.972 -14.022   6.283  1.00  0.00    -0.325 N 
HETATM   22  H   UNL     1      41.509 -13.805   7.161  1.00  0.00     0.169 HD
HETATM   23  O   UNL     1      42.681 -12.961   4.330  1.00  0.00    -0.271 OA
BRANCH  21  24
HETATM   24  C   UNL     1      42.500 -15.327   6.161  1.00  0.00     0.040 A 
HETATM   25  C   UNL     1      43.826 -15.566   6.593  1.00  0.00    -0.034 A 
HETATM   26  C   UNL     1      44.679 -14.491   7.212  1.00  0.00     0.050 C 
HETATM   27  C   UNL     1      44.379 -16.852   6.449  1.00  0.00     0.028 A 
HETATM   28  C   UNL     1      43.632 -17.888   5.896  1.00  0.00     0.011 A 
HETATM   29  C   UNL     1      42.325 -17.661   5.484  1.00  0.00     0.021 A 
HETATM   30 BR   UNL     1      44.396 -19.605   5.706  1.00  0.00    -0.051 Br
HETATM   31  C   UNL     1      41.764 -16.388   5.619  1.00  0.00     0.031 A 
ENDBRANCH  21  24
ENDBRANCH  19  20
ENDBRANCH   1  19
TORSDOF 5
ENDMDL
MODEL 7
REMARK VINA RESULT:      -7.6      6.151      8.554
REMARK  5 active torsions:
REMARK  status: ('A' for Active; 'I' for Inactive)
REMARK    1  A    between atoms: C_3  and  N_4 
REMARK       I    between atoms: N_4  and  C_5 
REMARK    2  A    between atoms: C_5  and  C_6 
REMARK    3  A    between atoms: C_6  and  N_7 
REMARK       I    between atoms: N_7  and  C_8 
REMARK    4  A    between atoms: C_8  and  C_9 
REMARK    5  A    between atoms: C_13  and  C_14 
ROOT
HETATM    1  N   UNL     1      39.559 -15.279   2.037  1.00  0.00    -0.347 N 
HETATM    2  C   UNL     1      40.116 -14.796   3.192  1.00  0.00     0.270 C 
HETATM    3  O   UNL     1      39.723 -13.749   3.698  1.00  0.00    -0.266 OA
HETATM    4  H   UNL     1      39.934 -16.114   1.609  1.00  0.00     0.163 HD
ENDROOT
BRANCH   2   5
HETATM    5  C   UNL     1      41.209 -15.550   3.737  1.00  0.00     0.120 A 
HETATM    6  N   UNL     1      42.377 -14.939   4.111  1.00  0.00    -0.272 N 
HETATM    7  H   UNL     1      42.591 -13.948   4.058  1.00  0.00     0.189 HD
HETATM    8  N   UNL     1      43.303 -15.775   4.598  1.00  0.00    -0.173 NA
HETATM    9  C   UNL     1      42.721 -16.977   4.530  1.00  0.00     0.093 A 
HETATM   10  C   UNL     1      41.405 -16.890   4.016  1.00  0.00     0.071 A 
BRANCH   9  11
HETATM   11  C   UNL     1      43.388 -18.205   4.961  1.00  0.00     0.044 A 
HETATM   12  C   UNL     1      43.913 -19.212   4.168  1.00  0.00     0.041 A 
HETATM   13  C   UNL     1      43.998 -19.353   2.691  1.00  0.00     0.071 C 
HETATM   14  N   UNL     1      44.373 -20.160   5.044  1.00  0.00    -0.278 N 
HETATM   15  C   UNL     1      44.963 -21.445   4.747  1.00  0.00     0.179 C 
HETATM   16  N   UNL     1      44.234 -19.813   6.337  1.00  0.00    -0.177 NA
HETATM   17  C   UNL     1      43.602 -18.633   6.297  1.00  0.00     0.065 A 
HETATM   18  C   UNL     1      43.214 -17.983   7.574  1.00  0.00     0.073 C 
ENDBRANCH   9  11
ENDBRANCH   2   5
BRANCH   1  19
HETATM   19  C   UNL     1      38.348 -14.709   1.459  1.00  0.00     0.226 C 
BRANCH  19  20
HETATM   20  C   UNL     1      38.556 -13.914   0.159  1.00  0.00     0.239 C 
HETATM   21  N   UNL     1      39.888 -13.737  -0.172  1.00  0.00    -0.325 N 
HETATM   22  H   UNL     1      40.552 -14.126   0.492  1.00  0.00     0.169 HD
HETATM   23  O   UNL     1      37.590 -13.426  -0.421  1.00  0.00    -0.271 OA
BRANCH  21  24
HETATM   24  C   UNL     1      40.439 -13.032  -1.266  1.00  0.00     0.040 A 
HETATM   25  C   UNL     1      40.910 -13.766  -2.378  1.00  0.00    -0.034 A 
HETATM   26  C   UNL     1      40.812 -15.267  -2.456  1.00  0.00     0.050 C 
HETATM   27  C   UNL     1      41.491 -13.083  -3.463  1.00  0.00     0.028 A 
HETATM   28  C   UNL     1      41.596 -11.695  -3.452  1.00  0.00     0.011 A 
HETATM   29  C   UNL     1      41.121 -10.969  -2.368  1.00  0.00     0.021 A 
HETATM   30 BR   UNL     1      42.385 -10.797  -4.915  1.00  0.00    -0.051 Br
HETATM   31  C   UNL     1      40.543 -11.636  -1.283  1.00  0.00     0.031 A 
ENDBRANCH  21  24
ENDBRANCH  19  20
ENDBRANCH   1  19
TORSDOF 5
ENDMDL
MODEL 8
REMARK VINA RESULT:      -7.4      1.580      2.711
REMARK  5 active torsions:
REMARK  status: ('A' for Active; 'I' for Inactive)
REMARK    1  A    between atoms: C_3  and  N_4 
REMARK       I    between atoms: N_4  and  C_5 
REMARK    2  A    between atoms: C_5  and  C_6 
REMARK    3  A    between atoms: C_6  and  N_7 
REMARK       I    between atoms: N_7  and  C_8 
REMARK    4  A    between atoms: C_8  and  C_9 
REMARK    5  A    between atoms: C_13  and  C_14 
ROOT
HETATM    1  N   UNL     1      40.747 -13.514   4.846  1.00  0.00    -0.347 N 
HETATM    2  C   UNL     1      41.990 -14.043   5.082  1.00  0.00     0.270 C 
HETATM    3  O   UNL     1      42.941 -13.325   5.375  1.00  0.00    -0.266 OA
HETATM    4  H   UNL     1      39.992 -14.117   4.554  1.00  0.00     0.163 HD
ENDROOT
BRANCH   2   5
HETATM    5  C   UNL     1      42.121 -15.461   4.915  1.00  0.00     0.120 A 
HETATM    6  N   UNL     1      41.050 -16.299   5.076  1.00  0.00    -0.272 N 
HETATM    7  H   UNL     1      40.098 -16.034   5.310  1.00  0.00     0.189 HD
HETATM    8  N   UNL     1      41.332 -17.595   4.891  1.00  0.00    -0.173 NA
HETATM    9  C   UNL     1      42.638 -17.604   4.607  1.00  0.00     0.093 A 
HETATM   10  C   UNL     1      43.176 -16.296   4.592  1.00  0.00     0.071 A 
BRANCH   9  11
HETATM   11  C   UNL     1      43.380 -18.834   4.334  1.00  0.00     0.044 A 
HETATM   12  C   UNL     1      43.856 -19.763   5.246  1.00  0.00     0.041 A 
HETATM   13  C   UNL     1      43.741 -19.829   6.726  1.00  0.00     0.071 C 
HETATM   14  N   UNL     1      44.526 -20.695   4.498  1.00  0.00    -0.278 N 
HETATM   15  C   UNL     1      45.264 -21.850   4.956  1.00  0.00     0.179 C 
HETATM   16  N   UNL     1      44.470 -20.465   3.173  1.00  0.00    -0.177 NA
HETATM   17  C   UNL     1      43.800 -19.311   3.065  1.00  0.00     0.065 A 
HETATM   18  C   UNL     1      43.617 -18.711   1.719  1.00  0.00     0.073 C 
ENDBRANCH   9  11
ENDBRANCH   2   5
BRANCH   1  19
HETATM   19  C   UNL     1      40.429 -12.120   5.128  1.00  0.00     0.226 C 
BRANCH  19  20
HETATM   20  C   UNL     1      40.380 -11.748   6.620  1.00  0.00     0.239 C 
HETATM   21  N   UNL     1      41.438 -10.953   7.024  1.00  0.00    -0.325 N 
HETATM   22  H   UNL     1      42.118 -10.740   6.300  1.00  0.00     0.169 HD
HETATM   23  O   UNL     1      39.514 -12.233   7.343  1.00  0.00    -0.271 OA
BRANCH  21  24
HETATM   24  C   UNL     1      41.727 -10.462   8.317  1.00  0.00     0.040 A 
HETATM   25  C   UNL     1      40.977  -9.369   8.811  1.00  0.00    -0.034 A 
HETATM   26  C   UNL     1      39.858  -8.736   8.026  1.00  0.00     0.050 C 
HETATM   27  C   UNL     1      41.273  -8.846  10.084  1.00  0.00     0.028 A 
HETATM   28  C   UNL     1      42.287  -9.399  10.860  1.00  0.00     0.011 A 
HETATM   29  C   UNL     1      43.016 -10.481  10.385  1.00  0.00     0.021 A 
HETATM   30 BR   UNL     1      42.672  -8.678  12.563  1.00  0.00    -0.051 Br
HETATM   31  C   UNL     1      42.734 -11.010   9.121  1.00  0.00     0.031 A 
ENDBRANCH  21  24
ENDBRANCH  19  20
ENDBRANCH   1  19
TORSDOF 5
ENDMDL
MODEL 9
REMARK VINA RESULT:      -7.4      7.427     10.601
REMARK  5 active torsions:
REMARK  status: ('A' for Active; 'I' for Inactive)
REMARK    1  A    between atoms: C_3  and  N_4 
REMARK       I    between atoms: N_4  and  C_5 
REMARK    2  A    between atoms: C_5  and  C_6 
REMARK    3  A    between atoms: C_6  and  N_7 
REMARK       I    between atoms: N_7  and  C_8 
REMARK    4  A    between atoms: C_8  and  C_9 
REMARK    5  A    between atoms: C_13  and  C_14 
ROOT
HETATM    1  N   UNL     1      41.449 -14.479   1.543  1.00  0.00    -0.347 N 
HETATM    2  C   UNL     1      40.165 -14.180   1.169  1.00  0.00     0.270 C 
HETATM    3  O   UNL     1      39.236 -14.258   1.968  1.00  0.00    -0.266 OA
HETATM    4  H   UNL     1      42.189 -14.461   0.856  1.00  0.00     0.163 HD
ENDROOT
BRANCH   2   5
HETATM    5  C   UNL     1      39.966 -13.830  -0.208  1.00  0.00     0.120 A 
HETATM    6  N   UNL     1      39.733 -14.788  -1.159  1.00  0.00    -0.272 N 
HETATM    7  H   UNL     1      39.670 -15.791  -1.012  1.00  0.00     0.189 HD
HETATM    8  N   UNL     1      39.571 -14.306  -2.398  1.00  0.00    -0.173 NA
HETATM    9  C   UNL     1      39.714 -12.985  -2.251  1.00  0.00     0.093 A 
HETATM   10  C   UNL     1      39.944 -12.633  -0.900  1.00  0.00     0.071 A 
BRANCH   9  11
HETATM   11  C   UNL     1      39.619 -12.049  -3.371  1.00  0.00     0.044 A 
HETATM   12  C   UNL     1      40.651 -11.520  -4.129  1.00  0.00     0.041 A 
HETATM   13  C   UNL     1      42.118 -11.745  -4.079  1.00  0.00     0.071 C 
HETATM   14  N   UNL     1      40.049 -10.659  -5.010  1.00  0.00    -0.278 N 
HETATM   15  C   UNL     1      40.670  -9.799  -5.991  1.00  0.00     0.179 C 
HETATM   16  N   UNL     1      38.706 -10.639  -4.912  1.00  0.00    -0.177 NA
HETATM   17  C   UNL     1      38.436 -11.460  -3.890  1.00  0.00     0.065 A 
HETATM   18  C   UNL     1      37.027 -11.617  -3.448  1.00  0.00     0.073 C 
ENDBRANCH   9  11
ENDBRANCH   2   5
BRANCH   1  19
HETATM   19  C   UNL     1      41.823 -14.698   2.934  1.00  0.00     0.226 C 
BRANCH  19  20
HETATM   20  C   UNL     1      41.924 -16.172   3.360  1.00  0.00     0.239 C 
HETATM   21  N   UNL     1      43.224 -16.596   3.572  1.00  0.00    -0.325 N 
HETATM   22  H   UNL     1      43.940 -15.897   3.395  1.00  0.00     0.169 HD
HETATM   23  O   UNL     1      40.915 -16.871   3.389  1.00  0.00    -0.271 OA
BRANCH  21  24
HETATM   24  C   UNL     1      43.684 -17.884   3.930  1.00  0.00     0.040 A 
HETATM   25  C   UNL     1      43.912 -18.832   2.906  1.00  0.00    -0.034 A 
HETATM   26  C   UNL     1      43.719 -18.508   1.448  1.00  0.00     0.050 C 
HETATM   27  C   UNL     1      44.339 -20.129   3.247  1.00  0.00     0.028 A 
HETATM   28  C   UNL     1      44.546 -20.481   4.577  1.00  0.00     0.011 A 
HETATM   29  C   UNL     1      44.337 -19.549   5.585  1.00  0.00     0.021 A 
HETATM   30 BR   UNL     1      45.113 -22.230   5.014  1.00  0.00    -0.051 Br
HETATM   31  C   UNL     1      43.911 -18.257   5.260  1.00  0.00     0.031 A 
ENDBRANCH  21  24
ENDBRANCH  19  20
ENDBRANCH   1  19
TORSDOF 5
ENDMDL
MODEL 10
REMARK VINA RESULT:      -7.4      6.917      9.487
REMARK  5 active torsions:
REMARK  status: ('A' for Active; 'I' for Inactive)
REMARK    1  A    between atoms: C_3  and  N_4 
REMARK       I    between atoms: N_4  and  C_5 
REMARK    2  A    between atoms: C_5  and  C_6 
REMARK    3  A    between atoms: C_6  and  N_7 
REMARK       I    between atoms: N_7  and  C_8 
REMARK    4  A    between atoms: C_8  and  C_9 
REMARK    5  A    between atoms: C_13  and  C_14 
ROOT
HETATM    1  N   UNL     1      40.367 -12.933   2.197  1.00  0.00    -0.347 N 
HETATM    2  C   UNL     1      41.241 -12.936   1.141  1.00  0.00     0.270 C 
HETATM    3  O   UNL     1      42.448 -12.790   1.314  1.00  0.00    -0.266 OA
HETATM    4  H   UNL     1      39.374 -13.001   2.028  1.00  0.00     0.163 HD
ENDROOT
BRANCH   2   5
HETATM    5  C   UNL     1      40.663 -13.063  -0.165  1.00  0.00     0.120 A 
HETATM    6  N   UNL     1      41.199 -12.416  -1.247  1.00  0.00    -0.272 N 
HETATM    7  H   UNL     1      42.018 -11.815  -1.253  1.00  0.00     0.189 HD
HETATM    8  N   UNL     1      40.546 -12.630  -2.396  1.00  0.00    -0.173 NA
HETATM    9  C   UNL     1      39.541 -13.440  -2.050  1.00  0.00     0.093 A 
HETATM   10  C   UNL     1      39.578 -13.756  -0.671  1.00  0.00     0.071 A 
BRANCH   9  11
HETATM   11  C   UNL     1      38.554 -13.932  -3.011  1.00  0.00     0.044 A 
HETATM   12  C   UNL     1      37.360 -13.338  -3.385  1.00  0.00     0.041 A 
HETATM   13  C   UNL     1      36.736 -12.051  -2.982  1.00  0.00     0.071 C 
HETATM   14  N   UNL     1      36.778 -14.216  -4.263  1.00  0.00    -0.278 N 
HETATM   15  C   UNL     1      35.492 -14.115  -4.912  1.00  0.00     0.179 C 
HETATM   16  N   UNL     1      37.534 -15.300  -4.522  1.00  0.00    -0.177 NA
HETATM   17  C   UNL     1      38.607 -15.152  -3.735  1.00  0.00     0.065 A 
HETATM   18  C   UNL     1      39.631 -16.226  -3.709  1.00  0.00     0.073 C 
ENDBRANCH   9  11
ENDBRANCH   2   5
BRANCH   1  19
HETATM   19  C   UNL     1      40.821 -12.969   3.582  1.00  0.00     0.226 C 
BRANCH  19  20
HETATM   20  C   UNL     1      41.027 -14.376   4.167  1.00  0.00     0.239 C 
HETATM   21  N   UNL     1      42.239 -14.945   3.819  1.00  0.00    -0.325 N 
HETATM   22  H   UNL     1      42.821 -14.379   3.207  1.00  0.00     0.169 HD
HETATM   23  O   UNL     1      40.117 -14.920   4.787  1.00  0.00    -0.271 OA
BRANCH  21  24
HETATM   24  C   UNL     1      42.737 -16.227   4.145  1.00  0.00     0.040 A 
HETATM   25  C   UNL     1      43.544 -16.368   5.298  1.00  0.00    -0.034 A 
HETATM   26  C   UNL     1      43.858 -15.212   6.211  1.00  0.00     0.050 C 
HETATM   27  C   UNL     1      44.075 -17.631   5.621  1.00  0.00     0.028 A 
HETATM   28  C   UNL     1      43.807 -18.738   4.821  1.00  0.00     0.011 A 
HETATM   29  C   UNL     1      43.004 -18.606   3.695  1.00  0.00     0.021 A 
HETATM   30 BR   UNL     1      44.535 -20.423   5.267  1.00  0.00    -0.051 Br
HETATM   31  C   UNL     1      42.471 -17.357   3.363  1.00  0.00     0.031 A 
ENDBRANCH  21  24
ENDBRANCH  19  20
ENDBRANCH   1  19
TORSDOF 5
ENDMDL
