MODEL 1
REMARK VINA RESULT:      -7.5      0.000      0.000
REMARK  4 active torsions:
REMARK  status: ('A' for Active; 'I' for Inactive)
REMARK    1  A    between atoms: O_2  and  C_3 
REMARK    2  A    between atoms: C_4  and  O_5 
REMARK    3  A    between atoms: C_8  and  C_9 
REMARK    4  A    between atoms: C_9  and  N_10 
ROOT
HETATM    1  N   UNL     1      41.997 -15.611   5.320  1.00  0.00    -0.066 N 
HETATM    2  H   UNL     1      42.402 -16.023   6.174  1.00  0.00     0.280 HD
HETATM    3  C   UNL     1      43.187 -15.063   4.552  1.00  0.00     0.246 C 
HETATM    4  C   UNL     1      42.821 -13.919   3.583  1.00  0.00     0.062 C 
HETATM    5  C   UNL     1      42.104 -12.814   4.349  1.00  0.00     0.020 C 
HETATM    6  C   UNL     1      40.800 -13.395   4.875  1.00  0.00     0.031 C 
HETATM    7  C   UNL     1      39.905 -13.790   3.701  1.00  0.00     0.138 C 
HETATM    8  N   UNL     1      40.578 -14.418   2.565  1.00  0.00    -0.317 N 
HETATM    9  C   UNL     1      41.969 -14.400   2.424  1.00  0.00     0.020 A 
HETATM   10  C   UNL     1      42.528 -14.830   1.279  1.00  0.00     0.026 A 
HETATM   11  C   UNL     1      39.731 -14.913   1.561  1.00  0.00     0.247 A 
HETATM   12  O   UNL     1      38.512 -15.006   1.684  1.00  0.00    -0.268 OA
HETATM   13  C   UNL     1      40.383 -15.376   0.315  1.00  0.00     0.074 A 
HETATM   14  C   UNL     1      41.714 -15.321   0.197  1.00  0.00     0.007 A 
HETATM   15  C   UNL     1      41.063 -14.547   5.847  1.00  0.00     0.241 C 
ENDROOT
BRANCH   1  16
HETATM   16  C   UNL     1      41.376 -16.839   4.670  1.00  0.00     0.274 C 
BRANCH  16  17
HETATM   17  C   UNL     1      42.341 -17.861   4.127  1.00  0.00    -0.012 A 
HETATM   18  C   UNL     1      43.237 -18.580   4.936  1.00  0.00     0.054 A 
HETATM   19  C   UNL     1      44.096 -19.520   4.356  1.00  0.00     0.117 A 
HETATM   20 BR   UNL     1      43.293 -18.301   6.821  1.00  0.00    -0.047 Br
HETATM   21  C   UNL     1      44.108 -19.744   2.973  1.00  0.00     0.102 A 
HETATM   22  C   UNL     1      43.231 -19.027   2.166  1.00  0.00     0.040 A 
HETATM   23  C   UNL     1      42.356 -18.096   2.738  1.00  0.00     0.013 A 
BRANCH  19  24
HETATM   24  O   UNL     1      44.950 -20.249   5.145  1.00  0.00    -0.357 OA
HETATM   25  H   UNL     1      45.855 -20.022   4.846  1.00  0.00     0.218 HD
ENDBRANCH  19  24
BRANCH  21  26
HETATM   26  O   UNL     1      45.007 -20.686   2.545  1.00  0.00    -0.353 OA
HETATM   27  C   UNL     1      44.469 -21.879   1.984  1.00  0.00     0.210 C 
ENDBRANCH  21  26
ENDBRANCH  16  17
ENDBRANCH   1  16
TORSDOF 4
ENDMDL
MODEL 2
REMARK VINA RESULT:      -7.4      1.788      3.418
REMARK  4 active torsions:
REMARK  status: ('A' for Active; 'I' for Inactive)
REMARK    1  A    between atoms: O_2  and  C_3 
REMARK    2  A    between atoms: C_4  and  O_5 
REMARK    3  A    between atoms: C_8  and  C_9 
REMARK    4  A    between atoms: C_9  and  N_10 
ROOT
HETATM    1  N   UNL     1      42.029 -16.520   1.446  1.00  0.00    -0.066 N 
HETATM    2  H   UNL     1      42.332 -17.339   0.897  1.00  0.00     0.280 HD
HETATM    3  C   UNL     1      40.676 -16.913   2.013  1.00  0.00     0.246 C 
HETATM    4  C   UNL     1      39.777 -15.705   2.353  1.00  0.00     0.062 C 
HETATM    5  C   UNL     1      39.623 -14.824   1.120  1.00  0.00     0.020 C 
HETATM    6  C   UNL     1      41.000 -14.277   0.773  1.00  0.00     0.031 C 
HETATM    7  C   UNL     1      41.499 -13.387   1.910  1.00  0.00     0.138 C 
HETATM    8  N   UNL     1      41.222 -13.862   3.266  1.00  0.00    -0.317 N 
HETATM    9  C   UNL     1      40.318 -14.897   3.518  1.00  0.00     0.020 A 
HETATM   10  C   UNL     1      39.962 -15.177   4.785  1.00  0.00     0.026 A 
HETATM   11  C   UNL     1      41.814 -13.118   4.298  1.00  0.00     0.247 A 
HETATM   12  O   UNL     1      42.663 -12.250   4.110  1.00  0.00    -0.268 OA
HETATM   13  C   UNL     1      41.396 -13.454   5.678  1.00  0.00     0.074 A 
HETATM   14  C   UNL     1      40.509 -14.431   5.888  1.00  0.00     0.007 A 
HETATM   15  C   UNL     1      41.969 -15.409   0.424  1.00  0.00     0.241 C 
ENDROOT
BRANCH   1  16
HETATM   16  C   UNL     1      43.126 -16.454   2.499  1.00  0.00     0.274 C 
BRANCH  16  17
HETATM   17  C   UNL     1      43.618 -17.776   3.028  1.00  0.00    -0.012 A 
HETATM   18  C   UNL     1      43.844 -18.023   4.393  1.00  0.00     0.054 A 
HETATM   19  C   UNL     1      44.292 -19.283   4.807  1.00  0.00     0.117 A 
HETATM   20 BR   UNL     1      43.539 -16.665   5.696  1.00  0.00    -0.047 Br
HETATM   21  C   UNL     1      44.552 -20.305   3.885  1.00  0.00     0.102 A 
HETATM   22  C   UNL     1      44.340 -20.063   2.532  1.00  0.00     0.040 A 
HETATM   23  C   UNL     1      43.877 -18.812   2.109  1.00  0.00     0.013 A 
BRANCH  19  24
HETATM   24  O   UNL     1      44.484 -19.540   6.141  1.00  0.00    -0.357 OA
HETATM   25  H   UNL     1      45.307 -20.066   6.199  1.00  0.00     0.218 HD
ENDBRANCH  19  24
BRANCH  21  26
HETATM   26  O   UNL     1      44.995 -21.481   4.432  1.00  0.00    -0.353 OA
HETATM   27  C   UNL     1      44.644 -22.680   3.748  1.00  0.00     0.210 C 
ENDBRANCH  21  26
ENDBRANCH  16  17
ENDBRANCH   1  16
TORSDOF 4
ENDMDL
MODEL 3
REMARK VINA RESULT:      -7.4      1.415      1.872
REMARK  4 active torsions:
REMARK  status: ('A' for Active; 'I' for Inactive)
REMARK    1  A    between atoms: O_2  and  C_3 
REMARK    2  A    between atoms: C_4  and  O_5 
REMARK    3  A    between atoms: C_8  and  C_9 
REMARK    4  A    between atoms: C_9  and  N_10 
ROOT
HETATM    1  N   UNL     1      41.897 -15.719   5.468  1.00  0.00    -0.066 N 
HETATM    2  H   UNL     1      42.355 -16.195   6.260  1.00  0.00     0.280 HD
HETATM    3  C   UNL     1      42.955 -14.781   4.914  1.00  0.00     0.246 C 
HETATM    4  C   UNL     1      42.368 -13.575   4.150  1.00  0.00     0.062 C 
HETATM    5  C   UNL     1      41.389 -12.831   5.049  1.00  0.00     0.020 C 
HETATM    6  C   UNL     1      40.236 -13.777   5.351  1.00  0.00     0.031 C 
HETATM    7  C   UNL     1      39.500 -14.116   4.056  1.00  0.00     0.138 C 
HETATM    8  N   UNL     1      40.339 -14.340   2.880  1.00  0.00    -0.317 N 
HETATM    9  C   UNL     1      41.692 -13.989   2.856  1.00  0.00     0.020 A 
HETATM   10  C   UNL     1      42.376 -14.048   1.700  1.00  0.00     0.026 A 
HETATM   11  C   UNL     1      39.666 -14.798   1.736  1.00  0.00     0.247 A 
HETATM   12  O   UNL     1      38.498 -15.179   1.742  1.00  0.00    -0.268 OA
HETATM   13  C   UNL     1      40.451 -14.847   0.482  1.00  0.00     0.074 A 
HETATM   14  C   UNL     1      41.736 -14.479   0.484  1.00  0.00     0.007 A 
HETATM   15  C   UNL     1      40.724 -15.014   6.108  1.00  0.00     0.241 C 
ENDROOT
BRANCH   1  16
HETATM   16  C   UNL     1      41.600 -16.898   4.553  1.00  0.00     0.274 C 
BRANCH  16  17
HETATM   17  C   UNL     1      42.606 -18.020   4.570  1.00  0.00    -0.012 A 
HETATM   18  C   UNL     1      43.158 -18.576   3.405  1.00  0.00     0.054 A 
HETATM   19  C   UNL     1      44.095 -19.611   3.504  1.00  0.00     0.117 A 
HETATM   20 BR   UNL     1      42.658 -17.932   1.681  1.00  0.00    -0.047 Br
HETATM   21  C   UNL     1      44.478 -20.133   4.747  1.00  0.00     0.102 A 
HETATM   22  C   UNL     1      43.925 -19.594   5.904  1.00  0.00     0.040 A 
HETATM   23  C   UNL     1      43.000 -18.548   5.816  1.00  0.00     0.013 A 
BRANCH  19  24
HETATM   24  O   UNL     1      44.663 -20.136   2.371  1.00  0.00    -0.357 OA
HETATM   25  H   UNL     1      44.089 -19.859   1.628  1.00  0.00     0.218 HD
ENDBRANCH  19  24
BRANCH  21  26
HETATM   26  O   UNL     1      45.395 -21.149   4.692  1.00  0.00    -0.353 OA
HETATM   27  C   UNL     1      44.945 -22.444   5.081  1.00  0.00     0.210 C 
ENDBRANCH  21  26
ENDBRANCH  16  17
ENDBRANCH   1  16
TORSDOF 4
ENDMDL
MODEL 4
REMARK VINA RESULT:      -7.3      2.615      4.409
REMARK  4 active torsions:
REMARK  status: ('A' for Active; 'I' for Inactive)
REMARK    1  A    between atoms: O_2  and  C_3 
REMARK    2  A    between atoms: C_4  and  O_5 
REMARK    3  A    between atoms: C_8  and  C_9 
REMARK    4  A    between atoms: C_9  and  N_10 
ROOT
HETATM    1  N   UNL     1      42.219 -15.890   3.089  1.00  0.00    -0.066 N 
HETATM    2  H   UNL     1      42.106 -16.164   2.102  1.00  0.00     0.280 HD
HETATM    3  C   UNL     1      41.211 -16.737   3.845  1.00  0.00     0.246 C 
HETATM    4  C   UNL     1      40.772 -16.118   5.190  1.00  0.00     0.062 C 
HETATM    5  C   UNL     1      40.240 -14.710   4.951  1.00  0.00     0.020 C 
HETATM    6  C   UNL     1      41.393 -13.869   4.422  1.00  0.00     0.031 C 
HETATM    7  C   UNL     1      42.484 -13.771   5.487  1.00  0.00     0.138 C 
HETATM    8  N   UNL     1      42.758 -14.993   6.241  1.00  0.00    -0.317 N 
HETATM    9  C   UNL     1      41.898 -16.095   6.205  1.00  0.00     0.020 A 
HETATM   10  C   UNL     1      42.096 -17.122   7.050  1.00  0.00     0.026 A 
HETATM   11  C   UNL     1      43.861 -14.933   7.107  1.00  0.00     0.247 A 
HETATM   12  O   UNL     1      44.673 -14.012   7.112  1.00  0.00    -0.268 OA
HETATM   13  C   UNL     1      44.045 -16.082   8.023  1.00  0.00     0.074 A 
HETATM   14  C   UNL     1      43.191 -17.110   7.986  1.00  0.00     0.007 A 
HETATM   15  C   UNL     1      41.902 -14.412   3.086  1.00  0.00     0.241 C 
ENDROOT
BRANCH   1  16
HETATM   16  C   UNL     1      43.662 -16.303   3.343  1.00  0.00     0.274 C 
BRANCH  16  17
HETATM   17  C   UNL     1      43.918 -17.784   3.452  1.00  0.00    -0.012 A 
HETATM   18  C   UNL     1      43.780 -18.670   2.371  1.00  0.00     0.054 A 
HETATM   19  C   UNL     1      44.046 -20.033   2.550  1.00  0.00     0.117 A 
HETATM   20 BR   UNL     1      43.246 -18.041   0.652  1.00  0.00    -0.047 Br
HETATM   21  C   UNL     1      44.420 -20.546   3.799  1.00  0.00     0.102 A 
HETATM   22  C   UNL     1      44.546 -19.675   4.875  1.00  0.00     0.040 A 
HETATM   23  C   UNL     1      44.299 -18.309   4.703  1.00  0.00     0.013 A 
BRANCH  19  24
HETATM   24  O   UNL     1      43.945 -20.898   1.490  1.00  0.00    -0.357 OA
HETATM   25  H   UNL     1      44.862 -21.159   1.266  1.00  0.00     0.218 HD
ENDBRANCH  19  24
BRANCH  21  26
HETATM   26  O   UNL     1      44.638 -21.898   3.828  1.00  0.00    -0.353 OA
HETATM   27  C   UNL     1      45.016 -22.461   5.081  1.00  0.00     0.210 C 
ENDBRANCH  21  26
ENDBRANCH  16  17
ENDBRANCH   1  16
TORSDOF 4
ENDMDL
MODEL 5
REMARK VINA RESULT:      -7.1      2.407      4.184
REMARK  4 active torsions:
REMARK  status: ('A' for Active; 'I' for Inactive)
REMARK    1  A    between atoms: O_2  and  C_3 
REMARK    2  A    between atoms: C_4  and  O_5 
REMARK    3  A    between atoms: C_8  and  C_9 
REMARK    4  A    between atoms: C_9  and  N_10 
ROOT
HETATM    1  N   UNL     1      42.607 -17.791   1.535  1.00  0.00    -0.066 N 
HETATM    2  H   UNL     1      42.715 -18.667   1.001  1.00  0.00     0.280 HD
HETATM    3  C   UNL     1      41.413 -18.034   2.441  1.00  0.00     0.246 C 
HETATM    4  C   UNL     1      40.701 -16.737   2.882  1.00  0.00     0.062 C 
HETATM    5  C   UNL     1      40.303 -15.933   1.651  1.00  0.00     0.020 C 
HETATM    6  C   UNL     1      41.584 -15.524   0.938  1.00  0.00     0.031 C 
HETATM    7  C   UNL     1      42.400 -14.602   1.842  1.00  0.00     0.138 C 
HETATM    8  N   UNL     1      42.435 -14.959   3.260  1.00  0.00    -0.317 N 
HETATM    9  C   UNL     1      41.559 -15.899   3.810  1.00  0.00     0.020 A 
HETATM   10  C   UNL     1      41.508 -16.062   5.144  1.00  0.00     0.026 A 
HETATM   11  C   UNL     1      43.307 -14.196   4.052  1.00  0.00     0.247 A 
HETATM   12  O   UNL     1      44.136 -13.415   3.593  1.00  0.00    -0.268 OA
HETATM   13  C   UNL     1      43.221 -14.402   5.516  1.00  0.00     0.074 A 
HETATM   14  C   UNL     1      42.354 -15.288   6.016  1.00  0.00     0.007 A 
HETATM   15  C   UNL     1      42.366 -16.751   0.465  1.00  0.00     0.241 C 
ENDROOT
BRANCH   1  16
HETATM   16  C   UNL     1      43.930 -17.742   2.284  1.00  0.00     0.274 C 
BRANCH  16  17
HETATM   17  C   UNL     1      44.070 -18.690   3.447  1.00  0.00    -0.012 A 
HETATM   18  C   UNL     1      44.197 -20.081   3.294  1.00  0.00     0.054 A 
HETATM   19  C   UNL     1      44.332 -20.896   4.424  1.00  0.00     0.117 A 
HETATM   20 BR   UNL     1      44.199 -20.879   1.562  1.00  0.00    -0.047 Br
HETATM   21  C   UNL     1      44.314 -20.359   5.718  1.00  0.00     0.102 A 
HETATM   22  C   UNL     1      44.177 -18.984   5.875  1.00  0.00     0.040 A 
HETATM   23  C   UNL     1      44.058 -18.159   4.752  1.00  0.00     0.013 A 
BRANCH  19  24
HETATM   24  O   UNL     1      44.489 -22.251   4.279  1.00  0.00    -0.357 OA
HETATM   25  H   UNL     1      43.586 -22.629   4.272  1.00  0.00     0.218 HD
ENDBRANCH  19  24
BRANCH  21  26
HETATM   26  O   UNL     1      44.446 -21.275   6.728  1.00  0.00    -0.353 OA
HETATM   27  C   UNL     1      43.551 -21.152   7.829  1.00  0.00     0.210 C 
ENDBRANCH  21  26
ENDBRANCH  16  17
ENDBRANCH   1  16
TORSDOF 4
ENDMDL
MODEL 6
REMARK VINA RESULT:      -7.0      2.773      5.998
REMARK  4 active torsions:
REMARK  status: ('A' for Active; 'I' for Inactive)
REMARK    1  A    between atoms: O_2  and  C_3 
REMARK    2  A    between atoms: C_4  and  O_5 
REMARK    3  A    between atoms: C_8  and  C_9 
REMARK    4  A    between atoms: C_9  and  N_10 
ROOT
HETATM    1  N   UNL     1      40.503 -14.237   3.454  1.00  0.00    -0.066 N 
HETATM    2  H   UNL     1      39.650 -13.660   3.402  1.00  0.00     0.280 HD
HETATM    3  C   UNL     1      40.609 -14.643   4.913  1.00  0.00     0.246 C 
HETATM    4  C   UNL     1      42.048 -14.984   5.354  1.00  0.00     0.062 C 
HETATM    5  C   UNL     1      42.967 -13.811   5.040  1.00  0.00     0.020 C 
HETATM    6  C   UNL     1      42.988 -13.637   3.529  1.00  0.00     0.031 C 
HETATM    7  C   UNL     1      43.596 -14.879   2.879  1.00  0.00     0.138 C 
HETATM    8  N   UNL     1      43.208 -16.163   3.461  1.00  0.00    -0.317 N 
HETATM    9  C   UNL     1      42.563 -16.252   4.698  1.00  0.00     0.020 A 
HETATM   10  C   UNL     1      42.388 -17.455   5.274  1.00  0.00     0.026 A 
HETATM   11  C   UNL     1      43.650 -17.299   2.765  1.00  0.00     0.247 A 
HETATM   12  O   UNL     1      44.155 -17.257   1.646  1.00  0.00    -0.268 OA
HETATM   13  C   UNL     1      43.441 -18.605   3.431  1.00  0.00     0.074 A 
HETATM   14  C   UNL     1      42.846 -18.657   4.627  1.00  0.00     0.007 A 
HETATM   15  C   UNL     1      41.595 -13.298   2.995  1.00  0.00     0.241 C 
ENDROOT
BRANCH   1  16
HETATM   16  C   UNL     1      40.130 -15.391   2.534  1.00  0.00     0.274 C 
BRANCH  16  17
HETATM   17  C   UNL     1      40.220 -15.115   1.055  1.00  0.00    -0.012 A 
HETATM   18  C   UNL     1      39.353 -14.237   0.382  1.00  0.00     0.054 A 
HETATM   19  C   UNL     1      39.507 -14.026  -0.993  1.00  0.00     0.117 A 
HETATM   20 BR   UNL     1      37.971 -13.317   1.319  1.00  0.00    -0.047 Br
HETATM   21  C   UNL     1      40.493 -14.696  -1.729  1.00  0.00     0.102 A 
HETATM   22  C   UNL     1      41.346 -15.575  -1.070  1.00  0.00     0.040 A 
HETATM   23  C   UNL     1      41.211 -15.780   0.308  1.00  0.00     0.013 A 
BRANCH  19  24
HETATM   24  O   UNL     1      38.685 -13.146  -1.649  1.00  0.00    -0.357 OA
HETATM   25  H   UNL     1      37.974 -12.915  -1.016  1.00  0.00     0.218 HD
ENDBRANCH  19  24
BRANCH  21  26
HETATM   26  O   UNL     1      40.521 -14.399  -3.066  1.00  0.00    -0.353 OA
HETATM   27  C   UNL     1      41.561 -13.533  -3.511  1.00  0.00     0.210 C 
ENDBRANCH  21  26
ENDBRANCH  16  17
ENDBRANCH   1  16
TORSDOF 4
ENDMDL
MODEL 7
REMARK VINA RESULT:      -7.0      1.894      2.415
REMARK  4 active torsions:
REMARK  status: ('A' for Active; 'I' for Inactive)
REMARK    1  A    between atoms: O_2  and  C_3 
REMARK    2  A    between atoms: C_4  and  O_5 
REMARK    3  A    between atoms: C_8  and  C_9 
REMARK    4  A    between atoms: C_9  and  N_10 
ROOT
HETATM    1  N   UNL     1      41.965 -14.581   3.644  1.00  0.00    -0.066 N 
HETATM    2  H   UNL     1      42.317 -14.802   4.588  1.00  0.00     0.280 HD
HETATM    3  C   UNL     1      41.815 -13.070   3.629  1.00  0.00     0.246 C 
HETATM    4  C   UNL     1      40.783 -12.564   2.597  1.00  0.00     0.062 C 
HETATM    5  C   UNL     1      39.444 -13.249   2.841  1.00  0.00     0.020 C 
HETATM    6  C   UNL     1      39.638 -14.737   2.591  1.00  0.00     0.031 C 
HETATM    7  C   UNL     1      40.008 -14.966   1.127  1.00  0.00     0.138 C 
HETATM    8  N   UNL     1      40.936 -14.000   0.540  1.00  0.00    -0.317 N 
HETATM    9  C   UNL     1      41.242 -12.790   1.169  1.00  0.00     0.020 A 
HETATM   10  C   UNL     1      41.956 -11.859   0.511  1.00  0.00     0.026 A 
HETATM   11  C   UNL     1      41.386 -14.305  -0.754  1.00  0.00     0.247 A 
HETATM   12  O   UNL     1      41.192 -15.386  -1.305  1.00  0.00    -0.268 OA
HETATM   13  C   UNL     1      42.167 -13.255  -1.447  1.00  0.00     0.074 A 
HETATM   14  C   UNL     1      42.421 -12.096  -0.831  1.00  0.00     0.007 A 
HETATM   15  C   UNL     1      40.654 -15.330   3.569  1.00  0.00     0.241 C 
ENDROOT
BRANCH   1  16
HETATM   16  C   UNL     1      43.114 -15.080   2.780  1.00  0.00     0.274 C 
BRANCH  16  17
HETATM   17  C   UNL     1      43.387 -16.562   2.831  1.00  0.00    -0.012 A 
HETATM   18  C   UNL     1      43.652 -17.255   4.024  1.00  0.00     0.054 A 
HETATM   19  C   UNL     1      43.885 -18.634   3.990  1.00  0.00     0.117 A 
HETATM   20 BR   UNL     1      43.688 -16.343   5.698  1.00  0.00    -0.047 Br
HETATM   21  C   UNL     1      43.891 -19.344   2.782  1.00  0.00     0.102 A 
HETATM   22  C   UNL     1      43.641 -18.661   1.597  1.00  0.00     0.040 A 
HETATM   23  C   UNL     1      43.389 -17.285   1.622  1.00  0.00     0.013 A 
BRANCH  19  24
HETATM   24  O   UNL     1      44.113 -19.322   5.155  1.00  0.00    -0.357 OA
HETATM   25  H   UNL     1      44.148 -18.649   5.864  1.00  0.00     0.218 HD
ENDBRANCH  19  24
BRANCH  21  26
HETATM   26  O   UNL     1      44.144 -20.686   2.899  1.00  0.00    -0.353 OA
HETATM   27  C   UNL     1      43.790 -21.506   1.789  1.00  0.00     0.210 C 
ENDBRANCH  21  26
ENDBRANCH  16  17
ENDBRANCH   1  16
TORSDOF 4
ENDMDL
MODEL 8
REMARK VINA RESULT:      -6.7      2.808      6.525
REMARK  4 active torsions:
REMARK  status: ('A' for Active; 'I' for Inactive)
REMARK    1  A    between atoms: O_2  and  C_3 
REMARK    2  A    between atoms: C_4  and  O_5 
REMARK    3  A    between atoms: C_8  and  C_9 
REMARK    4  A    between atoms: C_9  and  N_10 
ROOT
HETATM    1  N   UNL     1      40.373 -13.987   3.635  1.00  0.00    -0.066 N 
HETATM    2  H   UNL     1      39.523 -13.405   3.590  1.00  0.00     0.280 HD
HETATM    3  C   UNL     1      40.364 -14.579   5.034  1.00  0.00     0.246 C 
HETATM    4  C   UNL     1      41.766 -14.981   5.541  1.00  0.00     0.062 C 
HETATM    5  C   UNL     1      42.699 -13.780   5.457  1.00  0.00     0.020 C 
HETATM    6  C   UNL     1      42.840 -13.412   3.987  1.00  0.00     0.031 C 
HETATM    7  C   UNL     1      43.506 -14.562   3.233  1.00  0.00     0.138 C 
HETATM    8  N   UNL     1      43.081 -15.909   3.612  1.00  0.00    -0.317 N 
HETATM    9  C   UNL     1      42.340 -16.155   4.771  1.00  0.00     0.020 A 
HETATM   10  C   UNL     1      42.127 -17.421   5.169  1.00  0.00     0.026 A 
HETATM   11  C   UNL     1      43.585 -16.947   2.812  1.00  0.00     0.247 A 
HETATM   12  O   UNL     1      44.178 -16.762   1.752  1.00  0.00    -0.268 OA
HETATM   13  C   UNL     1      43.332 -18.327   3.284  1.00  0.00     0.074 A 
HETATM   14  C   UNL     1      42.643 -18.531   4.412  1.00  0.00     0.007 A 
HETATM   15  C   UNL     1      41.492 -13.002   3.391  1.00  0.00     0.241 C 
ENDROOT
BRANCH   1  16
HETATM   16  C   UNL     1      40.082 -15.011   2.547  1.00  0.00     0.274 C 
BRANCH  16  17
HETATM   17  C   UNL     1      39.422 -14.483   1.299  1.00  0.00    -0.012 A 
HETATM   18  C   UNL     1      39.999 -14.584   0.022  1.00  0.00     0.054 A 
HETATM   19  C   UNL     1      39.318 -14.077  -1.090  1.00  0.00     0.117 A 
HETATM   20 BR   UNL     1      41.697 -15.416  -0.222  1.00  0.00    -0.047 Br
HETATM   21  C   UNL     1      38.078 -13.438  -0.959  1.00  0.00     0.102 A 
HETATM   22  C   UNL     1      37.508 -13.324   0.304  1.00  0.00     0.040 A 
HETATM   23  C   UNL     1      38.173 -13.843   1.421  1.00  0.00     0.013 A 
BRANCH  19  24
HETATM   24  O   UNL     1      39.861 -14.202  -2.344  1.00  0.00    -0.357 OA
HETATM   25  H   UNL     1      40.089 -15.149  -2.447  1.00  0.00     0.218 HD
ENDBRANCH  19  24
BRANCH  21  26
HETATM   26  O   UNL     1      37.533 -12.983  -2.131  1.00  0.00    -0.353 OA
HETATM   27  C   UNL     1      37.047 -11.644  -2.137  1.00  0.00     0.210 C 
ENDBRANCH  21  26
ENDBRANCH  16  17
ENDBRANCH   1  16
TORSDOF 4
ENDMDL
MODEL 9
REMARK VINA RESULT:      -6.7      2.219      3.105
REMARK  4 active torsions:
REMARK  status: ('A' for Active; 'I' for Inactive)
REMARK    1  A    between atoms: O_2  and  C_3 
REMARK    2  A    between atoms: C_4  and  O_5 
REMARK    3  A    between atoms: C_8  and  C_9 
REMARK    4  A    between atoms: C_9  and  N_10 
ROOT
HETATM    1  N   UNL     1      41.623 -14.173   3.743  1.00  0.00    -0.066 N 
HETATM    2  H   UNL     1      41.916 -14.335   4.718  1.00  0.00     0.280 HD
HETATM    3  C   UNL     1      41.648 -12.665   3.574  1.00  0.00     0.246 C 
HETATM    4  C   UNL     1      40.716 -12.154   2.455  1.00  0.00     0.062 C 
HETATM    5  C   UNL     1      39.299 -12.657   2.706  1.00  0.00     0.020 C 
HETATM    6  C   UNL     1      39.329 -14.175   2.611  1.00  0.00     0.031 C 
HETATM    7  C   UNL     1      39.717 -14.592   1.193  1.00  0.00     0.138 C 
HETATM    8  N   UNL     1      40.768 -13.799   0.556  1.00  0.00    -0.317 N 
HETATM    9  C   UNL     1      41.191 -12.573   1.076  1.00  0.00     0.020 A 
HETATM   10  C   UNL     1      42.028 -11.800   0.363  1.00  0.00     0.026 A 
HETATM   11  C   UNL     1      41.220 -14.282  -0.682  1.00  0.00     0.247 A 
HETATM   12  O   UNL     1      40.921 -15.385  -1.133  1.00  0.00    -0.268 OA
HETATM   13  C   UNL     1      42.139 -13.402  -1.439  1.00  0.00     0.074 A 
HETATM   14  C   UNL     1      42.505 -12.222  -0.928  1.00  0.00     0.007 A 
HETATM   15  C   UNL     1      40.238 -14.776   3.685  1.00  0.00     0.241 C 
ENDROOT
BRANCH   1  16
HETATM   16  C   UNL     1      42.734 -14.883   2.983  1.00  0.00     0.274 C 
BRANCH  16  17
HETATM   17  C   UNL     1      43.225 -16.176   3.581  1.00  0.00    -0.012 A 
HETATM   18  C   UNL     1      43.510 -17.318   2.815  1.00  0.00     0.054 A 
HETATM   19  C   UNL     1      43.973 -18.480   3.443  1.00  0.00     0.117 A 
HETATM   20 BR   UNL     1      43.287 -17.308   0.921  1.00  0.00    -0.047 Br
HETATM   21  C   UNL     1      44.131 -18.544   4.834  1.00  0.00     0.102 A 
HETATM   22  C   UNL     1      43.840 -17.420   5.598  1.00  0.00     0.040 A 
HETATM   23  C   UNL     1      43.393 -16.248   4.978  1.00  0.00     0.013 A 
BRANCH  19  24
HETATM   24  O   UNL     1      44.284 -19.589   2.697  1.00  0.00    -0.357 OA
HETATM   25  H   UNL     1      45.105 -19.367   2.212  1.00  0.00     0.218 HD
ENDBRANCH  19  24
BRANCH  21  26
HETATM   26  O   UNL     1      44.581 -19.747   5.312  1.00  0.00    -0.353 OA
HETATM   27  C   UNL     1      43.928 -20.265   6.467  1.00  0.00     0.210 C 
ENDBRANCH  21  26
ENDBRANCH  16  17
ENDBRANCH   1  16
TORSDOF 4
ENDMDL
MODEL 10
REMARK VINA RESULT:      -6.7      2.913      7.100
REMARK  4 active torsions:
REMARK  status: ('A' for Active; 'I' for Inactive)
REMARK    1  A    between atoms: O_2  and  C_3 
REMARK    2  A    between atoms: C_4  and  O_5 
REMARK    3  A    between atoms: C_8  and  C_9 
REMARK    4  A    between atoms: C_9  and  N_10 
ROOT
HETATM    1  N   UNL     1      40.551 -16.118   1.166  1.00  0.00    -0.066 N 
HETATM    2  H   UNL     1      39.871 -16.017   0.396  1.00  0.00     0.280 HD
HETATM    3  C   UNL     1      41.780 -15.358   0.700  1.00  0.00     0.246 C 
HETATM    4  C   UNL     1      43.089 -15.838   1.363  1.00  0.00     0.062 C 
HETATM    5  C   UNL     1      43.250 -17.337   1.141  1.00  0.00     0.020 C 
HETATM    6  C   UNL     1      42.101 -18.032   1.856  1.00  0.00     0.031 C 
HETATM    7  C   UNL     1      42.205 -17.779   3.359  1.00  0.00     0.138 C 
HETATM    8  N   UNL     1      42.604 -16.430   3.757  1.00  0.00    -0.317 N 
HETATM    9  C   UNL     1      43.134 -15.513   2.845  1.00  0.00     0.020 A 
HETATM   10  C   UNL     1      43.650 -14.354   3.288  1.00  0.00     0.026 A 
HETATM   11  C   UNL     1      42.550 -16.167   5.135  1.00  0.00     0.247 A 
HETATM   12  O   UNL     1      42.027 -16.921   5.951  1.00  0.00    -0.268 OA
HETATM   13  C   UNL     1      43.129 -14.881   5.585  1.00  0.00     0.074 A 
HETATM   14  C   UNL     1      43.654 -14.036   4.693  1.00  0.00     0.007 A 
HETATM   15  C   UNL     1      40.753 -17.612   1.267  1.00  0.00     0.241 C 
ENDROOT
BRANCH   1  16
HETATM   16  C   UNL     1      39.810 -15.426   2.301  1.00  0.00     0.274 C 
BRANCH  16  17
HETATM   17  C   UNL     1      39.006 -14.209   1.923  1.00  0.00    -0.012 A 
HETATM   18  C   UNL     1      39.070 -12.995   2.627  1.00  0.00     0.054 A 
HETATM   19  C   UNL     1      38.298 -11.905   2.207  1.00  0.00     0.117 A 
HETATM   20 BR   UNL     1      40.206 -12.804   4.147  1.00  0.00    -0.047 Br
HETATM   21  C   UNL     1      37.432 -12.004   1.110  1.00  0.00     0.102 A 
HETATM   22  C   UNL     1      37.356 -13.206   0.416  1.00  0.00     0.040 A 
HETATM   23  C   UNL     1      38.136 -14.296   0.818  1.00  0.00     0.013 A 
BRANCH  19  24
HETATM   24  O   UNL     1      38.380 -10.708   2.871  1.00  0.00    -0.357 OA
HETATM   25  H   UNL     1      39.131 -10.795   3.494  1.00  0.00     0.218 HD
ENDBRANCH  19  24
BRANCH  21  26
HETATM   26  O   UNL     1      36.732 -10.862   0.819  1.00  0.00    -0.353 OA
HETATM   27  C   UNL     1      35.314 -10.979   0.741  1.00  0.00     0.210 C 
ENDBRANCH  21  26
ENDBRANCH  16  17
ENDBRANCH   1  16
TORSDOF 4
ENDMDL
