MODEL 1
REMARK VINA RESULT:      -8.1      0.000      0.000
REMARK  6 active torsions:
REMARK  status: ('A' for Active; 'I' for Inactive)
REMARK    1  A    between atoms: C_2  and  O_3 
REMARK    2  A    between atoms: O_3  and  C_4 
REMARK    3  A    between atoms: C_4  and  C_5 
REMARK    4  A    between atoms: C_8  and  C_9 
REMARK    5  A    between atoms: C_9  and  N_10 
REMARK    6  A    between atoms: N_10  and  C_11 
ROOT
HETATM    1  N   UNL     1      40.674 -16.228   0.543  1.00  0.00    -0.220 N 
HETATM    2  H   UNL     1      39.797 -16.722   0.456  1.00  0.00     0.178 HD
ENDROOT
BRANCH   1   3
HETATM    3  C   UNL     1      41.143 -16.074   1.905  1.00  0.00     0.176 C 
BRANCH   3   4
HETATM    4  C   UNL     1      42.124 -17.172   2.232  1.00  0.00    -0.040 A 
HETATM    5  C   UNL     1      42.285 -17.607   3.555  1.00  0.00     0.009 A 
HETATM    6  C   UNL     1      43.177 -18.637   3.858  1.00  0.00     0.010 A 
HETATM    7  C   UNL     1      43.937 -19.244   2.848  1.00  0.00    -0.035 A 
HETATM    8  C   UNL     1      43.787 -18.799   1.529  1.00  0.00     0.010 A 
HETATM    9  C   UNL     1      42.893 -17.769   1.224  1.00  0.00     0.009 A 
BRANCH   7  10
HETATM   10  C   UNL     1      44.863 -20.385   3.179  1.00  0.00     0.206 C 
BRANCH  10  11
HETATM   11  O   UNL     1      45.144 -20.333   4.574  1.00  0.00    -0.382 OA
BRANCH  11  12
HETATM   12  C   UNL     1      45.025 -21.594   5.234  1.00  0.00     0.113 C 
HETATM   13  C   UNL     1      44.561 -22.673   4.260  1.00  0.00     0.039 C 
HETATM   14  C   UNL     1      44.000 -21.415   6.349  1.00  0.00     0.039 C 
ENDBRANCH  11  12
ENDBRANCH  10  11
ENDBRANCH   7  10
ENDBRANCH   3   4
ENDBRANCH   1   3
BRANCH   1  15
HETATM   15  C   UNL     1      40.997 -15.322  -0.421  1.00  0.00     0.704 A 
HETATM   16  N   UNL     1      41.583 -14.199  -0.155  1.00  0.00    -0.064 NA
HETATM   17  C   UNL     1      41.876 -13.320  -1.211  1.00  0.00     0.091 A 
HETATM   18  C   UNL     1      41.565 -13.613  -2.539  1.00  0.00     0.062 A 
HETATM   19  C   UNL     1      42.502 -12.105  -0.925  1.00  0.00     0.033 A 
HETATM   20  C   UNL     1      40.910 -14.902  -2.804  1.00  0.00     0.272 A 
HETATM   21  C   UNL     1      41.865 -12.721  -3.574  1.00  0.00     0.019 A 
HETATM   22  O   UNL     1      40.607 -15.261  -3.936  1.00  0.00    -0.267 OA
HETATM   23  N   UNL     1      40.660 -15.677  -1.699  1.00  0.00    -0.154 N 
HETATM   24  H   UNL     1      40.239 -16.572  -1.881  1.00  0.00     0.187 HD
HETATM   25  C   UNL     1      42.489 -11.511  -3.272  1.00  0.00     0.001 A 
HETATM   26  C   UNL     1      42.807 -11.203  -1.949  1.00  0.00     0.002 A 
ENDBRANCH   1  15
TORSDOF 6
ENDMDL
MODEL 2
REMARK VINA RESULT:      -7.9      6.653      8.830
REMARK  6 active torsions:
REMARK  status: ('A' for Active; 'I' for Inactive)
REMARK    1  A    between atoms: C_2  and  O_3 
REMARK    2  A    between atoms: O_3  and  C_4 
REMARK    3  A    between atoms: C_4  and  C_5 
REMARK    4  A    between atoms: C_8  and  C_9 
REMARK    5  A    between atoms: C_9  and  N_10 
REMARK    6  A    between atoms: N_10  and  C_11 
ROOT
HETATM    1  N   UNL     1      44.903 -14.758   6.867  1.00  0.00    -0.220 N 
HETATM    2  H   UNL     1      45.392 -14.703   5.985  1.00  0.00     0.178 HD
ENDROOT
BRANCH   1   3
HETATM    3  C   UNL     1      43.693 -15.554   6.834  1.00  0.00     0.176 C 
BRANCH   3   4
HETATM    4  C   UNL     1      43.785 -16.573   5.725  1.00  0.00    -0.040 A 
HETATM    5  C   UNL     1      44.454 -17.787   5.932  1.00  0.00     0.009 A 
HETATM    6  C   UNL     1      44.524 -18.740   4.915  1.00  0.00     0.010 A 
HETATM    7  C   UNL     1      43.938 -18.494   3.666  1.00  0.00    -0.035 A 
HETATM    8  C   UNL     1      43.282 -17.276   3.454  1.00  0.00     0.010 A 
HETATM    9  C   UNL     1      43.211 -16.321   4.472  1.00  0.00     0.009 A 
BRANCH   7  10
HETATM   10  C   UNL     1      43.979 -19.548   2.589  1.00  0.00     0.206 C 
BRANCH  10  11
HETATM   11  O   UNL     1      44.973 -20.502   2.947  1.00  0.00    -0.382 OA
BRANCH  11  12
HETATM   12  C   UNL     1      44.709 -21.819   2.461  1.00  0.00     0.113 C 
HETATM   13  C   UNL     1      43.450 -21.837   1.599  1.00  0.00     0.039 C 
HETATM   14  C   UNL     1      44.523 -22.713   3.683  1.00  0.00     0.039 C 
ENDBRANCH  11  12
ENDBRANCH  10  11
ENDBRANCH   7  10
ENDBRANCH   3   4
ENDBRANCH   1   3
BRANCH   1  15
HETATM   15  C   UNL     1      45.044 -13.725   7.744  1.00  0.00     0.704 A 
HETATM   16  N   UNL     1      44.258 -13.559   8.760  1.00  0.00    -0.064 NA
HETATM   17  C   UNL     1      44.472 -12.463   9.611  1.00  0.00     0.091 A 
HETATM   18  C   UNL     1      45.505 -11.546   9.408  1.00  0.00     0.062 A 
HETATM   19  C   UNL     1      43.622 -12.279  10.702  1.00  0.00     0.033 A 
HETATM   20  C   UNL     1      46.382 -11.773   8.250  1.00  0.00     0.272 A 
HETATM   21  C   UNL     1      45.697 -10.460  10.268  1.00  0.00     0.019 A 
HETATM   22  O   UNL     1      47.326 -11.035   7.991  1.00  0.00    -0.267 OA
HETATM   23  N   UNL     1      46.076 -12.866   7.480  1.00  0.00    -0.154 N 
HETATM   24  H   UNL     1      46.692 -13.040   6.705  1.00  0.00     0.187 HD
HETATM   25  C   UNL     1      44.839 -10.289  11.353  1.00  0.00     0.001 A 
HETATM   26  C   UNL     1      43.802 -11.197  11.571  1.00  0.00     0.002 A 
ENDBRANCH   1  15
TORSDOF 6
ENDMDL
MODEL 3
REMARK VINA RESULT:      -7.8      1.587      2.194
REMARK  6 active torsions:
REMARK  status: ('A' for Active; 'I' for Inactive)
REMARK    1  A    between atoms: C_2  and  O_3 
REMARK    2  A    between atoms: O_3  and  C_4 
REMARK    3  A    between atoms: C_4  and  C_5 
REMARK    4  A    between atoms: C_8  and  C_9 
REMARK    5  A    between atoms: C_9  and  N_10 
REMARK    6  A    between atoms: N_10  and  C_11 
ROOT
HETATM    1  N   UNL     1      41.586 -15.197   0.613  1.00  0.00    -0.220 N 
HETATM    2  H   UNL     1      41.990 -14.924   1.498  1.00  0.00     0.178 HD
ENDROOT
BRANCH   1   3
HETATM    3  C   UNL     1      41.467 -16.629   0.424  1.00  0.00     0.176 C 
BRANCH   3   4
HETATM    4  C   UNL     1      42.163 -17.350   1.551  1.00  0.00    -0.040 A 
HETATM    5  C   UNL     1      43.367 -18.029   1.321  1.00  0.00     0.009 A 
HETATM    6  C   UNL     1      44.024 -18.680   2.366  1.00  0.00     0.010 A 
HETATM    7  C   UNL     1      43.485 -18.679   3.659  1.00  0.00    -0.035 A 
HETATM    8  C   UNL     1      42.274 -18.013   3.886  1.00  0.00     0.010 A 
HETATM    9  C   UNL     1      41.616 -17.360   2.841  1.00  0.00     0.009 A 
BRANCH   7  10
HETATM   10  C   UNL     1      44.224 -19.346   4.790  1.00  0.00     0.206 C 
BRANCH  10  11
HETATM   11  O   UNL     1      43.387 -19.316   5.941  1.00  0.00    -0.382 OA
BRANCH  11  12
HETATM   12  C   UNL     1      43.990 -18.695   7.077  1.00  0.00     0.113 C 
HETATM   13  C   UNL     1      43.062 -17.642   7.675  1.00  0.00     0.039 C 
HETATM   14  C   UNL     1      45.281 -18.045   6.593  1.00  0.00     0.039 C 
ENDBRANCH  11  12
ENDBRANCH  10  11
ENDBRANCH   7  10
ENDBRANCH   3   4
ENDBRANCH   1   3
BRANCH   1  15
HETATM   15  C   UNL     1      41.737 -14.355  -0.447  1.00  0.00     0.704 A 
HETATM   16  N   UNL     1      42.170 -13.141  -0.318  1.00  0.00    -0.064 NA
HETATM   17  C   UNL     1      42.290 -12.340  -1.465  1.00  0.00     0.091 A 
HETATM   18  C   UNL     1      41.967 -12.802  -2.741  1.00  0.00     0.062 A 
HETATM   19  C   UNL     1      42.750 -11.029  -1.327  1.00  0.00     0.033 A 
HETATM   20  C   UNL     1      41.489 -14.188  -2.849  1.00  0.00     0.272 A 
HETATM   21  C   UNL     1      42.093 -11.983  -3.868  1.00  0.00     0.019 A 
HETATM   22  O   UNL     1      41.191 -14.695  -3.924  1.00  0.00    -0.267 OA
HETATM   23  N   UNL     1      41.398 -14.877  -1.666  1.00  0.00    -0.154 N 
HETATM   24  H   UNL     1      41.100 -15.834  -1.740  1.00  0.00     0.187 HD
HETATM   25  C   UNL     1      42.553 -10.677  -3.715  1.00  0.00     0.001 A 
HETATM   26  C   UNL     1      42.881 -10.199  -2.445  1.00  0.00     0.002 A 
ENDBRANCH   1  15
TORSDOF 6
ENDMDL
MODEL 4
REMARK VINA RESULT:      -7.8      8.039     10.484
REMARK  6 active torsions:
REMARK  status: ('A' for Active; 'I' for Inactive)
REMARK    1  A    between atoms: C_2  and  O_3 
REMARK    2  A    between atoms: O_3  and  C_4 
REMARK    3  A    between atoms: C_4  and  C_5 
REMARK    4  A    between atoms: C_8  and  C_9 
REMARK    5  A    between atoms: C_9  and  N_10 
REMARK    6  A    between atoms: N_10  and  C_11 
ROOT
HETATM    1  N   UNL     1      43.732 -13.654   7.084  1.00  0.00    -0.220 N 
HETATM    2  H   UNL     1      43.124 -12.904   6.784  1.00  0.00     0.178 HD
ENDROOT
BRANCH   1   3
HETATM    3  C   UNL     1      44.938 -13.216   7.756  1.00  0.00     0.176 C 
BRANCH   3   4
HETATM    4  C   UNL     1      44.582 -12.268   8.874  1.00  0.00    -0.040 A 
HETATM    5  C   UNL     1      43.404 -11.510   8.811  1.00  0.00     0.009 A 
HETATM    6  C   UNL     1      43.062 -10.646   9.853  1.00  0.00     0.010 A 
HETATM    7  C   UNL     1      43.895 -10.512  10.972  1.00  0.00    -0.035 A 
HETATM    8  C   UNL     1      45.079 -11.258  11.028  1.00  0.00     0.010 A 
HETATM    9  C   UNL     1      45.422 -12.123   9.985  1.00  0.00     0.009 A 
BRANCH   7  10
HETATM   10  C   UNL     1      43.494  -9.612  12.111  1.00  0.00     0.206 C 
BRANCH  10  11
HETATM   11  O   UNL     1      42.077  -9.475  12.085  1.00  0.00    -0.382 OA
BRANCH  11  12
HETATM   12  C   UNL     1      41.427  -9.980  13.253  1.00  0.00     0.113 C 
HETATM   13  C   UNL     1      42.418 -10.126  14.404  1.00  0.00     0.039 C 
HETATM   14  C   UNL     1      40.846 -11.341  12.882  1.00  0.00     0.039 C 
ENDBRANCH  11  12
ENDBRANCH  10  11
ENDBRANCH   7  10
ENDBRANCH   3   4
ENDBRANCH   1   3
BRANCH   1  15
HETATM   15  C   UNL     1      43.697 -14.823   6.387  1.00  0.00     0.704 A 
HETATM   16  N   UNL     1      44.282 -15.902   6.802  1.00  0.00    -0.064 NA
HETATM   17  C   UNL     1      44.199 -17.063   6.018  1.00  0.00     0.091 A 
HETATM   18  C   UNL     1      43.506 -17.103   4.807  1.00  0.00     0.062 A 
HETATM   19  C   UNL     1      44.835 -18.224   6.461  1.00  0.00     0.033 A 
HETATM   20  C   UNL     1      42.847 -15.864   4.373  1.00  0.00     0.272 A 
HETATM   21  C   UNL     1      43.441 -18.272   4.041  1.00  0.00     0.019 A 
HETATM   22  O   UNL     1      42.202 -15.796   3.333  1.00  0.00    -0.267 OA
HETATM   23  N   UNL     1      43.001 -14.787   5.209  1.00  0.00    -0.154 N 
HETATM   24  H   UNL     1      42.526 -13.946   4.929  1.00  0.00     0.187 HD
HETATM   25  C   UNL     1      44.081 -19.423   4.497  1.00  0.00     0.001 A 
HETATM   26  C   UNL     1      44.778 -19.400   5.706  1.00  0.00     0.002 A 
ENDBRANCH   1  15
TORSDOF 6
ENDMDL
MODEL 5
REMARK VINA RESULT:      -7.7      8.122     10.668
REMARK  6 active torsions:
REMARK  status: ('A' for Active; 'I' for Inactive)
REMARK    1  A    between atoms: C_2  and  O_3 
REMARK    2  A    between atoms: O_3  and  C_4 
REMARK    3  A    between atoms: C_4  and  C_5 
REMARK    4  A    between atoms: C_8  and  C_9 
REMARK    5  A    between atoms: C_9  and  N_10 
REMARK    6  A    between atoms: N_10  and  C_11 
ROOT
HETATM    1  N   UNL     1      43.700 -13.486   7.141  1.00  0.00    -0.220 N 
HETATM    2  H   UNL     1      43.267 -12.721   6.643  1.00  0.00     0.178 HD
ENDROOT
BRANCH   1   3
HETATM    3  C   UNL     1      44.843 -13.107   7.947  1.00  0.00     0.176 C 
BRANCH   3   4
HETATM    4  C   UNL     1      44.408 -12.149   9.027  1.00  0.00    -0.040 A 
HETATM    5  C   UNL     1      45.122 -12.066  10.231  1.00  0.00     0.009 A 
HETATM    6  C   UNL     1      44.734 -11.165  11.224  1.00  0.00     0.010 A 
HETATM    7  C   UNL     1      43.617 -10.339  11.041  1.00  0.00    -0.035 A 
HETATM    8  C   UNL     1      42.895 -10.432   9.845  1.00  0.00     0.010 A 
HETATM    9  C   UNL     1      43.283 -11.333   8.849  1.00  0.00     0.009 A 
BRANCH   7  10
HETATM   10  C   UNL     1      43.233  -9.338  12.100  1.00  0.00     0.206 C 
BRANCH  10  11
HETATM   11  O   UNL     1      41.812  -9.311  12.184  1.00  0.00    -0.382 OA
BRANCH  11  12
HETATM   12  C   UNL     1      41.293  -9.908  13.373  1.00  0.00     0.113 C 
HETATM   13  C   UNL     1      42.394 -10.089  14.414  1.00  0.00     0.039 C 
HETATM   14  C   UNL     1      40.718 -11.263  12.974  1.00  0.00     0.039 C 
ENDBRANCH  11  12
ENDBRANCH  10  11
ENDBRANCH   7  10
ENDBRANCH   3   4
ENDBRANCH   1   3
BRANCH   1  15
HETATM   15  C   UNL     1      43.593 -14.737   6.613  1.00  0.00     0.704 A 
HETATM   16  N   UNL     1      43.543 -14.954   5.337  1.00  0.00    -0.064 NA
HETATM   17  C   UNL     1      43.428 -16.276   4.878  1.00  0.00     0.091 A 
HETATM   18  C   UNL     1      43.369 -17.368   5.744  1.00  0.00     0.062 A 
HETATM   19  C   UNL     1      43.367 -16.511   3.503  1.00  0.00     0.033 A 
HETATM   20  C   UNL     1      43.438 -17.084   7.185  1.00  0.00     0.272 A 
HETATM   21  C   UNL     1      43.251 -18.677   5.263  1.00  0.00     0.019 A 
HETATM   22  O   UNL     1      43.409 -17.972   8.029  1.00  0.00    -0.267 OA
HETATM   23  N   UNL     1      43.539 -15.758   7.522  1.00  0.00    -0.154 N 
HETATM   24  H   UNL     1      43.616 -15.563   8.506  1.00  0.00     0.187 HD
HETATM   25  C   UNL     1      43.191 -18.896   3.888  1.00  0.00     0.001 A 
HETATM   26  C   UNL     1      43.249 -17.814   3.008  1.00  0.00     0.002 A 
ENDBRANCH   1  15
TORSDOF 6
ENDMDL
MODEL 6
REMARK VINA RESULT:      -7.6      4.387      5.734
REMARK  6 active torsions:
REMARK  status: ('A' for Active; 'I' for Inactive)
REMARK    1  A    between atoms: C_2  and  O_3 
REMARK    2  A    between atoms: O_3  and  C_4 
REMARK    3  A    between atoms: C_4  and  C_5 
REMARK    4  A    between atoms: C_8  and  C_9 
REMARK    5  A    between atoms: C_9  and  N_10 
REMARK    6  A    between atoms: N_10  and  C_11 
ROOT
HETATM    1  N   UNL     1      41.597 -15.310   6.290  1.00  0.00    -0.220 N 
HETATM    2  H   UNL     1      41.231 -15.756   7.119  1.00  0.00     0.178 HD
ENDROOT
BRANCH   1   3
HETATM    3  C   UNL     1      43.043 -15.280   6.213  1.00  0.00     0.176 C 
BRANCH   3   4
HETATM    4  C   UNL     1      43.558 -16.629   5.777  1.00  0.00    -0.040 A 
HETATM    5  C   UNL     1      43.083 -17.220   4.598  1.00  0.00     0.009 A 
HETATM    6  C   UNL     1      43.572 -18.459   4.180  1.00  0.00     0.010 A 
HETATM    7  C   UNL     1      44.535 -19.138   4.939  1.00  0.00    -0.035 A 
HETATM    8  C   UNL     1      44.999 -18.555   6.124  1.00  0.00     0.010 A 
HETATM    9  C   UNL     1      44.510 -17.314   6.543  1.00  0.00     0.009 A 
BRANCH   7  10
HETATM   10  C   UNL     1      45.090 -20.454   4.456  1.00  0.00     0.206 C 
BRANCH  10  11
HETATM   11  O   UNL     1      45.111 -20.426   3.033  1.00  0.00    -0.382 OA
BRANCH  11  12
HETATM   12  C   UNL     1      44.667 -21.641   2.426  1.00  0.00     0.113 C 
HETATM   13  C   UNL     1      43.306 -21.450   1.763  1.00  0.00     0.039 C 
HETATM   14  C   UNL     1      44.570 -22.681   3.537  1.00  0.00     0.039 C 
ENDBRANCH  11  12
ENDBRANCH  10  11
ENDBRANCH   7  10
ENDBRANCH   3   4
ENDBRANCH   1   3
BRANCH   1  15
HETATM   15  C   UNL     1      40.838 -14.351   5.690  1.00  0.00     0.704 A 
HETATM   16  N   UNL     1      40.603 -14.341   4.417  1.00  0.00    -0.064 NA
HETATM   17  C   UNL     1      39.814 -13.310   3.881  1.00  0.00     0.091 A 
HETATM   18  C   UNL     1      39.267 -12.296   4.670  1.00  0.00     0.062 A 
HETATM   19  C   UNL     1      39.565 -13.294   2.508  1.00  0.00     0.033 A 
HETATM   20  C   UNL     1      39.548 -12.346   6.112  1.00  0.00     0.272 A 
HETATM   21  C   UNL     1      38.486 -11.278   4.112  1.00  0.00     0.019 A 
HETATM   22  O   UNL     1      39.104 -11.513   6.893  1.00  0.00    -0.267 OA
HETATM   23  N   UNL     1      40.338 -13.389   6.525  1.00  0.00    -0.154 N 
HETATM   24  H   UNL     1      40.506 -13.442   7.515  1.00  0.00     0.187 HD
HETATM   25  C   UNL     1      38.247 -11.275   2.739  1.00  0.00     0.001 A 
HETATM   26  C   UNL     1      38.786 -12.282   1.937  1.00  0.00     0.002 A 
ENDBRANCH   1  15
TORSDOF 6
ENDMDL
MODEL 7
REMARK VINA RESULT:      -7.6      1.581      2.149
REMARK  6 active torsions:
REMARK  status: ('A' for Active; 'I' for Inactive)
REMARK    1  A    between atoms: C_2  and  O_3 
REMARK    2  A    between atoms: O_3  and  C_4 
REMARK    3  A    between atoms: C_4  and  C_5 
REMARK    4  A    between atoms: C_8  and  C_9 
REMARK    5  A    between atoms: C_9  and  N_10 
REMARK    6  A    between atoms: N_10  and  C_11 
ROOT
HETATM    1  N   UNL     1      40.832 -16.584   0.772  1.00  0.00    -0.220 N 
HETATM    2  H   UNL     1      40.401 -17.314   0.222  1.00  0.00     0.178 HD
ENDROOT
BRANCH   1   3
HETATM    3  C   UNL     1      40.466 -16.595   2.174  1.00  0.00     0.176 C 
BRANCH   3   4
HETATM    4  C   UNL     1      41.523 -17.321   2.969  1.00  0.00    -0.040 A 
HETATM    5  C   UNL     1      41.417 -17.422   4.363  1.00  0.00     0.009 A 
HETATM    6  C   UNL     1      42.382 -18.111   5.099  1.00  0.00     0.010 A 
HETATM    7  C   UNL     1      43.480 -18.702   4.460  1.00  0.00    -0.035 A 
HETATM    8  C   UNL     1      43.594 -18.589   3.069  1.00  0.00     0.010 A 
HETATM    9  C   UNL     1      42.628 -17.900   2.331  1.00  0.00     0.009 A 
BRANCH   7  10
HETATM   10  C   UNL     1      44.492 -19.482   5.258  1.00  0.00     0.206 C 
BRANCH  10  11
HETATM   11  O   UNL     1      45.205 -20.325   4.359  1.00  0.00    -0.382 OA
BRANCH  11  12
HETATM   12  C   UNL     1      45.166 -21.709   4.712  1.00  0.00     0.113 C 
HETATM   13  C   UNL     1      44.579 -22.542   3.577  1.00  0.00     0.039 C 
HETATM   14  C   UNL     1      44.292 -21.824   5.956  1.00  0.00     0.039 C 
ENDBRANCH  11  12
ENDBRANCH  10  11
ENDBRANCH   7  10
ENDBRANCH   3   4
ENDBRANCH   1   3
BRANCH   1  15
HETATM   15  C   UNL     1      41.178 -15.428   0.142  1.00  0.00     0.704 A 
HETATM   16  N   UNL     1      41.085 -15.276  -1.141  1.00  0.00    -0.064 NA
HETATM   17  C   UNL     1      41.469 -14.051  -1.708  1.00  0.00     0.091 A 
HETATM   18  C   UNL     1      41.943 -12.985  -0.943  1.00  0.00     0.062 A 
HETATM   19  C   UNL     1      41.375 -13.888  -3.092  1.00  0.00     0.033 A 
HETATM   20  C   UNL     1      42.026 -13.190   0.510  1.00  0.00     0.272 A 
HETATM   21  C   UNL     1      42.322 -11.774  -1.532  1.00  0.00     0.019 A 
HETATM   22  O   UNL     1      42.416 -12.314   1.273  1.00  0.00    -0.267 OA
HETATM   23  N   UNL     1      41.636 -14.428   0.956  1.00  0.00    -0.154 N 
HETATM   24  H   UNL     1      41.664 -14.561   1.953  1.00  0.00     0.187 HD
HETATM   25  C   UNL     1      42.224 -11.627  -2.914  1.00  0.00     0.001 A 
HETATM   26  C   UNL     1      41.750 -12.683  -3.694  1.00  0.00     0.002 A 
ENDBRANCH   1  15
TORSDOF 6
ENDMDL
MODEL 8
REMARK VINA RESULT:      -7.6      2.389      8.755
REMARK  6 active torsions:
REMARK  status: ('A' for Active; 'I' for Inactive)
REMARK    1  A    between atoms: C_2  and  O_3 
REMARK    2  A    between atoms: O_3  and  C_4 
REMARK    3  A    between atoms: C_4  and  C_5 
REMARK    4  A    between atoms: C_8  and  C_9 
REMARK    5  A    between atoms: C_9  and  N_10 
REMARK    6  A    between atoms: N_10  and  C_11 
ROOT
HETATM    1  N   UNL     1      42.467 -16.220   3.493  1.00  0.00    -0.220 N 
HETATM    2  H   UNL     1      42.987 -15.441   3.870  1.00  0.00     0.178 HD
ENDROOT
BRANCH   1   3
HETATM    3  C   UNL     1      41.028 -16.048   3.516  1.00  0.00     0.176 C 
BRANCH   3   4
HETATM    4  C   UNL     1      40.582 -15.325   2.270  1.00  0.00    -0.040 A 
HETATM    5  C   UNL     1      41.513 -14.976   1.282  1.00  0.00     0.009 A 
HETATM    6  C   UNL     1      41.101 -14.325   0.118  1.00  0.00     0.010 A 
HETATM    7  C   UNL     1      39.752 -13.996  -0.076  1.00  0.00    -0.035 A 
HETATM    8  C   UNL     1      38.824 -14.331   0.918  1.00  0.00     0.010 A 
HETATM    9  C   UNL     1      39.236 -14.984   2.083  1.00  0.00     0.009 A 
BRANCH   7  10
HETATM   10  C   UNL     1      39.310 -13.334  -1.355  1.00  0.00     0.206 C 
BRANCH  10  11
HETATM   11  O   UNL     1      38.734 -14.333  -2.190  1.00  0.00    -0.382 OA
BRANCH  11  12
HETATM   12  C   UNL     1      39.486 -14.598  -3.375  1.00  0.00     0.113 C 
HETATM   13  C   UNL     1      40.330 -15.858  -3.211  1.00  0.00     0.039 C 
HETATM   14  C   UNL     1      40.385 -13.389  -3.609  1.00  0.00     0.039 C 
ENDBRANCH  11  12
ENDBRANCH  10  11
ENDBRANCH   7  10
ENDBRANCH   3   4
ENDBRANCH   1   3
BRANCH   1  15
HETATM   15  C   UNL     1      43.030 -17.458   3.557  1.00  0.00     0.704 A 
HETATM   16  N   UNL     1      42.890 -18.339   2.617  1.00  0.00    -0.064 NA
HETATM   17  C   UNL     1      43.502 -19.593   2.768  1.00  0.00     0.091 A 
HETATM   18  C   UNL     1      44.262 -19.928   3.889  1.00  0.00     0.062 A 
HETATM   19  C   UNL     1      43.346 -20.546   1.759  1.00  0.00     0.033 A 
HETATM   20  C   UNL     1      44.407 -18.901   4.930  1.00  0.00     0.272 A 
HETATM   21  C   UNL     1      44.860 -21.187   4.017  1.00  0.00     0.019 A 
HETATM   22  O   UNL     1      45.064 -19.088   5.948  1.00  0.00    -0.267 OA
HETATM   23  N   UNL     1      43.759 -17.716   4.686  1.00  0.00    -0.154 N 
HETATM   24  H   UNL     1      43.881 -17.001   5.383  1.00  0.00     0.187 HD
HETATM   25  C   UNL     1      44.694 -22.127   3.003  1.00  0.00     0.001 A 
HETATM   26  C   UNL     1      43.939 -21.808   1.874  1.00  0.00     0.002 A 
ENDBRANCH   1  15
TORSDOF 6
ENDMDL
MODEL 9
REMARK VINA RESULT:      -7.5      7.861      9.748
REMARK  6 active torsions:
REMARK  status: ('A' for Active; 'I' for Inactive)
REMARK    1  A    between atoms: C_2  and  O_3 
REMARK    2  A    between atoms: O_3  and  C_4 
REMARK    3  A    between atoms: C_4  and  C_5 
REMARK    4  A    between atoms: C_8  and  C_9 
REMARK    5  A    between atoms: C_9  and  N_10 
REMARK    6  A    between atoms: N_10  and  C_11 
ROOT
HETATM    1  N   UNL     1      44.532 -13.442   8.694  1.00  0.00    -0.220 N 
HETATM    2  H   UNL     1      45.036 -14.100   9.272  1.00  0.00     0.178 HD
ENDROOT
BRANCH   1   3
HETATM    3  C   UNL     1      44.973 -13.394   7.315  1.00  0.00     0.176 C 
BRANCH   3   4
HETATM    4  C   UNL     1      44.312 -14.501   6.531  1.00  0.00    -0.040 A 
HETATM    5  C   UNL     1      44.195 -15.785   7.080  1.00  0.00     0.009 A 
HETATM    6  C   UNL     1      43.566 -16.806   6.366  1.00  0.00     0.010 A 
HETATM    7  C   UNL     1      43.052 -16.568   5.084  1.00  0.00    -0.035 A 
HETATM    8  C   UNL     1      43.181 -15.289   4.529  1.00  0.00     0.010 A 
HETATM    9  C   UNL     1      43.811 -14.266   5.244  1.00  0.00     0.009 A 
BRANCH   7  10
HETATM   10  C   UNL     1      42.335 -17.664   4.340  1.00  0.00     0.206 C 
BRANCH  10  11
HETATM   11  O   UNL     1      43.316 -18.508   3.746  1.00  0.00    -0.382 OA
BRANCH  11  12
HETATM   12  C   UNL     1      43.124 -18.719   2.347  1.00  0.00     0.113 C 
HETATM   13  C   UNL     1      43.453 -20.160   1.966  1.00  0.00     0.039 C 
HETATM   14  C   UNL     1      44.058 -17.756   1.621  1.00  0.00     0.039 C 
ENDBRANCH  11  12
ENDBRANCH  10  11
ENDBRANCH   7  10
ENDBRANCH   3   4
ENDBRANCH   1   3
BRANCH   1  15
HETATM   15  C   UNL     1      43.981 -12.352   9.297  1.00  0.00     0.704 A 
HETATM   16  N   UNL     1      44.141 -12.094  10.556  1.00  0.00    -0.064 NA
HETATM   17  C   UNL     1      43.532 -10.951  11.097  1.00  0.00     0.091 A 
HETATM   18  C   UNL     1      42.763 -10.076  10.328  1.00  0.00     0.062 A 
HETATM   19  C   UNL     1      43.698 -10.675  12.455  1.00  0.00     0.033 A 
HETATM   20  C   UNL     1      42.611 -10.396   8.902  1.00  0.00     0.272 A 
HETATM   21  C   UNL     1      42.164  -8.944  10.891  1.00  0.00     0.019 A 
HETATM   22  O   UNL     1      41.968  -9.685   8.137  1.00  0.00    -0.267 OA
HETATM   23  N   UNL     1      43.239 -11.541   8.482  1.00  0.00    -0.154 N 
HETATM   24  H   UNL     1      43.161 -11.746   7.501  1.00  0.00     0.187 HD
HETATM   25  C   UNL     1      42.338  -8.682  12.248  1.00  0.00     0.001 A 
HETATM   26  C   UNL     1      43.105  -9.547  13.031  1.00  0.00     0.002 A 
ENDBRANCH   1  15
TORSDOF 6
ENDMDL
MODEL 10
REMARK VINA RESULT:      -7.4      2.376      9.190
REMARK  6 active torsions:
REMARK  status: ('A' for Active; 'I' for Inactive)
REMARK    1  A    between atoms: C_2  and  O_3 
REMARK    2  A    between atoms: O_3  and  C_4 
REMARK    3  A    between atoms: C_4  and  C_5 
REMARK    4  A    between atoms: C_8  and  C_9 
REMARK    5  A    between atoms: C_9  and  N_10 
REMARK    6  A    between atoms: N_10  and  C_11 
ROOT
HETATM    1  N   UNL     1      43.044 -17.276   0.742  1.00  0.00    -0.220 N 
HETATM    2  H   UNL     1      43.747 -16.692   0.312  1.00  0.00     0.178 HD
ENDROOT
BRANCH   1   3
HETATM    3  C   UNL     1      41.710 -16.710   0.739  1.00  0.00     0.176 C 
BRANCH   3   4
HETATM    4  C   UNL     1      41.791 -15.217   0.536  1.00  0.00    -0.040 A 
HETATM    5  C   UNL     1      42.073 -14.370   1.616  1.00  0.00     0.009 A 
HETATM    6  C   UNL     1      42.170 -12.990   1.428  1.00  0.00     0.010 A 
HETATM    7  C   UNL     1      41.973 -12.428   0.159  1.00  0.00    -0.035 A 
HETATM    8  C   UNL     1      41.676 -13.273  -0.917  1.00  0.00     0.010 A 
HETATM    9  C   UNL     1      41.581 -14.654  -0.730  1.00  0.00     0.009 A 
BRANCH   7  10
HETATM   10  C   UNL     1      42.123 -10.942  -0.043  1.00  0.00     0.206 C 
BRANCH  10  11
HETATM   11  O   UNL     1      43.491 -10.675  -0.333  1.00  0.00    -0.382 OA
BRANCH  11  12
HETATM   12  C   UNL     1      43.683  -9.684  -1.344  1.00  0.00     0.113 C 
HETATM   13  C   UNL     1      43.210  -8.317  -0.859  1.00  0.00     0.039 C 
HETATM   14  C   UNL     1      42.868 -10.124  -2.556  1.00  0.00     0.039 C 
ENDBRANCH  11  12
ENDBRANCH  10  11
ENDBRANCH   7  10
ENDBRANCH   3   4
ENDBRANCH   1   3
BRANCH   1  15
HETATM   15  C   UNL     1      43.439 -18.144   1.714  1.00  0.00     0.704 A 
HETATM   16  N   UNL     1      43.605 -19.410   1.494  1.00  0.00    -0.064 NA
HETATM   17  C   UNL     1      44.011 -20.235   2.556  1.00  0.00     0.091 A 
HETATM   18  C   UNL     1      44.248 -19.743   3.840  1.00  0.00     0.062 A 
HETATM   19  C   UNL     1      44.183 -21.600   2.322  1.00  0.00     0.033 A 
HETATM   20  C   UNL     1      44.059 -18.300   4.049  1.00  0.00     0.272 A 
HETATM   21  C   UNL     1      44.649 -20.585   4.882  1.00  0.00     0.019 A 
HETATM   22  O   UNL     1      44.254 -17.766   5.135  1.00  0.00    -0.267 OA
HETATM   23  N   UNL     1      43.651 -17.591   2.948  1.00  0.00    -0.154 N 
HETATM   24  H   UNL     1      43.550 -16.599   3.081  1.00  0.00     0.187 HD
HETATM   25  C   UNL     1      44.816 -21.947   4.634  1.00  0.00     0.001 A 
HETATM   26  C   UNL     1      44.584 -22.454   3.355  1.00  0.00     0.002 A 
ENDBRANCH   1  15
TORSDOF 6
ENDMDL
