MODEL 1
REMARK VINA RESULT:      -8.7      0.000      0.000
REMARK  5 active torsions:
REMARK  status: ('A' for Active; 'I' for Inactive)
REMARK    1  A    between atoms: C_2  and  C_3 
REMARK    2  A    between atoms: C_2  and  C_9 
REMARK    3  A    between atoms: C_9  and  C_10 
REMARK       I    between atoms: C_10  and  N_11 
REMARK    4  A    between atoms: N_11  and  C_12 
REMARK    5  A    between atoms: C_19  and  C_20 
REMARK       I    between atoms: C_20  and  N_21 
ROOT
HETATM    1  C   UNL     1      40.450 -15.817   1.560  1.00  0.00     0.035 A 
HETATM    2  C   UNL     1      40.967 -15.555   0.284  1.00  0.00     0.046 A 
HETATM    3  C   UNL     1      40.330 -14.604  -0.544  1.00  0.00     0.030 A 
HETATM    4  C   UNL     1      39.201 -13.950  -0.069  1.00  0.00     0.063 A 
HETATM    5  N   UNL     1      38.817 -13.111  -1.078  1.00  0.00    -0.277 N 
HETATM    6  H   UNL     1      38.025 -12.478  -1.081  1.00  0.00     0.189 HD
HETATM    7  N   UNL     1      39.597 -13.157  -2.169  1.00  0.00    -0.168 NA
HETATM    8  C   UNL     1      40.540 -14.075  -1.854  1.00  0.00     0.156 A 
HETATM    9  C   UNL     1      38.661 -14.183   1.196  1.00  0.00     0.034 A 
HETATM   10  C   UNL     1      39.311 -15.129   1.999  1.00  0.00     0.032 A 
ENDROOT
BRANCH   1  11
HETATM   11  N   UNL     1      41.014 -16.749   2.460  1.00  0.00    -0.327 N 
HETATM   12  C   UNL     1      41.846 -16.487   3.539  1.00  0.00     0.222 C 
HETATM   13  O   UNL     1      42.258 -15.388   3.888  1.00  0.00    -0.273 OA
HETATM   14  H   UNL     1      40.802 -17.722   2.282  1.00  0.00     0.169 HD
BRANCH  12  15
HETATM   15  C   UNL     1      42.233 -17.767   4.264  1.00  0.00     0.112 C 
BRANCH  15  16
HETATM   16  C   UNL     1      43.739 -18.076   4.189  1.00  0.00     0.023 C 
HETATM   17  C   UNL     1      44.420 -17.941   5.557  1.00  0.00     0.015 C 
BRANCH  16  18
HETATM   18  C   UNL     1      43.964 -19.464   3.602  1.00  0.00    -0.054 A 
HETATM   19  C   UNL     1      44.657 -20.462   4.304  1.00  0.00     0.007 A 
HETATM   20  C   UNL     1      44.844 -21.727   3.743  1.00  0.00     0.001 A 
HETATM   21  C   UNL     1      44.339 -22.012   2.476  1.00  0.00     0.000 A 
HETATM   22  C   UNL     1      43.646 -21.033   1.770  1.00  0.00     0.001 A 
HETATM   23  C   UNL     1      43.457 -19.767   2.329  1.00  0.00     0.007 A 
ENDBRANCH  16  18
ENDBRANCH  15  16
ENDBRANCH  12  15
ENDBRANCH   1  11
BRANCH   8  24
HETATM   24  C   UNL     1      41.608 -14.424  -2.802  1.00  0.00     0.270 C 
HETATM   25  N   UNL     1      42.682 -13.576  -2.768  1.00  0.00    -0.365 N 
HETATM   26  H   UNL     1      42.668 -12.800  -2.117  1.00  0.00     0.159 HD
HETATM   27  H   UNL     1      43.465 -13.739  -3.382  1.00  0.00     0.159 HD
HETATM   28  O   UNL     1      41.580 -15.379  -3.569  1.00  0.00    -0.266 OA
ENDBRANCH   8  24
TORSDOF 5
ENDMDL
MODEL 2
REMARK VINA RESULT:      -8.3      3.443      5.255
REMARK  5 active torsions:
REMARK  status: ('A' for Active; 'I' for Inactive)
REMARK    1  A    between atoms: C_2  and  C_3 
REMARK    2  A    between atoms: C_2  and  C_9 
REMARK    3  A    between atoms: C_9  and  C_10 
REMARK       I    between atoms: C_10  and  N_11 
REMARK    4  A    between atoms: N_11  and  C_12 
REMARK    5  A    between atoms: C_19  and  C_20 
REMARK       I    between atoms: C_20  and  N_21 
ROOT
HETATM    1  C   UNL     1      40.943 -14.720   3.775  1.00  0.00     0.035 A 
HETATM    2  C   UNL     1      40.698 -13.948   4.918  1.00  0.00     0.046 A 
HETATM    3  C   UNL     1      39.799 -12.861   4.846  1.00  0.00     0.030 A 
HETATM    4  C   UNL     1      39.177 -12.583   3.636  1.00  0.00     0.063 A 
HETATM    5  N   UNL     1      38.384 -11.496   3.876  1.00  0.00    -0.277 N 
HETATM    6  H   UNL     1      37.784 -11.016   3.215  1.00  0.00     0.189 HD
HETATM    7  N   UNL     1      38.432 -11.039   5.138  1.00  0.00    -0.168 NA
HETATM    8  C   UNL     1      39.302 -11.875   5.752  1.00  0.00     0.156 A 
HETATM    9  C   UNL     1      39.394 -13.333   2.479  1.00  0.00     0.034 A 
HETATM   10  C   UNL     1      40.288 -14.407   2.576  1.00  0.00     0.032 A 
ENDROOT
BRANCH   1  11
HETATM   11  N   UNL     1      41.824 -15.824   3.746  1.00  0.00    -0.327 N 
HETATM   12  C   UNL     1      43.171 -15.824   3.415  1.00  0.00     0.222 C 
HETATM   13  O   UNL     1      43.832 -14.854   3.064  1.00  0.00    -0.273 OA
HETATM   14  H   UNL     1      41.417 -16.723   3.973  1.00  0.00     0.169 HD
BRANCH  12  15
HETATM   15  C   UNL     1      43.767 -17.221   3.512  1.00  0.00     0.112 C 
BRANCH  15  16
HETATM   16  C   UNL     1      43.256 -18.176   2.419  1.00  0.00     0.023 C 
HETATM   17  C   UNL     1      43.680 -17.720   1.017  1.00  0.00     0.015 C 
BRANCH  16  18
HETATM   18  C   UNL     1      43.729 -19.597   2.696  1.00  0.00    -0.054 A 
HETATM   19  C   UNL     1      44.374 -19.944   3.893  1.00  0.00     0.007 A 
HETATM   20  C   UNL     1      44.793 -21.257   4.122  1.00  0.00     0.001 A 
HETATM   21  C   UNL     1      44.570 -22.239   3.160  1.00  0.00     0.000 A 
HETATM   22  C   UNL     1      43.927 -21.910   1.969  1.00  0.00     0.001 A 
HETATM   23  C   UNL     1      43.508 -20.599   1.738  1.00  0.00     0.007 A 
ENDBRANCH  16  18
ENDBRANCH  15  16
ENDBRANCH  12  15
ENDBRANCH   1  11
BRANCH   8  24
HETATM   24  C   UNL     1      39.635 -11.713   7.174  1.00  0.00     0.270 C 
HETATM   25  N   UNL     1      39.125 -12.693   7.982  1.00  0.00    -0.365 N 
HETATM   26  H   UNL     1      38.576 -13.433   7.560  1.00  0.00     0.159 HD
HETATM   27  H   UNL     1      39.304 -12.666   8.973  1.00  0.00     0.159 HD
HETATM   28  O   UNL     1      40.309 -10.799   7.637  1.00  0.00    -0.266 OA
ENDBRANCH   8  24
TORSDOF 5
ENDMDL
MODEL 3
REMARK VINA RESULT:      -8.2      3.820      5.702
REMARK  5 active torsions:
REMARK  status: ('A' for Active; 'I' for Inactive)
REMARK    1  A    between atoms: C_2  and  C_3 
REMARK    2  A    between atoms: C_2  and  C_9 
REMARK    3  A    between atoms: C_9  and  C_10 
REMARK       I    between atoms: C_10  and  N_11 
REMARK    4  A    between atoms: N_11  and  C_12 
REMARK    5  A    between atoms: C_19  and  C_20 
REMARK       I    between atoms: C_20  and  N_21 
ROOT
HETATM    1  C   UNL     1      40.570 -14.919   4.806  1.00  0.00     0.035 A 
HETATM    2  C   UNL     1      40.369 -14.062   5.896  1.00  0.00     0.046 A 
HETATM    3  C   UNL     1      39.766 -12.801   5.690  1.00  0.00     0.030 A 
HETATM    4  C   UNL     1      39.385 -12.441   4.404  1.00  0.00     0.063 A 
HETATM    5  N   UNL     1      38.846 -11.191   4.521  1.00  0.00    -0.277 N 
HETATM    6  H   UNL     1      38.464 -10.615   3.779  1.00  0.00     0.189 HD
HETATM    7  N   UNL     1      38.838 -10.702   5.771  1.00  0.00    -0.168 NA
HETATM    8  C   UNL     1      39.403 -11.687   6.508  1.00  0.00     0.156 A 
HETATM    9  C   UNL     1      39.566 -13.271   3.296  1.00  0.00     0.034 A 
HETATM   10  C   UNL     1      40.164 -14.516   3.526  1.00  0.00     0.032 A 
ENDROOT
BRANCH   1  11
HETATM   11  N   UNL     1      41.164 -16.197   4.910  1.00  0.00    -0.327 N 
HETATM   12  C   UNL     1      42.440 -16.571   4.517  1.00  0.00     0.222 C 
HETATM   13  O   UNL     1      43.276 -15.852   3.984  1.00  0.00    -0.273 OA
HETATM   14  H   UNL     1      40.580 -16.927   5.297  1.00  0.00     0.169 HD
BRANCH  12  15
HETATM   15  C   UNL     1      42.701 -18.042   4.806  1.00  0.00     0.112 C 
BRANCH  15  16
HETATM   16  C   UNL     1      44.163 -18.458   4.566  1.00  0.00     0.023 C 
HETATM   17  C   UNL     1      44.950 -18.562   5.879  1.00  0.00     0.015 C 
BRANCH  16  18
HETATM   18  C   UNL     1      44.219 -19.768   3.792  1.00  0.00    -0.054 A 
HETATM   19  C   UNL     1      43.839 -19.850   2.443  1.00  0.00     0.007 A 
HETATM   20  C   UNL     1      43.905 -21.064   1.757  1.00  0.00     0.001 A 
HETATM   21  C   UNL     1      44.357 -22.210   2.407  1.00  0.00     0.000 A 
HETATM   22  C   UNL     1      44.743 -22.144   3.743  1.00  0.00     0.001 A 
HETATM   23  C   UNL     1      44.676 -20.931   4.432  1.00  0.00     0.007 A 
ENDBRANCH  16  18
ENDBRANCH  15  16
ENDBRANCH  12  15
ENDBRANCH   1  11
BRANCH   8  24
HETATM   24  C   UNL     1      39.581 -11.545   7.959  1.00  0.00     0.270 C 
HETATM   25  N   UNL     1      38.919 -12.487   8.698  1.00  0.00    -0.365 N 
HETATM   26  H   UNL     1      38.375 -13.190   8.213  1.00  0.00     0.159 HD
HETATM   27  H   UNL     1      38.986 -12.469   9.704  1.00  0.00     0.159 HD
HETATM   28  O   UNL     1      40.256 -10.676   8.501  1.00  0.00    -0.266 OA
ENDBRANCH   8  24
TORSDOF 5
ENDMDL
MODEL 4
REMARK VINA RESULT:      -7.9      5.877      8.748
REMARK  5 active torsions:
REMARK  status: ('A' for Active; 'I' for Inactive)
REMARK    1  A    between atoms: C_2  and  C_3 
REMARK    2  A    between atoms: C_2  and  C_9 
REMARK    3  A    between atoms: C_9  and  C_10 
REMARK       I    between atoms: C_10  and  N_11 
REMARK    4  A    between atoms: N_11  and  C_12 
REMARK    5  A    between atoms: C_19  and  C_20 
REMARK       I    between atoms: C_20  and  N_21 
ROOT
HETATM    1  C   UNL     1      44.780 -13.991   7.339  1.00  0.00     0.035 A 
HETATM    2  C   UNL     1      44.095 -13.382   8.399  1.00  0.00     0.046 A 
HETATM    3  C   UNL     1      44.683 -12.288   9.073  1.00  0.00     0.030 A 
HETATM    4  C   UNL     1      45.933 -11.842   8.665  1.00  0.00     0.063 A 
HETATM    5  N   UNL     1      46.232 -10.796   9.492  1.00  0.00    -0.277 N 
HETATM    6  H   UNL     1      47.073 -10.230   9.485  1.00  0.00     0.189 HD
HETATM    7  N   UNL     1      45.287 -10.518  10.404  1.00  0.00    -0.168 NA
HETATM    8  C   UNL     1      44.319 -11.431  10.156  1.00  0.00     0.156 A 
HETATM    9  C   UNL     1      46.642 -12.422   7.612  1.00  0.00     0.034 A 
HETATM   10  C   UNL     1      46.038 -13.503   6.959  1.00  0.00     0.032 A 
ENDROOT
BRANCH   1  11
HETATM   11  N   UNL     1      44.277 -15.088   6.605  1.00  0.00    -0.327 N 
HETATM   12  C   UNL     1      43.734 -16.263   7.104  1.00  0.00     0.222 C 
HETATM   13  O   UNL     1      43.615 -16.563   8.285  1.00  0.00    -0.273 OA
HETATM   14  H   UNL     1      44.341 -15.015   5.598  1.00  0.00     0.169 HD
BRANCH  12  15
HETATM   15  C   UNL     1      43.302 -17.195   5.982  1.00  0.00     0.112 C 
BRANCH  15  16
HETATM   16  C   UNL     1      44.202 -18.435   5.842  1.00  0.00     0.023 C 
HETATM   17  C   UNL     1      43.916 -19.476   6.933  1.00  0.00     0.015 C 
BRANCH  16  18
HETATM   18  C   UNL     1      44.051 -19.045   4.455  1.00  0.00    -0.054 A 
HETATM   19  C   UNL     1      44.673 -20.252   4.103  1.00  0.00     0.007 A 
HETATM   20  C   UNL     1      44.513 -20.789   2.824  1.00  0.00     0.001 A 
HETATM   21  C   UNL     1      43.725 -20.131   1.883  1.00  0.00     0.000 A 
HETATM   22  C   UNL     1      43.097 -18.934   2.219  1.00  0.00     0.001 A 
HETATM   23  C   UNL     1      43.257 -18.395   3.497  1.00  0.00     0.007 A 
ENDBRANCH  16  18
ENDBRANCH  15  16
ENDBRANCH  12  15
ENDBRANCH   1  11
BRANCH   8  24
HETATM   24  C   UNL     1      43.084 -11.465  10.952  1.00  0.00     0.270 C 
HETATM   25  N   UNL     1      43.193 -12.166  12.122  1.00  0.00    -0.365 N 
HETATM   26  H   UNL     1      44.082 -12.594  12.350  1.00  0.00     0.159 HD
HETATM   27  H   UNL     1      42.396 -12.241  12.734  1.00  0.00     0.159 HD
HETATM   28  O   UNL     1      42.030 -10.925  10.634  1.00  0.00    -0.266 OA
ENDBRANCH   8  24
TORSDOF 5
ENDMDL
MODEL 5
REMARK VINA RESULT:      -7.9      1.490      2.004
REMARK  5 active torsions:
REMARK  status: ('A' for Active; 'I' for Inactive)
REMARK    1  A    between atoms: C_2  and  C_3 
REMARK    2  A    between atoms: C_2  and  C_9 
REMARK    3  A    between atoms: C_9  and  C_10 
REMARK       I    between atoms: C_10  and  N_11 
REMARK    4  A    between atoms: N_11  and  C_12 
REMARK    5  A    between atoms: C_19  and  C_20 
REMARK       I    between atoms: C_20  and  N_21 
ROOT
HETATM    1  C   UNL     1      41.867 -14.951   1.173  1.00  0.00     0.035 A 
HETATM    2  C   UNL     1      41.429 -15.025  -0.156  1.00  0.00     0.046 A 
HETATM    3  C   UNL     1      41.321 -13.842  -0.921  1.00  0.00     0.030 A 
HETATM    4  C   UNL     1      41.652 -12.629  -0.332  1.00  0.00     0.063 A 
HETATM    5  N   UNL     1      41.446 -11.687  -1.300  1.00  0.00    -0.277 N 
HETATM    6  H   UNL     1      41.584 -10.686  -1.222  1.00  0.00     0.189 HD
HETATM    7  N   UNL     1      41.011 -12.177  -2.472  1.00  0.00    -0.168 NA
HETATM    8  C   UNL     1      40.930 -13.511  -2.255  1.00  0.00     0.156 A 
HETATM    9  C   UNL     1      42.094 -12.518   0.987  1.00  0.00     0.034 A 
HETATM   10  C   UNL     1      42.196 -13.705   1.724  1.00  0.00     0.032 A 
ENDROOT
BRANCH   1  11
HETATM   11  N   UNL     1      42.007 -16.075   2.018  1.00  0.00    -0.327 N 
HETATM   12  C   UNL     1      41.281 -16.370   3.162  1.00  0.00     0.222 C 
HETATM   13  O   UNL     1      40.395 -15.684   3.656  1.00  0.00    -0.273 OA
HETATM   14  H   UNL     1      42.738 -16.729   1.768  1.00  0.00     0.169 HD
BRANCH  12  15
HETATM   15  C   UNL     1      41.736 -17.682   3.785  1.00  0.00     0.112 C 
BRANCH  15  16
HETATM   16  C   UNL     1      43.266 -17.844   3.811  1.00  0.00     0.023 C 
HETATM   17  C   UNL     1      43.852 -17.516   5.190  1.00  0.00     0.015 C 
BRANCH  16  18
HETATM   18  C   UNL     1      43.655 -19.249   3.373  1.00  0.00    -0.054 A 
HETATM   19  C   UNL     1      43.232 -19.789   2.149  1.00  0.00     0.007 A 
HETATM   20  C   UNL     1      43.609 -21.080   1.772  1.00  0.00     0.001 A 
HETATM   21  C   UNL     1      44.416 -21.845   2.610  1.00  0.00     0.000 A 
HETATM   22  C   UNL     1      44.848 -21.321   3.826  1.00  0.00     0.001 A 
HETATM   23  C   UNL     1      44.472 -20.031   4.205  1.00  0.00     0.007 A 
ENDBRANCH  16  18
ENDBRANCH  15  16
ENDBRANCH  12  15
ENDBRANCH   1  11
BRANCH   8  24
HETATM   24  C   UNL     1      40.486 -14.428  -3.313  1.00  0.00     0.270 C 
HETATM   25  N   UNL     1      39.300 -14.074  -3.897  1.00  0.00    -0.365 N 
HETATM   26  H   UNL     1      38.830 -13.237  -3.573  1.00  0.00     0.159 HD
HETATM   27  H   UNL     1      38.918 -14.644  -4.636  1.00  0.00     0.159 HD
HETATM   28  O   UNL     1      41.094 -15.430  -3.674  1.00  0.00    -0.266 OA
ENDBRANCH   8  24
TORSDOF 5
ENDMDL
MODEL 6
REMARK VINA RESULT:      -7.9      3.290      8.418
REMARK  5 active torsions:
REMARK  status: ('A' for Active; 'I' for Inactive)
REMARK    1  A    between atoms: C_2  and  C_3 
REMARK    2  A    between atoms: C_2  and  C_9 
REMARK    3  A    between atoms: C_9  and  C_10 
REMARK       I    between atoms: C_10  and  N_11 
REMARK    4  A    between atoms: N_11  and  C_12 
REMARK    5  A    between atoms: C_19  and  C_20 
REMARK       I    between atoms: C_20  and  N_21 
ROOT
HETATM    1  C   UNL     1      43.379 -17.652   1.828  1.00  0.00     0.035 A 
HETATM    2  C   UNL     1      43.675 -19.017   1.934  1.00  0.00     0.046 A 
HETATM    3  C   UNL     1      44.084 -19.548   3.178  1.00  0.00     0.030 A 
HETATM    4  C   UNL     1      44.182 -18.697   4.271  1.00  0.00     0.063 A 
HETATM    5  N   UNL     1      44.595 -19.485   5.309  1.00  0.00    -0.277 N 
HETATM    6  H   UNL     1      44.775 -19.198   6.264  1.00  0.00     0.189 HD
HETATM    7  N   UNL     1      44.772 -20.777   4.991  1.00  0.00    -0.168 NA
HETATM    8  C   UNL     1      44.458 -20.834   3.676  1.00  0.00     0.156 A 
HETATM    9  C   UNL     1      43.893 -17.334   4.203  1.00  0.00     0.034 A 
HETATM   10  C   UNL     1      43.488 -16.831   2.959  1.00  0.00     0.032 A 
ENDROOT
BRANCH   1  11
HETATM   11  N   UNL     1      42.965 -17.028   0.630  1.00  0.00    -0.327 N 
HETATM   12  C   UNL     1      41.732 -16.454   0.357  1.00  0.00     0.222 C 
HETATM   13  O   UNL     1      40.769 -16.410   1.113  1.00  0.00    -0.273 OA
HETATM   14  H   UNL     1      43.642 -17.018  -0.122  1.00  0.00     0.169 HD
BRANCH  12  15
HETATM   15  C   UNL     1      41.686 -15.881  -1.051  1.00  0.00     0.112 C 
BRANCH  15  16
HETATM   16  C   UNL     1      40.832 -14.606  -1.160  1.00  0.00     0.023 C 
HETATM   17  C   UNL     1      41.687 -13.369  -1.466  1.00  0.00     0.015 C 
BRANCH  16  18
HETATM   18  C   UNL     1      39.743 -14.788  -2.208  1.00  0.00    -0.054 A 
HETATM   19  C   UNL     1      38.553 -14.044  -2.179  1.00  0.00     0.007 A 
HETATM   20  C   UNL     1      37.573 -14.230  -3.157  1.00  0.00     0.001 A 
HETATM   21  C   UNL     1      37.771 -15.155  -4.178  1.00  0.00     0.000 A 
HETATM   22  C   UNL     1      38.949 -15.897  -4.224  1.00  0.00     0.001 A 
HETATM   23  C   UNL     1      39.930 -15.714  -3.247  1.00  0.00     0.007 A 
ENDBRANCH  16  18
ENDBRANCH  15  16
ENDBRANCH  12  15
ENDBRANCH   1  11
BRANCH   8  24
HETATM   24  C   UNL     1      44.522 -22.100   2.932  1.00  0.00     0.270 C 
HETATM   25  N   UNL     1      44.854 -23.182   3.701  1.00  0.00    -0.365 N 
HETATM   26  H   UNL     1      45.024 -23.041   4.690  1.00  0.00     0.159 HD
HETATM   27  H   UNL     1      44.920 -24.094   3.276  1.00  0.00     0.159 HD
HETATM   28  O   UNL     1      44.303 -22.220   1.732  1.00  0.00    -0.266 OA
ENDBRANCH   8  24
TORSDOF 5
ENDMDL
MODEL 7
REMARK VINA RESULT:      -7.8      2.683      4.064
REMARK  5 active torsions:
REMARK  status: ('A' for Active; 'I' for Inactive)
REMARK    1  A    between atoms: C_2  and  C_3 
REMARK    2  A    between atoms: C_2  and  C_9 
REMARK    3  A    between atoms: C_9  and  C_10 
REMARK       I    between atoms: C_10  and  N_11 
REMARK    4  A    between atoms: N_11  and  C_12 
REMARK    5  A    between atoms: C_19  and  C_20 
REMARK       I    between atoms: C_20  and  N_21 
ROOT
HETATM    1  C   UNL     1      40.310 -15.402   3.401  1.00  0.00     0.035 A 
HETATM    2  C   UNL     1      40.118 -14.126   3.948  1.00  0.00     0.046 A 
HETATM    3  C   UNL     1      39.390 -13.157   3.220  1.00  0.00     0.030 A 
HETATM    4  C   UNL     1      38.881 -13.497   1.974  1.00  0.00     0.063 A 
HETATM    5  N   UNL     1      38.242 -12.375   1.525  1.00  0.00    -0.277 N 
HETATM    6  H   UNL     1      37.754 -12.258   0.644  1.00  0.00     0.189 HD
HETATM    7  N   UNL     1      38.287 -11.332   2.369  1.00  0.00    -0.168 NA
HETATM    8  C   UNL     1      38.992 -11.801   3.425  1.00  0.00     0.156 A 
HETATM    9  C   UNL     1      39.049 -14.758   1.400  1.00  0.00     0.034 A 
HETATM   10  C   UNL     1      39.773 -15.701   2.141  1.00  0.00     0.032 A 
ENDROOT
BRANCH   1  11
HETATM   11  N   UNL     1      41.022 -16.435   4.049  1.00  0.00    -0.327 N 
HETATM   12  C   UNL     1      42.371 -16.735   3.933  1.00  0.00     0.222 C 
HETATM   13  O   UNL     1      43.184 -16.159   3.220  1.00  0.00    -0.273 OA
HETATM   14  H   UNL     1      40.478 -17.039   4.651  1.00  0.00     0.169 HD
BRANCH  12  15
HETATM   15  C   UNL     1      42.753 -17.924   4.802  1.00  0.00     0.112 C 
BRANCH  15  16
HETATM   16  C   UNL     1      44.200 -18.398   4.582  1.00  0.00     0.023 C 
HETATM   17  C   UNL     1      44.967 -18.526   5.904  1.00  0.00     0.015 C 
BRANCH  16  18
HETATM   18  C   UNL     1      44.214 -19.713   3.814  1.00  0.00    -0.054 A 
HETATM   19  C   UNL     1      43.755 -19.805   2.491  1.00  0.00     0.007 A 
HETATM   20  C   UNL     1      43.784 -21.024   1.811  1.00  0.00     0.001 A 
HETATM   21  C   UNL     1      44.276 -22.165   2.441  1.00  0.00     0.000 A 
HETATM   22  C   UNL     1      44.739 -22.088   3.751  1.00  0.00     0.001 A 
HETATM   23  C   UNL     1      44.710 -20.870   4.434  1.00  0.00     0.007 A 
ENDBRANCH  16  18
ENDBRANCH  15  16
ENDBRANCH  12  15
ENDBRANCH   1  11
BRANCH   8  24
HETATM   24  C   UNL     1      39.268 -10.951   4.592  1.00  0.00     0.270 C 
HETATM   25  N   UNL     1      40.522 -10.402   4.598  1.00  0.00    -0.365 N 
HETATM   26  H   UNL     1      41.147 -10.610   3.828  1.00  0.00     0.159 HD
HETATM   27  H   UNL     1      40.799  -9.802   5.359  1.00  0.00     0.159 HD
HETATM   28  O   UNL     1      38.475 -10.726   5.499  1.00  0.00    -0.266 OA
ENDBRANCH   8  24
TORSDOF 5
ENDMDL
MODEL 8
REMARK VINA RESULT:      -7.8      2.717      3.582
REMARK  5 active torsions:
REMARK  status: ('A' for Active; 'I' for Inactive)
REMARK    1  A    between atoms: C_2  and  C_3 
REMARK    2  A    between atoms: C_2  and  C_9 
REMARK    3  A    between atoms: C_9  and  C_10 
REMARK       I    between atoms: C_10  and  N_11 
REMARK    4  A    between atoms: N_11  and  C_12 
REMARK    5  A    between atoms: C_19  and  C_20 
REMARK       I    between atoms: C_20  and  N_21 
ROOT
HETATM    1  C   UNL     1      41.042 -14.818   4.744  1.00  0.00     0.035 A 
HETATM    2  C   UNL     1      40.372 -14.803   3.513  1.00  0.00     0.046 A 
HETATM    3  C   UNL     1      39.630 -13.661   3.137  1.00  0.00     0.030 A 
HETATM    4  C   UNL     1      39.584 -12.576   4.002  1.00  0.00     0.063 A 
HETATM    5  N   UNL     1      38.803 -11.645   3.375  1.00  0.00    -0.277 N 
HETATM    6  H   UNL     1      38.550 -10.726   3.718  1.00  0.00     0.189 HD
HETATM    7  N   UNL     1      38.336 -12.026   2.176  1.00  0.00    -0.168 NA
HETATM    8  C   UNL     1      38.840 -13.271   2.012  1.00  0.00     0.156 A 
HETATM    9  C   UNL     1      40.242 -12.554   5.232  1.00  0.00     0.034 A 
HETATM   10  C   UNL     1      40.972 -13.697   5.582  1.00  0.00     0.032 A 
ENDROOT
BRANCH   1  11
HETATM   11  N   UNL     1      41.807 -15.911   5.209  1.00  0.00    -0.327 N 
HETATM   12  C   UNL     1      41.391 -16.947   6.031  1.00  0.00     0.222 C 
HETATM   13  O   UNL     1      40.276 -17.082   6.521  1.00  0.00    -0.273 OA
HETATM   14  H   UNL     1      42.779 -15.926   4.924  1.00  0.00     0.169 HD
BRANCH  12  15
HETATM   15  C   UNL     1      42.519 -17.933   6.297  1.00  0.00     0.112 C 
BRANCH  15  16
HETATM   16  C   UNL     1      43.757 -17.692   5.415  1.00  0.00     0.023 C 
HETATM   17  C   UNL     1      45.055 -17.722   6.231  1.00  0.00     0.015 C 
BRANCH  16  18
HETATM   18  C   UNL     1      43.802 -18.707   4.281  1.00  0.00    -0.054 A 
HETATM   19  C   UNL     1      43.108 -18.508   3.078  1.00  0.00     0.007 A 
HETATM   20  C   UNL     1      43.172 -19.455   2.053  1.00  0.00     0.001 A 
HETATM   21  C   UNL     1      43.934 -20.609   2.215  1.00  0.00     0.000 A 
HETATM   22  C   UNL     1      44.633 -20.818   3.401  1.00  0.00     0.001 A 
HETATM   23  C   UNL     1      44.569 -19.874   4.427  1.00  0.00     0.007 A 
ENDBRANCH  16  18
ENDBRANCH  15  16
ENDBRANCH  12  15
ENDBRANCH   1  11
BRANCH   8  24
HETATM   24  C   UNL     1      38.559 -14.052   0.799  1.00  0.00     0.270 C 
HETATM   25  N   UNL     1      37.302 -14.592   0.762  1.00  0.00    -0.365 N 
HETATM   26  H   UNL     1      36.678 -14.421   1.541  1.00  0.00     0.159 HD
HETATM   27  H   UNL     1      37.020 -15.142  -0.034  1.00  0.00     0.159 HD
HETATM   28  O   UNL     1      39.351 -14.227  -0.121  1.00  0.00    -0.266 OA
ENDBRANCH   8  24
TORSDOF 5
ENDMDL
MODEL 9
REMARK VINA RESULT:      -7.8      2.139      2.763
REMARK  5 active torsions:
REMARK  status: ('A' for Active; 'I' for Inactive)
REMARK    1  A    between atoms: C_2  and  C_3 
REMARK    2  A    between atoms: C_2  and  C_9 
REMARK    3  A    between atoms: C_9  and  C_10 
REMARK       I    between atoms: C_10  and  N_11 
REMARK    4  A    between atoms: N_11  and  C_12 
REMARK    5  A    between atoms: C_19  and  C_20 
REMARK       I    between atoms: C_20  and  N_21 
ROOT
HETATM    1  C   UNL     1      41.655 -15.623   0.270  1.00  0.00     0.035 A 
HETATM    2  C   UNL     1      41.972 -14.262   0.374  1.00  0.00     0.046 A 
HETATM    3  C   UNL     1      41.753 -13.408  -0.731  1.00  0.00     0.030 A 
HETATM    4  C   UNL     1      41.228 -13.945  -1.899  1.00  0.00     0.063 A 
HETATM    5  N   UNL     1      41.137 -12.896  -2.770  1.00  0.00    -0.277 N 
HETATM    6  H   UNL     1      40.796 -12.918  -3.725  1.00  0.00     0.189 HD
HETATM    7  N   UNL     1      41.554 -11.720  -2.274  1.00  0.00    -0.168 NA
HETATM    8  C   UNL     1      41.938 -12.020  -1.011  1.00  0.00     0.156 A 
HETATM    9  C   UNL     1      40.898 -15.293  -2.037  1.00  0.00     0.034 A 
HETATM   10  C   UNL     1      41.122 -16.119  -0.927  1.00  0.00     0.032 A 
ENDROOT
BRANCH   1  11
HETATM   11  N   UNL     1      41.837 -16.555   1.317  1.00  0.00    -0.327 N 
HETATM   12  C   UNL     1      41.278 -16.523   2.585  1.00  0.00     0.222 C 
HETATM   13  O   UNL     1      40.535 -15.656   3.030  1.00  0.00    -0.273 OA
HETATM   14  H   UNL     1      42.467 -17.323   1.122  1.00  0.00     0.169 HD
BRANCH  12  15
HETATM   15  C   UNL     1      41.720 -17.718   3.417  1.00  0.00     0.112 C 
BRANCH  15  16
HETATM   16  C   UNL     1      43.249 -17.868   3.499  1.00  0.00     0.023 C 
HETATM   17  C   UNL     1      43.797 -17.405   4.856  1.00  0.00     0.015 C 
BRANCH  16  18
HETATM   18  C   UNL     1      43.655 -19.307   3.210  1.00  0.00    -0.054 A 
HETATM   19  C   UNL     1      43.314 -19.947   2.008  1.00  0.00     0.007 A 
HETATM   20  C   UNL     1      43.704 -21.266   1.769  1.00  0.00     0.001 A 
HETATM   21  C   UNL     1      44.442 -21.961   2.723  1.00  0.00     0.000 A 
HETATM   22  C   UNL     1      44.792 -21.338   3.918  1.00  0.00     0.001 A 
HETATM   23  C   UNL     1      44.403 -20.019   4.160  1.00  0.00     0.007 A 
ENDBRANCH  16  18
ENDBRANCH  15  16
ENDBRANCH  12  15
ENDBRANCH   1  11
BRANCH   8  24
HETATM   24  C   UNL     1      42.466 -10.986  -0.111  1.00  0.00     0.270 C 
HETATM   25  N   UNL     1      41.724 -10.802   1.025  1.00  0.00    -0.365 N 
HETATM   26  H   UNL     1      40.896 -11.370   1.161  1.00  0.00     0.159 HD
HETATM   27  H   UNL     1      42.012 -10.114   1.702  1.00  0.00     0.159 HD
HETATM   28  O   UNL     1      43.478 -10.325  -0.319  1.00  0.00    -0.266 OA
ENDBRANCH   8  24
TORSDOF 5
ENDMDL
MODEL 10
REMARK VINA RESULT:      -7.6      2.701      3.555
REMARK  5 active torsions:
REMARK  status: ('A' for Active; 'I' for Inactive)
REMARK    1  A    between atoms: C_2  and  C_3 
REMARK    2  A    between atoms: C_2  and  C_9 
REMARK    3  A    between atoms: C_9  and  C_10 
REMARK       I    between atoms: C_10  and  N_11 
REMARK    4  A    between atoms: N_11  and  C_12 
REMARK    5  A    between atoms: C_19  and  C_20 
REMARK       I    between atoms: C_20  and  N_21 
ROOT
HETATM    1  C   UNL     1      40.720 -14.677   4.124  1.00  0.00     0.035 A 
HETATM    2  C   UNL     1      40.178 -14.091   2.972  1.00  0.00     0.046 A 
HETATM    3  C   UNL     1      39.362 -12.944   3.091  1.00  0.00     0.030 A 
HETATM    4  C   UNL     1      39.115 -12.424   4.355  1.00  0.00     0.063 A 
HETATM    5  N   UNL     1      38.307 -11.341   4.150  1.00  0.00    -0.277 N 
HETATM    6  H   UNL     1      37.924 -10.719   4.853  1.00  0.00     0.189 HD
HETATM    7  N   UNL     1      38.005 -11.105   2.863  1.00  0.00    -0.168 NA
HETATM    8  C   UNL     1      38.652 -12.088   2.194  1.00  0.00     0.156 A 
HETATM    9  C   UNL     1      39.640 -12.979   5.523  1.00  0.00     0.034 A 
HETATM   10  C   UNL     1      40.448 -14.115   5.378  1.00  0.00     0.032 A 
ENDROOT
BRANCH   1  11
HETATM   11  N   UNL     1      41.546 -15.823   4.109  1.00  0.00    -0.327 N 
HETATM   12  C   UNL     1      42.931 -15.868   4.055  1.00  0.00     0.222 C 
HETATM   13  O   UNL     1      43.686 -14.906   3.989  1.00  0.00    -0.273 OA
HETATM   14  H   UNL     1      41.067 -16.715   4.116  1.00  0.00     0.169 HD
BRANCH  12  15
HETATM   15  C   UNL     1      43.441 -17.301   4.063  1.00  0.00     0.112 C 
BRANCH  15  16
HETATM   16  C   UNL     1      43.310 -17.999   2.698  1.00  0.00     0.023 C 
HETATM   17  C   UNL     1      44.111 -17.276   1.606  1.00  0.00     0.015 C 
BRANCH  16  18
HETATM   18  C   UNL     1      43.734 -19.458   2.808  1.00  0.00    -0.054 A 
HETATM   19  C   UNL     1      44.433 -19.945   3.922  1.00  0.00     0.007 A 
HETATM   20  C   UNL     1      44.804 -21.290   3.998  1.00  0.00     0.001 A 
HETATM   21  C   UNL     1      44.479 -22.164   2.964  1.00  0.00     0.000 A 
HETATM   22  C   UNL     1      43.781 -21.696   1.854  1.00  0.00     0.001 A 
HETATM   23  C   UNL     1      43.409 -20.352   1.776  1.00  0.00     0.007 A 
ENDBRANCH  16  18
ENDBRANCH  15  16
ENDBRANCH  12  15
ENDBRANCH   1  11
BRANCH   8  24
HETATM   24  C   UNL     1      38.579 -12.186   0.730  1.00  0.00     0.270 C 
HETATM   25  N   UNL     1      37.521 -12.925   0.272  1.00  0.00    -0.365 N 
HETATM   26  H   UNL     1      36.888 -13.335   0.948  1.00  0.00     0.159 HD
HETATM   27  H   UNL     1      37.389 -13.044  -0.720  1.00  0.00     0.159 HD
HETATM   28  O   UNL     1      39.371 -11.666  -0.049  1.00  0.00    -0.266 OA
ENDBRANCH   8  24
TORSDOF 5
ENDMDL
