MODEL 1
REMARK VINA RESULT:      -8.1      0.000      0.000
REMARK  8 active torsions:
REMARK  status: ('A' for Active; 'I' for Inactive)
REMARK    1  A    between atoms: C_5  and  C_6 
REMARK       I    between atoms: C_6  and  N_7 
REMARK    2  A    between atoms: N_7  and  C_8 
REMARK    3  A    between atoms: C_8  and  N_9 
REMARK    4  A    between atoms: C_8  and  C_25 
REMARK    5  A    between atoms: C_8  and  C_29 
REMARK    6  A    between atoms: N_9  and  C_10 
REMARK    7  A    between atoms: C_20  and  C_21 
REMARK    8  A    between atoms: C_21  and  O_22 
ROOT
HETATM    1  C   UNL     1      42.294 -14.946   4.259  1.00  0.00     0.307 C 
ENDROOT
BRANCH   1   2
HETATM    2  N   UNL     1      42.841 -16.228   3.773  1.00  0.00    -0.315 N 
HETATM    3  C   UNL     1      42.194 -17.420   3.966  1.00  0.00     0.254 C 
HETATM    4  O   UNL     1      41.095 -17.497   4.489  1.00  0.00    -0.268 OA
HETATM    5  H   UNL     1      43.831 -16.244   3.579  1.00  0.00     0.165 HD
BRANCH   3   6
HETATM    6  C   UNL     1      42.928 -18.628   3.523  1.00  0.00     0.032 A 
HETATM    7  C   UNL     1      43.846 -19.265   4.367  1.00  0.00     0.017 A 
HETATM    8  C   UNL     1      44.530 -20.398   3.923  1.00  0.00     0.007 A 
HETATM    9  C   UNL     1      44.310 -20.898   2.633  1.00  0.00    -0.062 A 
HETATM   10  C   UNL     1      45.024 -22.131   2.162  1.00  0.00     0.048 C 
HETATM   11  C   UNL     1      43.383 -20.258   1.798  1.00  0.00     0.007 A 
HETATM   12  C   UNL     1      42.704 -19.119   2.235  1.00  0.00     0.017 A 
ENDBRANCH   3   6
ENDBRANCH   1   2
BRANCH   1  13
HETATM   13  N   UNL     1      40.992 -14.879   3.464  1.00  0.00    -0.342 N 
HETATM   14  H   UNL     1      40.281 -14.434   4.058  1.00  0.00     0.163 HD
BRANCH  13  15
HETATM   15  C   UNL     1      40.899 -14.595   2.129  1.00  0.00     0.089 A 
HETATM   16  S   UNL     1      41.324 -15.731   0.915  1.00  0.00    -0.074 SA
HETATM   17  C   UNL     1      40.826 -14.724  -0.342  1.00  0.00     0.018 A 
HETATM   18  C   UNL     1      40.319 -13.527   0.114  1.00  0.00    -0.023 A 
HETATM   19  C   UNL     1      40.905 -15.150  -1.768  1.00  0.00     0.281 C 
HETATM   20  C   UNL     1      39.811 -12.487  -0.852  1.00  0.00     0.068 C 
HETATM   21  C   UNL     1      40.379 -13.427   1.563  1.00  0.00     0.080 A 
HETATM   22  C   UNL     1      39.591 -13.062  -2.264  1.00  0.00     0.239 C 
HETATM   23  N   UNL     1      40.736 -13.963  -2.709  1.00  0.00    -0.070 N 
HETATM   24  H   UNL     1      40.461 -14.362  -3.614  1.00  0.00     0.279 HD
HETATM   25  C   UNL     1      42.021 -13.227  -2.952  1.00  0.00     0.270 C 
BRANCH  21  26
HETATM   26  C   UNL     1      39.956 -12.234   2.319  1.00  0.00     0.296 C 
HETATM   27  O   UNL     1      40.497 -11.144   2.179  1.00  0.00    -0.259 OA
BRANCH  26  28
HETATM   28  O   UNL     1      38.951 -12.480   3.211  1.00  0.00    -0.322 OA
HETATM   29  C   UNL     1      39.112 -11.831   4.476  1.00  0.00     0.213 C 
ENDBRANCH  26  28
ENDBRANCH  21  26
ENDBRANCH  13  15
ENDBRANCH   1  13
BRANCH   1  30
HETATM   30  C   UNL     1      42.152 -14.776   5.805  1.00  0.00     0.441 C 
HETATM   31  F   UNL     1      43.046 -15.545   6.481  1.00  0.00    -0.166 F 
HETATM   32  F   UNL     1      42.316 -13.512   6.247  1.00  0.00    -0.166 F 
HETATM   33  F   UNL     1      40.919 -15.166   6.226  1.00  0.00    -0.166 F 
ENDBRANCH   1  30
BRANCH   1  34
HETATM   34  C   UNL     1      43.161 -13.705   3.865  1.00  0.00     0.441 C 
HETATM   35  F   UNL     1      42.580 -12.510   4.061  1.00  0.00    -0.166 F 
HETATM   36  F   UNL     1      44.296 -13.712   4.629  1.00  0.00    -0.166 F 
HETATM   37  F   UNL     1      43.578 -13.763   2.579  1.00  0.00    -0.166 F 
ENDBRANCH   1  34
TORSDOF 8
ENDMDL
MODEL 2
REMARK VINA RESULT:      -7.8      1.764      2.451
REMARK  8 active torsions:
REMARK  status: ('A' for Active; 'I' for Inactive)
REMARK    1  A    between atoms: C_5  and  C_6 
REMARK       I    between atoms: C_6  and  N_7 
REMARK    2  A    between atoms: N_7  and  C_8 
REMARK    3  A    between atoms: C_8  and  N_9 
REMARK    4  A    between atoms: C_8  and  C_25 
REMARK    5  A    between atoms: C_8  and  C_29 
REMARK    6  A    between atoms: N_9  and  C_10 
REMARK    7  A    between atoms: C_20  and  C_21 
REMARK    8  A    between atoms: C_21  and  O_22 
ROOT
HETATM    1  C   UNL     1      43.321 -15.318   5.500  1.00  0.00     0.307 C 
ENDROOT
BRANCH   1   2
HETATM    2  N   UNL     1      43.542 -16.496   4.638  1.00  0.00    -0.315 N 
HETATM    3  C   UNL     1      42.997 -17.720   4.920  1.00  0.00     0.254 C 
HETATM    4  O   UNL     1      42.242 -17.907   5.860  1.00  0.00    -0.268 OA
HETATM    5  H   UNL     1      44.341 -16.455   4.024  1.00  0.00     0.165 HD
BRANCH   3   6
HETATM    6  C   UNL     1      43.406 -18.827   4.024  1.00  0.00     0.032 A 
HETATM    7  C   UNL     1      44.346 -19.780   4.437  1.00  0.00     0.017 A 
HETATM    8  C   UNL     1      44.720 -20.809   3.571  1.00  0.00     0.007 A 
HETATM    9  C   UNL     1      44.167 -20.890   2.287  1.00  0.00    -0.062 A 
HETATM   10  C   UNL     1      44.547 -22.011   1.363  1.00  0.00     0.048 C 
HETATM   11  C   UNL     1      43.221 -19.936   1.885  1.00  0.00     0.007 A 
HETATM   12  C   UNL     1      42.852 -18.900   2.745  1.00  0.00     0.017 A 
ENDBRANCH   3   6
ENDBRANCH   1   2
BRANCH   1  13
HETATM   13  N   UNL     1      41.806 -15.172   5.391  1.00  0.00    -0.342 N 
HETATM   14  H   UNL     1      41.449 -14.880   6.310  1.00  0.00     0.163 HD
BRANCH  13  15
HETATM   15  C   UNL     1      41.141 -14.651   4.315  1.00  0.00     0.089 A 
HETATM   16  S   UNL     1      41.147 -15.410   2.775  1.00  0.00    -0.074 SA
HETATM   17  C   UNL     1      40.069 -14.296   2.112  1.00  0.00     0.018 A 
HETATM   18  C   UNL     1      39.670 -13.344   3.024  1.00  0.00    -0.023 A 
HETATM   19  C   UNL     1      39.598 -14.402   0.701  1.00  0.00     0.281 C 
HETATM   20  C   UNL     1      38.700 -12.258   2.632  1.00  0.00     0.068 C 
HETATM   21  C   UNL     1      40.311 -13.526   4.316  1.00  0.00     0.080 A 
HETATM   22  C   UNL     1      37.980 -12.572   1.306  1.00  0.00     0.239 C 
HETATM   23  N   UNL     1      38.930 -13.111   0.244  1.00  0.00    -0.070 N 
HETATM   24  H   UNL     1      38.350 -13.369  -0.564  1.00  0.00     0.279 HD
HETATM   25  C   UNL     1      39.913 -12.094  -0.257  1.00  0.00     0.270 C 
BRANCH  21  26
HETATM   26  C   UNL     1      40.112 -12.620   5.463  1.00  0.00     0.296 C 
HETATM   27  O   UNL     1      39.632 -13.002   6.523  1.00  0.00    -0.259 OA
BRANCH  26  28
HETATM   28  O   UNL     1      40.462 -11.326   5.204  1.00  0.00    -0.322 OA
HETATM   29  C   UNL     1      41.130 -10.667   6.285  1.00  0.00     0.213 C 
ENDBRANCH  26  28
ENDBRANCH  21  26
ENDBRANCH  13  15
ENDBRANCH   1  13
BRANCH   1  30
HETATM   30  C   UNL     1      43.892 -15.384   6.952  1.00  0.00     0.441 C 
HETATM   31  F   UNL     1      45.096 -16.015   6.992  1.00  0.00    -0.166 F 
HETATM   32  F   UNL     1      44.064 -14.184   7.542  1.00  0.00    -0.166 F 
HETATM   33  F   UNL     1      43.065 -16.091   7.767  1.00  0.00    -0.166 F 
ENDBRANCH   1  30
BRANCH   1  34
HETATM   34  C   UNL     1      43.970 -14.006   4.946  1.00  0.00     0.441 C 
HETATM   35  F   UNL     1      45.225 -13.764   5.360  1.00  0.00    -0.166 F 
HETATM   36  F   UNL     1      44.024 -14.095   3.582  1.00  0.00    -0.166 F 
HETATM   37  F   UNL     1      43.220 -12.913   5.218  1.00  0.00    -0.166 F 
ENDBRANCH   1  34
TORSDOF 8
ENDMDL
MODEL 3
REMARK VINA RESULT:      -7.7      3.179      5.308
REMARK  8 active torsions:
REMARK  status: ('A' for Active; 'I' for Inactive)
REMARK    1  A    between atoms: C_5  and  C_6 
REMARK       I    between atoms: C_6  and  N_7 
REMARK    2  A    between atoms: N_7  and  C_8 
REMARK    3  A    between atoms: C_8  and  N_9 
REMARK    4  A    between atoms: C_8  and  C_25 
REMARK    5  A    between atoms: C_8  and  C_29 
REMARK    6  A    between atoms: N_9  and  C_10 
REMARK    7  A    between atoms: C_20  and  C_21 
REMARK    8  A    between atoms: C_21  and  O_22 
ROOT
HETATM    1  C   UNL     1      41.303 -15.739   2.804  1.00  0.00     0.307 C 
ENDROOT
BRANCH   1   2
HETATM    2  N   UNL     1      42.080 -16.880   3.329  1.00  0.00    -0.315 N 
HETATM    3  C   UNL     1      42.886 -17.645   2.528  1.00  0.00     0.254 C 
HETATM    4  O   UNL     1      43.070 -17.399   1.348  1.00  0.00    -0.268 OA
HETATM    5  H   UNL     1      41.766 -17.267   4.205  1.00  0.00     0.165 HD
BRANCH   3   6
HETATM    6  C   UNL     1      43.507 -18.822   3.180  1.00  0.00     0.032 A 
HETATM    7  C   UNL     1      43.731 -18.847   4.562  1.00  0.00     0.017 A 
HETATM    8  C   UNL     1      44.324 -19.965   5.151  1.00  0.00     0.007 A 
HETATM    9  C   UNL     1      44.706 -21.060   4.366  1.00  0.00    -0.062 A 
HETATM   10  C   UNL     1      45.320 -22.275   4.999  1.00  0.00     0.048 C 
HETATM   11  C   UNL     1      44.471 -21.029   2.984  1.00  0.00     0.007 A 
HETATM   12  C   UNL     1      43.886 -19.909   2.390  1.00  0.00     0.017 A 
ENDBRANCH   3   6
ENDBRANCH   1   2
BRANCH   1  13
HETATM   13  N   UNL     1      40.576 -15.291   4.069  1.00  0.00    -0.342 N 
HETATM   14  H   UNL     1      40.573 -16.079   4.729  1.00  0.00     0.163 HD
BRANCH  13  15
HETATM   15  C   UNL     1      40.682 -14.052   4.641  1.00  0.00     0.089 A 
HETATM   16  S   UNL     1      39.500 -12.829   4.411  1.00  0.00    -0.074 SA
HETATM   17  C   UNL     1      40.254 -11.762   5.477  1.00  0.00     0.018 A 
HETATM   18  C   UNL     1      41.393 -12.297   6.038  1.00  0.00    -0.023 A 
HETATM   19  C   UNL     1      39.683 -10.418   5.777  1.00  0.00     0.281 C 
HETATM   20  C   UNL     1      42.212 -11.504   7.025  1.00  0.00     0.068 C 
HETATM   21  C   UNL     1      41.671 -13.633   5.536  1.00  0.00     0.080 A 
HETATM   22  C   UNL     1      41.446 -10.283   7.568  1.00  0.00     0.239 C 
HETATM   23  N   UNL     1      40.706  -9.527   6.472  1.00  0.00    -0.070 N 
HETATM   24  H   UNL     1      40.163  -8.790   6.938  1.00  0.00     0.279 HD
HETATM   25  C   UNL     1      41.616  -8.825   5.506  1.00  0.00     0.270 C 
BRANCH  21  26
HETATM   26  C   UNL     1      42.856 -14.421   5.923  1.00  0.00     0.296 C 
HETATM   27  O   UNL     1      43.997 -13.994   5.796  1.00  0.00    -0.259 OA
BRANCH  26  28
HETATM   28  O   UNL     1      42.554 -15.673   6.378  1.00  0.00    -0.322 OA
HETATM   29  C   UNL     1      43.551 -16.250   7.227  1.00  0.00     0.213 C 
ENDBRANCH  26  28
ENDBRANCH  21  26
ENDBRANCH  13  15
ENDBRANCH   1  13
BRANCH   1  30
HETATM   30  C   UNL     1      42.097 -14.627   2.050  1.00  0.00     0.441 C 
HETATM   31  F   UNL     1      43.259 -14.319   2.685  1.00  0.00    -0.166 F 
HETATM   32  F   UNL     1      42.421 -14.933   0.777  1.00  0.00    -0.166 F 
HETATM   33  F   UNL     1      41.379 -13.473   1.990  1.00  0.00    -0.166 F 
ENDBRANCH   1  30
BRANCH   1  34
HETATM   34  C   UNL     1      40.222 -16.149   1.750  1.00  0.00     0.441 C 
HETATM   35  F   UNL     1      40.635 -16.154   0.472  1.00  0.00    -0.166 F 
HETATM   36  F   UNL     1      39.811 -17.425   2.028  1.00  0.00    -0.166 F 
HETATM   37  F   UNL     1      39.114 -15.377   1.830  1.00  0.00    -0.166 F 
ENDBRANCH   1  34
TORSDOF 8
ENDMDL
MODEL 4
REMARK VINA RESULT:      -7.7      2.744      7.698
REMARK  8 active torsions:
REMARK  status: ('A' for Active; 'I' for Inactive)
REMARK    1  A    between atoms: C_5  and  C_6 
REMARK       I    between atoms: C_6  and  N_7 
REMARK    2  A    between atoms: N_7  and  C_8 
REMARK    3  A    between atoms: C_8  and  N_9 
REMARK    4  A    between atoms: C_8  and  C_25 
REMARK    5  A    between atoms: C_8  and  C_29 
REMARK    6  A    between atoms: N_9  and  C_10 
REMARK    7  A    between atoms: C_20  and  C_21 
REMARK    8  A    between atoms: C_21  and  O_22 
ROOT
HETATM    1  C   UNL     1      41.010 -14.810   2.084  1.00  0.00     0.307 C 
ENDROOT
BRANCH   1   2
HETATM    2  N   UNL     1      41.290 -14.245   0.750  1.00  0.00    -0.315 N 
HETATM    3  C   UNL     1      42.040 -13.112   0.578  1.00  0.00     0.254 C 
HETATM    4  O   UNL     1      42.582 -12.532   1.504  1.00  0.00    -0.268 OA
HETATM    5  H   UNL     1      40.668 -14.528   0.007  1.00  0.00     0.165 HD
BRANCH   3   6
HETATM    6  C   UNL     1      42.132 -12.607  -0.812  1.00  0.00     0.032 A 
HETATM    7  C   UNL     1      41.700 -13.387  -1.893  1.00  0.00     0.017 A 
HETATM    8  C   UNL     1      41.804 -12.891  -3.193  1.00  0.00     0.007 A 
HETATM    9  C   UNL     1      42.348 -11.621  -3.426  1.00  0.00    -0.062 A 
HETATM   10  C   UNL     1      42.437 -11.074  -4.822  1.00  0.00     0.048 C 
HETATM   11  C   UNL     1      42.771 -10.845  -2.338  1.00  0.00     0.007 A 
HETATM   12  C   UNL     1      42.677 -11.341  -1.036  1.00  0.00     0.017 A 
ENDBRANCH   3   6
ENDBRANCH   1   2
BRANCH   1  13
HETATM   13  N   UNL     1      42.428 -15.111   2.563  1.00  0.00    -0.342 N 
HETATM   14  H   UNL     1      42.975 -14.243   2.496  1.00  0.00     0.163 HD
BRANCH  13  15
HETATM   15  C   UNL     1      42.747 -15.922   3.618  1.00  0.00     0.089 A 
HETATM   16  S   UNL     1      42.493 -15.453   5.249  1.00  0.00    -0.074 SA
HETATM   17  C   UNL     1      42.978 -16.948   5.859  1.00  0.00     0.018 A 
HETATM   18  C   UNL     1      43.326 -17.833   4.862  1.00  0.00    -0.023 A 
HETATM   19  C   UNL     1      42.969 -17.240   7.321  1.00  0.00     0.281 C 
HETATM   20  C   UNL     1      43.782 -19.230   5.198  1.00  0.00     0.068 C 
HETATM   21  C   UNL     1      43.219 -17.236   3.542  1.00  0.00     0.080 A 
HETATM   22  C   UNL     1      43.452 -19.618   6.652  1.00  0.00     0.239 C 
HETATM   23  N   UNL     1      43.768 -18.499   7.637  1.00  0.00    -0.070 N 
HETATM   24  H   UNL     1      43.437 -18.815   8.556  1.00  0.00     0.279 HD
HETATM   25  C   UNL     1      45.237 -18.231   7.792  1.00  0.00     0.270 C 
BRANCH  21  26
HETATM   26  C   UNL     1      43.582 -17.936   2.296  1.00  0.00     0.296 C 
HETATM   27  O   UNL     1      44.453 -17.523   1.541  1.00  0.00    -0.259 OA
BRANCH  26  28
HETATM   28  O   UNL     1      42.821 -19.044   2.051  1.00  0.00    -0.322 OA
HETATM   29  C   UNL     1      43.574 -20.237   1.809  1.00  0.00     0.213 C 
ENDBRANCH  26  28
ENDBRANCH  21  26
ENDBRANCH  13  15
ENDBRANCH   1  13
BRANCH   1  30
HETATM   30  C   UNL     1      40.138 -13.949   3.051  1.00  0.00     0.441 C 
HETATM   31  F   UNL     1      39.513 -14.715   3.984  1.00  0.00    -0.166 F 
HETATM   32  F   UNL     1      40.817 -12.998   3.722  1.00  0.00    -0.166 F 
HETATM   33  F   UNL     1      39.154 -13.301   2.370  1.00  0.00    -0.166 F 
ENDBRANCH   1  30
BRANCH   1  34
HETATM   34  C   UNL     1      40.223 -16.162   2.040  1.00  0.00     0.441 C 
HETATM   35  F   UNL     1      40.229 -16.870   3.182  1.00  0.00    -0.166 F 
HETATM   36  F   UNL     1      38.911 -15.887   1.763  1.00  0.00    -0.166 F 
HETATM   37  F   UNL     1      40.652 -16.969   1.042  1.00  0.00    -0.166 F 
ENDBRANCH   1  34
TORSDOF 8
ENDMDL
MODEL 5
REMARK VINA RESULT:      -7.7      2.799      5.022
REMARK  8 active torsions:
REMARK  status: ('A' for Active; 'I' for Inactive)
REMARK    1  A    between atoms: C_5  and  C_6 
REMARK       I    between atoms: C_6  and  N_7 
REMARK    2  A    between atoms: N_7  and  C_8 
REMARK    3  A    between atoms: C_8  and  N_9 
REMARK    4  A    between atoms: C_8  and  C_25 
REMARK    5  A    between atoms: C_8  and  C_29 
REMARK    6  A    between atoms: N_9  and  C_10 
REMARK    7  A    between atoms: C_20  and  C_21 
REMARK    8  A    between atoms: C_21  and  O_22 
ROOT
HETATM    1  C   UNL     1      41.391 -15.676   1.934  1.00  0.00     0.307 C 
ENDROOT
BRANCH   1   2
HETATM    2  N   UNL     1      41.962 -16.954   2.401  1.00  0.00    -0.315 N 
HETATM    3  C   UNL     1      43.254 -17.320   2.130  1.00  0.00     0.254 C 
HETATM    4  O   UNL     1      44.039 -16.590   1.546  1.00  0.00    -0.268 OA
HETATM    5  H   UNL     1      41.301 -17.674   2.648  1.00  0.00     0.165 HD
BRANCH   3   6
HETATM    6  C   UNL     1      43.642 -18.681   2.568  1.00  0.00     0.032 A 
HETATM    7  C   UNL     1      44.203 -18.900   3.832  1.00  0.00     0.017 A 
HETATM    8  C   UNL     1      44.566 -20.192   4.218  1.00  0.00     0.007 A 
HETATM    9  C   UNL     1      44.381 -21.271   3.344  1.00  0.00    -0.062 A 
HETATM   10  C   UNL     1      44.746 -22.665   3.765  1.00  0.00     0.048 C 
HETATM   11  C   UNL     1      43.812 -21.043   2.083  1.00  0.00     0.007 A 
HETATM   12  C   UNL     1      43.456 -19.751   1.690  1.00  0.00     0.017 A 
ENDBRANCH   3   6
ENDBRANCH   1   2
BRANCH   1  13
HETATM   13  N   UNL     1      42.376 -14.687   2.551  1.00  0.00    -0.342 N 
HETATM   14  H   UNL     1      43.087 -14.465   1.843  1.00  0.00     0.163 HD
BRANCH  13  15
HETATM   15  C   UNL     1      42.037 -13.655   3.382  1.00  0.00     0.089 A 
HETATM   16  S   UNL     1      42.140 -13.778   5.091  1.00  0.00    -0.074 SA
HETATM   17  C   UNL     1      41.716 -12.164   5.333  1.00  0.00     0.018 A 
HETATM   18  C   UNL     1      41.502 -11.494   4.148  1.00  0.00    -0.023 A 
HETATM   19  C   UNL     1      41.639 -11.568   6.697  1.00  0.00     0.281 C 
HETATM   20  C   UNL     1      41.119 -10.036   4.145  1.00  0.00     0.068 C 
HETATM   21  C   UNL     1      41.663 -12.364   2.994  1.00  0.00     0.080 A 
HETATM   22  C   UNL     1      41.369  -9.366   5.509  1.00  0.00     0.239 C 
HETATM   23  N   UNL     1      40.907 -10.231   6.675  1.00  0.00    -0.070 N 
HETATM   24  H   UNL     1      41.191  -9.744   7.533  1.00  0.00     0.279 HD
HETATM   25  C   UNL     1      39.416 -10.384   6.756  1.00  0.00     0.270 C 
BRANCH  21  26
HETATM   26  C   UNL     1      41.441 -11.928   1.604  1.00  0.00     0.296 C 
HETATM   27  O   UNL     1      40.340 -11.581   1.193  1.00  0.00    -0.259 OA
BRANCH  26  28
HETATM   28  O   UNL     1      42.560 -11.999   0.823  1.00  0.00    -0.322 OA
HETATM   29  C   UNL     1      42.505 -11.202  -0.364  1.00  0.00     0.213 C 
ENDBRANCH  26  28
ENDBRANCH  21  26
ENDBRANCH  13  15
ENDBRANCH   1  13
BRANCH   1  30
HETATM   30  C   UNL     1      41.153 -15.525   0.398  1.00  0.00     0.441 C 
HETATM   31  F   UNL     1      41.124 -16.731  -0.229  1.00  0.00    -0.166 F 
HETATM   32  F   UNL     1      40.010 -14.890   0.068  1.00  0.00    -0.166 F 
HETATM   33  F   UNL     1      42.159 -14.817  -0.182  1.00  0.00    -0.166 F 
ENDBRANCH   1  30
BRANCH   1  34
HETATM   34  C   UNL     1      39.973 -15.371   2.522  1.00  0.00     0.441 C 
HETATM   35  F   UNL     1      39.445 -14.187   2.170  1.00  0.00    -0.166 F 
HETATM   36  F   UNL     1      39.105 -16.330   2.074  1.00  0.00    -0.166 F 
HETATM   37  F   UNL     1      39.953 -15.456   3.872  1.00  0.00    -0.166 F 
ENDBRANCH   1  34
TORSDOF 8
ENDMDL
MODEL 6
REMARK VINA RESULT:      -7.6      2.202      3.129
REMARK  8 active torsions:
REMARK  status: ('A' for Active; 'I' for Inactive)
REMARK    1  A    between atoms: C_5  and  C_6 
REMARK       I    between atoms: C_6  and  N_7 
REMARK    2  A    between atoms: N_7  and  C_8 
REMARK    3  A    between atoms: C_8  and  N_9 
REMARK    4  A    between atoms: C_8  and  C_25 
REMARK    5  A    between atoms: C_8  and  C_29 
REMARK    6  A    between atoms: N_9  and  C_10 
REMARK    7  A    between atoms: C_20  and  C_21 
REMARK    8  A    between atoms: C_21  and  O_22 
ROOT
HETATM    1  C   UNL     1      42.040 -14.664   4.666  1.00  0.00     0.307 C 
ENDROOT
BRANCH   1   2
HETATM    2  N   UNL     1      42.463 -16.045   4.358  1.00  0.00    -0.315 N 
HETATM    3  C   UNL     1      43.379 -16.329   3.382  1.00  0.00     0.254 C 
HETATM    4  O   UNL     1      43.958 -15.462   2.747  1.00  0.00    -0.268 OA
HETATM    5  H   UNL     1      41.841 -16.779   4.662  1.00  0.00     0.165 HD
BRANCH   3   6
HETATM    6  C   UNL     1      43.610 -17.768   3.116  1.00  0.00     0.032 A 
HETATM    7  C   UNL     1      44.070 -18.623   4.125  1.00  0.00     0.017 A 
HETATM    8  C   UNL     1      44.286 -19.974   3.847  1.00  0.00     0.007 A 
HETATM    9  C   UNL     1      44.055 -20.479   2.561  1.00  0.00    -0.062 A 
HETATM   10  C   UNL     1      44.262 -21.936   2.265  1.00  0.00     0.048 C 
HETATM   11  C   UNL     1      43.588 -19.616   1.559  1.00  0.00     0.007 A 
HETATM   12  C   UNL     1      43.379 -18.263   1.830  1.00  0.00     0.017 A 
ENDBRANCH   3   6
ENDBRANCH   1   2
BRANCH   1  13
HETATM   13  N   UNL     1      42.202 -14.011   3.295  1.00  0.00    -0.342 N 
HETATM   14  H   UNL     1      42.821 -14.607   2.732  1.00  0.00     0.163 HD
BRANCH  13  15
HETATM   15  C   UNL     1      41.204 -13.384   2.600  1.00  0.00     0.089 A 
HETATM   16  S   UNL     1      40.947 -11.689   2.689  1.00  0.00    -0.074 SA
HETATM   17  C   UNL     1      39.726 -11.714   1.527  1.00  0.00     0.018 A 
HETATM   18  C   UNL     1      39.492 -12.980   1.037  1.00  0.00    -0.023 A 
HETATM   19  C   UNL     1      39.039 -10.467   1.083  1.00  0.00     0.281 C 
HETATM   20  C   UNL     1      38.442 -13.217  -0.018  1.00  0.00     0.068 C 
HETATM   21  C   UNL     1      40.337 -13.975   1.677  1.00  0.00     0.080 A 
HETATM   22  C   UNL     1      37.989 -11.908  -0.693  1.00  0.00     0.239 C 
HETATM   23  N   UNL     1      37.764 -10.785   0.311  1.00  0.00    -0.070 N 
HETATM   24  H   UNL     1      37.551  -9.941  -0.235  1.00  0.00     0.279 HD
HETATM   25  C   UNL     1      36.581 -11.009   1.209  1.00  0.00     0.270 C 
BRANCH  21  26
HETATM   26  C   UNL     1      40.262 -15.419   1.387  1.00  0.00     0.296 C 
HETATM   27  O   UNL     1      39.364 -16.129   1.821  1.00  0.00    -0.259 OA
BRANCH  26  28
HETATM   28  O   UNL     1      41.309 -15.881   0.641  1.00  0.00    -0.322 OA
HETATM   29  C   UNL     1      41.185 -15.642  -0.765  1.00  0.00     0.213 C 
ENDBRANCH  26  28
ENDBRANCH  21  26
ENDBRANCH  13  15
ENDBRANCH   1  13
BRANCH   1  30
HETATM   30  C   UNL     1      40.644 -14.483   5.341  1.00  0.00     0.441 C 
HETATM   31  F   UNL     1      40.594 -15.079   6.562  1.00  0.00    -0.166 F 
HETATM   32  F   UNL     1      40.271 -13.200   5.520  1.00  0.00    -0.166 F 
HETATM   33  F   UNL     1      39.665 -15.061   4.595  1.00  0.00    -0.166 F 
ENDBRANCH   1  30
BRANCH   1  34
HETATM   34  C   UNL     1      42.992 -13.925   5.664  1.00  0.00     0.441 C 
HETATM   35  F   UNL     1      42.477 -12.832   6.250  1.00  0.00    -0.166 F 
HETATM   36  F   UNL     1      43.312 -14.790   6.675  1.00  0.00    -0.166 F 
HETATM   37  F   UNL     1      44.166 -13.579   5.087  1.00  0.00    -0.166 F 
ENDBRANCH   1  34
TORSDOF 8
ENDMDL
MODEL 7
REMARK VINA RESULT:      -7.6      1.915      3.219
REMARK  8 active torsions:
REMARK  status: ('A' for Active; 'I' for Inactive)
REMARK    1  A    between atoms: C_5  and  C_6 
REMARK       I    between atoms: C_6  and  N_7 
REMARK    2  A    between atoms: N_7  and  C_8 
REMARK    3  A    between atoms: C_8  and  N_9 
REMARK    4  A    between atoms: C_8  and  C_25 
REMARK    5  A    between atoms: C_8  and  C_29 
REMARK    6  A    between atoms: N_9  and  C_10 
REMARK    7  A    between atoms: C_20  and  C_21 
REMARK    8  A    between atoms: C_21  and  O_22 
ROOT
HETATM    1  C   UNL     1      42.392 -14.926   4.367  1.00  0.00     0.307 C 
ENDROOT
BRANCH   1   2
HETATM    2  N   UNL     1      42.944 -16.206   3.882  1.00  0.00    -0.315 N 
HETATM    3  C   UNL     1      42.205 -17.359   3.860  1.00  0.00     0.254 C 
HETATM    4  O   UNL     1      41.026 -17.395   4.174  1.00  0.00    -0.268 OA
HETATM    5  H   UNL     1      43.950 -16.279   3.864  1.00  0.00     0.165 HD
BRANCH   3   6
HETATM    6  C   UNL     1      42.936 -18.583   3.456  1.00  0.00     0.032 A 
HETATM    7  C   UNL     1      43.863 -19.187   4.316  1.00  0.00     0.017 A 
HETATM    8  C   UNL     1      44.543 -20.335   3.909  1.00  0.00     0.007 A 
HETATM    9  C   UNL     1      44.313 -20.883   2.640  1.00  0.00    -0.062 A 
HETATM   10  C   UNL     1      45.024 -22.133   2.209  1.00  0.00     0.048 C 
HETATM   11  C   UNL     1      43.378 -20.276   1.790  1.00  0.00     0.007 A 
HETATM   12  C   UNL     1      42.702 -19.122   2.189  1.00  0.00     0.017 A 
ENDBRANCH   3   6
ENDBRANCH   1   2
BRANCH   1  13
HETATM   13  N   UNL     1      41.240 -14.729   3.384  1.00  0.00    -0.342 N 
HETATM   14  H   UNL     1      40.655 -15.573   3.408  1.00  0.00     0.163 HD
BRANCH  13  15
HETATM   15  C   UNL     1      40.563 -13.555   3.191  1.00  0.00     0.089 A 
HETATM   16  S   UNL     1      39.435 -12.946   4.331  1.00  0.00    -0.074 SA
HETATM   17  C   UNL     1      39.184 -11.519   3.469  1.00  0.00     0.018 A 
HETATM   18  C   UNL     1      39.945 -11.458   2.322  1.00  0.00    -0.023 A 
HETATM   19  C   UNL     1      38.264 -10.454   3.962  1.00  0.00     0.281 C 
HETATM   20  C   UNL     1      39.873 -10.258   1.412  1.00  0.00     0.068 C 
HETATM   21  C   UNL     1      40.741 -12.659   2.133  1.00  0.00     0.080 A 
HETATM   22  C   UNL     1      39.194  -9.053   2.090  1.00  0.00     0.239 C 
HETATM   23  N   UNL     1      37.941  -9.450   2.862  1.00  0.00    -0.070 N 
HETATM   24  H   UNL     1      37.613  -8.605   3.344  1.00  0.00     0.279 HD
HETATM   25  C   UNL     1      36.809  -9.895   1.983  1.00  0.00     0.270 C 
BRANCH  21  26
HETATM   26  C   UNL     1      41.607 -12.889   0.962  1.00  0.00     0.296 C 
HETATM   27  O   UNL     1      42.509 -12.121   0.652  1.00  0.00    -0.259 OA
BRANCH  26  28
HETATM   28  O   UNL     1      41.270 -14.001   0.243  1.00  0.00    -0.322 OA
HETATM   29  C   UNL     1      40.049 -13.881  -0.493  1.00  0.00     0.213 C 
ENDBRANCH  26  28
ENDBRANCH  21  26
ENDBRANCH  13  15
ENDBRANCH   1  13
BRANCH   1  30
HETATM   30  C   UNL     1      42.013 -14.843   5.879  1.00  0.00     0.441 C 
HETATM   31  F   UNL     1      42.834 -15.608   6.647  1.00  0.00    -0.166 F 
HETATM   32  F   UNL     1      42.044 -13.600   6.398  1.00  0.00    -0.166 F 
HETATM   33  F   UNL     1      40.752 -15.309   6.090  1.00  0.00    -0.166 F 
ENDBRANCH   1  30
BRANCH   1  34
HETATM   34  C   UNL     1      43.373 -13.718   4.203  1.00  0.00     0.441 C 
HETATM   35  F   UNL     1      42.843 -12.507   4.442  1.00  0.00    -0.166 F 
HETATM   36  F   UNL     1      44.400 -13.873   5.095  1.00  0.00    -0.166 F 
HETATM   37  F   UNL     1      43.948 -13.691   2.978  1.00  0.00    -0.166 F 
ENDBRANCH   1  34
TORSDOF 8
ENDMDL
MODEL 8
REMARK VINA RESULT:      -7.5      2.866      5.419
REMARK  8 active torsions:
REMARK  status: ('A' for Active; 'I' for Inactive)
REMARK    1  A    between atoms: C_5  and  C_6 
REMARK       I    between atoms: C_6  and  N_7 
REMARK    2  A    between atoms: N_7  and  C_8 
REMARK    3  A    between atoms: C_8  and  N_9 
REMARK    4  A    between atoms: C_8  and  C_25 
REMARK    5  A    between atoms: C_8  and  C_29 
REMARK    6  A    between atoms: N_9  and  C_10 
REMARK    7  A    between atoms: C_20  and  C_21 
REMARK    8  A    between atoms: C_21  and  O_22 
ROOT
HETATM    1  C   UNL     1      40.862 -14.036   1.134  1.00  0.00     0.307 C 
ENDROOT
BRANCH   1   2
HETATM    2  N   UNL     1      41.664 -15.206   1.542  1.00  0.00    -0.315 N 
HETATM    3  C   UNL     1      41.089 -16.367   1.985  1.00  0.00     0.254 C 
HETATM    4  O   UNL     1      39.882 -16.540   2.009  1.00  0.00    -0.268 OA
HETATM    5  H   UNL     1      42.627 -15.025   1.781  1.00  0.00     0.165 HD
BRANCH   3   6
HETATM    6  C   UNL     1      42.030 -17.407   2.467  1.00  0.00     0.032 A 
HETATM    7  C   UNL     1      42.141 -17.702   3.831  1.00  0.00     0.017 A 
HETATM    8  C   UNL     1      43.040 -18.680   4.260  1.00  0.00     0.007 A 
HETATM    9  C   UNL     1      43.839 -19.363   3.334  1.00  0.00    -0.062 A 
HETATM   10  C   UNL     1      44.787 -20.435   3.789  1.00  0.00     0.048 C 
HETATM   11  C   UNL     1      43.714 -19.066   1.969  1.00  0.00     0.007 A 
HETATM   12  C   UNL     1      42.824 -18.082   1.537  1.00  0.00     0.017 A 
ENDBRANCH   3   6
ENDBRANCH   1   2
BRANCH   1  13
HETATM   13  N   UNL     1      39.856 -13.974   2.280  1.00  0.00    -0.342 N 
HETATM   14  H   UNL     1      39.689 -14.933   2.608  1.00  0.00     0.163 HD
BRANCH  13  15
HETATM   15  C   UNL     1      39.829 -13.012   3.253  1.00  0.00     0.089 A 
HETATM   16  S   UNL     1      38.931 -11.560   3.086  1.00  0.00    -0.074 SA
HETATM   17  C   UNL     1      39.292 -11.039   4.649  1.00  0.00     0.018 A 
HETATM   18  C   UNL     1      40.077 -11.941   5.334  1.00  0.00    -0.023 A 
HETATM   19  C   UNL     1      38.759  -9.759   5.194  1.00  0.00     0.281 C 
HETATM   20  C   UNL     1      40.507 -11.667   6.753  1.00  0.00     0.068 C 
HETATM   21  C   UNL     1      40.421 -13.094   4.517  1.00  0.00     0.080 A 
HETATM   22  C   UNL     1      39.690 -10.533   7.400  1.00  0.00     0.239 C 
HETATM   23  N   UNL     1      39.498  -9.348   6.462  1.00  0.00    -0.070 N 
HETATM   24  H   UNL     1      38.877  -8.688   6.945  1.00  0.00     0.279 HD
HETATM   25  C   UNL     1      40.765  -8.594   6.178  1.00  0.00     0.270 C 
BRANCH  21  26
HETATM   26  C   UNL     1      41.295 -14.189   4.976  1.00  0.00     0.296 C 
HETATM   27  O   UNL     1      40.967 -14.958   5.871  1.00  0.00    -0.259 OA
BRANCH  26  28
HETATM   28  O   UNL     1      42.507 -14.222   4.346  1.00  0.00    -0.322 OA
HETATM   29  C   UNL     1      43.621 -13.916   5.190  1.00  0.00     0.213 C 
ENDBRANCH  26  28
ENDBRANCH  21  26
ENDBRANCH  13  15
ENDBRANCH   1  13
BRANCH   1  30
HETATM   30  C   UNL     1      41.637 -12.712   0.842  1.00  0.00     0.441 C 
HETATM   31  F   UNL     1      42.452 -12.833  -0.239  1.00  0.00    -0.166 F 
HETATM   32  F   UNL     1      40.851 -11.640   0.616  1.00  0.00    -0.166 F 
HETATM   33  F   UNL     1      42.440 -12.378   1.888  1.00  0.00    -0.166 F 
ENDBRANCH   1  30
BRANCH   1  34
HETATM   34  C   UNL     1      40.064 -14.255  -0.194  1.00  0.00     0.441 C 
HETATM   35  F   UNL     1      40.095 -13.229  -1.061  1.00  0.00    -0.166 F 
HETATM   36  F   UNL     1      40.603 -15.329  -0.848  1.00  0.00    -0.166 F 
HETATM   37  F   UNL     1      38.769 -14.572   0.037  1.00  0.00    -0.166 F 
ENDBRANCH   1  34
TORSDOF 8
ENDMDL
MODEL 9
REMARK VINA RESULT:      -7.3      1.878      6.680
REMARK  8 active torsions:
REMARK  status: ('A' for Active; 'I' for Inactive)
REMARK    1  A    between atoms: C_5  and  C_6 
REMARK       I    between atoms: C_6  and  N_7 
REMARK    2  A    between atoms: N_7  and  C_8 
REMARK    3  A    between atoms: C_8  and  N_9 
REMARK    4  A    between atoms: C_8  and  C_25 
REMARK    5  A    between atoms: C_8  and  C_29 
REMARK    6  A    between atoms: N_9  and  C_10 
REMARK    7  A    between atoms: C_20  and  C_21 
REMARK    8  A    between atoms: C_21  and  O_22 
ROOT
HETATM    1  C   UNL     1      41.275 -14.567   4.028  1.00  0.00     0.307 C 
ENDROOT
BRANCH   1   2
HETATM    2  N   UNL     1      41.093 -14.251   2.597  1.00  0.00    -0.315 N 
HETATM    3  C   UNL     1      39.990 -14.656   1.894  1.00  0.00     0.254 C 
HETATM    4  O   UNL     1      39.054 -15.244   2.412  1.00  0.00    -0.268 OA
HETATM    5  H   UNL     1      41.927 -14.008   2.086  1.00  0.00     0.165 HD
BRANCH   3   6
HETATM    6  C   UNL     1      40.010 -14.360   0.442  1.00  0.00     0.032 A 
HETATM    7  C   UNL     1      41.046 -14.830  -0.376  1.00  0.00     0.017 A 
HETATM    8  C   UNL     1      41.045 -14.532  -1.739  1.00  0.00     0.007 A 
HETATM    9  C   UNL     1      40.019 -13.757  -2.295  1.00  0.00    -0.062 A 
HETATM   10  C   UNL     1      40.002 -13.457  -3.766  1.00  0.00     0.048 C 
HETATM   11  C   UNL     1      38.983 -13.298  -1.470  1.00  0.00     0.007 A 
HETATM   12  C   UNL     1      38.984 -13.586  -0.104  1.00  0.00     0.017 A 
ENDBRANCH   3   6
ENDBRANCH   1   2
BRANCH   1  13
HETATM   13  N   UNL     1      40.895 -16.046   4.037  1.00  0.00    -0.342 N 
HETATM   14  H   UNL     1      40.017 -16.151   3.513  1.00  0.00     0.163 HD
BRANCH  13  15
HETATM   15  C   UNL     1      41.776 -17.085   3.914  1.00  0.00     0.089 A 
HETATM   16  S   UNL     1      42.409 -17.579   2.398  1.00  0.00    -0.074 SA
HETATM   17  C   UNL     1      43.434 -18.727   3.087  1.00  0.00     0.018 A 
HETATM   18  C   UNL     1      43.338 -18.758   4.462  1.00  0.00    -0.023 A 
HETATM   19  C   UNL     1      44.354 -19.558   2.259  1.00  0.00     0.281 C 
HETATM   20  C   UNL     1      44.178 -19.713   5.271  1.00  0.00     0.068 C 
HETATM   21  C   UNL     1      42.349 -17.817   4.959  1.00  0.00     0.080 A 
HETATM   22  C   UNL     1      45.337 -20.309   4.451  1.00  0.00     0.239 C 
HETATM   23  N   UNL     1      44.900 -20.737   3.055  1.00  0.00    -0.070 N 
HETATM   24  H   UNL     1      45.749 -21.038   2.561  1.00  0.00     0.279 HD
HETATM   25  C   UNL     1      43.975 -21.919   3.050  1.00  0.00     0.270 C 
BRANCH  21  26
HETATM   26  C   UNL     1      41.998 -17.676   6.385  1.00  0.00     0.296 C 
HETATM   27  O   UNL     1      40.943 -17.176   6.754  1.00  0.00    -0.259 OA
BRANCH  26  28
HETATM   28  O   UNL     1      42.979 -18.106   7.233  1.00  0.00    -0.322 OA
HETATM   29  C   UNL     1      43.383 -17.139   8.208  1.00  0.00     0.213 C 
ENDBRANCH  26  28
ENDBRANCH  21  26
ENDBRANCH  13  15
ENDBRANCH   1  13
BRANCH   1  30
HETATM   30  C   UNL     1      42.659 -14.220   4.660  1.00  0.00     0.441 C 
HETATM   31  F   UNL     1      43.685 -14.787   3.971  1.00  0.00    -0.166 F 
HETATM   32  F   UNL     1      42.926 -12.901   4.737  1.00  0.00    -0.166 F 
HETATM   33  F   UNL     1      42.745 -14.697   5.932  1.00  0.00    -0.166 F 
ENDBRANCH   1  30
BRANCH   1  34
HETATM   34  C   UNL     1      40.279 -13.811   4.968  1.00  0.00     0.441 C 
HETATM   35  F   UNL     1      39.628 -12.778   4.408  1.00  0.00    -0.166 F 
HETATM   36  F   UNL     1      39.319 -14.694   5.381  1.00  0.00    -0.166 F 
HETATM   37  F   UNL     1      40.882 -13.366   6.095  1.00  0.00    -0.166 F 
ENDBRANCH   1  34
TORSDOF 8
ENDMDL
MODEL 10
REMARK VINA RESULT:      -7.3      3.485      5.582
REMARK  8 active torsions:
REMARK  status: ('A' for Active; 'I' for Inactive)
REMARK    1  A    between atoms: C_5  and  C_6 
REMARK       I    between atoms: C_6  and  N_7 
REMARK    2  A    between atoms: N_7  and  C_8 
REMARK    3  A    between atoms: C_8  and  N_9 
REMARK    4  A    between atoms: C_8  and  C_25 
REMARK    5  A    between atoms: C_8  and  C_29 
REMARK    6  A    between atoms: N_9  and  C_10 
REMARK    7  A    between atoms: C_20  and  C_21 
REMARK    8  A    between atoms: C_21  and  O_22 
ROOT
HETATM    1  C   UNL     1      41.343 -13.937  -1.024  1.00  0.00     0.307 C 
ENDROOT
BRANCH   1   2
HETATM    2  N   UNL     1      42.003 -14.976  -0.209  1.00  0.00    -0.315 N 
HETATM    3  C   UNL     1      41.297 -15.839   0.586  1.00  0.00     0.254 C 
HETATM    4  O   UNL     1      40.078 -15.856   0.624  1.00  0.00    -0.268 OA
HETATM    5  H   UNL     1      42.982 -14.833  -0.012  1.00  0.00     0.165 HD
BRANCH   3   6
HETATM    6  C   UNL     1      42.110 -16.746   1.431  1.00  0.00     0.032 A 
HETATM    7  C   UNL     1      43.326 -17.265   0.969  1.00  0.00     0.017 A 
HETATM    8  C   UNL     1      44.070 -18.122   1.781  1.00  0.00     0.007 A 
HETATM    9  C   UNL     1      43.602 -18.476   3.053  1.00  0.00    -0.062 A 
HETATM   10  C   UNL     1      44.412 -19.377   3.940  1.00  0.00     0.048 C 
HETATM   11  C   UNL     1      42.387 -17.945   3.510  1.00  0.00     0.007 A 
HETATM   12  C   UNL     1      41.636 -17.095   2.697  1.00  0.00     0.017 A 
ENDBRANCH   3   6
ENDBRANCH   1   2
BRANCH   1  13
HETATM   13  N   UNL     1      40.246 -13.483  -0.064  1.00  0.00    -0.342 N 
HETATM   14  H   UNL     1      39.919 -14.308   0.455  1.00  0.00     0.163 HD
BRANCH  13  15
HETATM   15  C   UNL     1      40.255 -12.313   0.644  1.00  0.00     0.089 A 
HETATM   16  S   UNL     1      39.520 -10.877   0.057  1.00  0.00    -0.074 SA
HETATM   17  C   UNL     1      39.833 -10.020   1.475  1.00  0.00     0.018 A 
HETATM   18  C   UNL     1      40.479 -10.786   2.421  1.00  0.00    -0.023 A 
HETATM   19  C   UNL     1      39.398  -8.604   1.649  1.00  0.00     0.281 C 
HETATM   20  C   UNL     1      40.843 -10.207   3.764  1.00  0.00     0.068 C 
HETATM   21  C   UNL     1      40.756 -12.128   1.937  1.00  0.00     0.080 A 
HETATM   22  C   UNL     1      40.106  -8.885   4.048  1.00  0.00     0.239 C 
HETATM   23  N   UNL     1      40.093  -7.956   2.840  1.00  0.00    -0.070 N 
HETATM   24  H   UNL     1      39.512  -7.149   3.096  1.00  0.00     0.279 HD
HETATM   25  C   UNL     1      41.445  -7.402   2.493  1.00  0.00     0.270 C 
BRANCH  21  26
HETATM   26  C   UNL     1      41.484 -13.145   2.717  1.00  0.00     0.296 C 
HETATM   27  O   UNL     1      40.952 -13.789   3.613  1.00  0.00    -0.259 OA
BRANCH  26  28
HETATM   28  O   UNL     1      42.803 -13.252   2.378  1.00  0.00    -0.322 OA
HETATM   29  C   UNL     1      43.611 -13.921   3.352  1.00  0.00     0.213 C 
ENDBRANCH  26  28
ENDBRANCH  21  26
ENDBRANCH  13  15
ENDBRANCH   1  13
BRANCH   1  30
HETATM   30  C   UNL     1      42.250 -12.804  -1.599  1.00  0.00     0.441 C 
HETATM   31  F   UNL     1      43.188 -13.294  -2.453  1.00  0.00    -0.166 F 
HETATM   32  F   UNL     1      41.587 -11.839  -2.266  1.00  0.00    -0.166 F 
HETATM   33  F   UNL     1      42.933 -12.176  -0.604  1.00  0.00    -0.166 F 
ENDBRANCH   1  30
BRANCH   1  34
HETATM   34  C   UNL     1      40.652 -14.497  -2.312  1.00  0.00     0.441 C 
HETATM   35  F   UNL     1      40.835 -13.770  -3.427  1.00  0.00    -0.166 F 
HETATM   36  F   UNL     1      41.166 -15.738  -2.572  1.00  0.00    -0.166 F 
HETATM   37  F   UNL     1      39.322 -14.675  -2.139  1.00  0.00    -0.166 F 
ENDBRANCH   1  34
TORSDOF 8
ENDMDL
