MODEL 1
REMARK VINA RESULT:      -8.2      0.000      0.000
REMARK  7 active torsions:
REMARK  status: ('A' for Active; 'I' for Inactive)
REMARK    1  A    between atoms: C_3  and  N_4 
REMARK       I    between atoms: N_4  and  C_5 
REMARK    2  A    between atoms: C_5  and  C_6 
REMARK    3  A    between atoms: C_7  and  C_8 
REMARK    4  A    between atoms: C_19  and  C_20 
REMARK    5  A    between atoms: C_20  and  C_21 
REMARK    6  A    between atoms: C_21  and  C_22 
REMARK    7  A    between atoms: C_22  and  O_23 
ROOT
HETATM    1  C   UNL     1      41.329 -15.650   4.553  1.00  0.00     0.062 C 
HETATM    2  C   UNL     1      41.583 -14.384   3.725  1.00  0.00     0.202 C 
HETATM    3  N   UNL     1      41.395 -13.177   4.540  1.00  0.00    -0.083 N 
HETATM    4  C   UNL     1      40.787 -13.175   5.766  1.00  0.00     0.726 A 
HETATM    5  N   UNL     1      40.439 -14.344   6.331  1.00  0.00    -0.192 N 
HETATM    6  N   UNL     1      41.686 -11.924   4.134  1.00  0.00    -0.140 NA
HETATM    7  C   UNL     1      41.146 -11.207   5.130  1.00  0.00     0.166 A 
HETATM    8  N   UNL     1      40.617 -11.941   6.167  1.00  0.00    -0.046 NA
HETATM    9  C   UNL     1      40.723 -15.582   5.767  1.00  0.00     0.037 C 
HETATM   10  C   UNL     1      40.261 -16.771   6.576  1.00  0.00     0.070 C 
HETATM   11  H   UNL     1      39.978 -14.324   7.236  1.00  0.00     0.184 HD
ENDROOT
BRANCH   1  12
HETATM   12  C   UNL     1      41.780 -16.921   3.903  1.00  0.00     0.256 C 
HETATM   13  N   UNL     1      43.077 -17.272   4.197  1.00  0.00    -0.323 N 
HETATM   14  H   UNL     1      43.671 -16.526   4.535  1.00  0.00     0.169 HD
HETATM   15  O   UNL     1      41.065 -17.469   3.075  1.00  0.00    -0.267 OA
BRANCH  13  16
HETATM   16  C   UNL     1      43.732 -18.502   3.950  1.00  0.00     0.041 A 
HETATM   17  C   UNL     1      44.096 -19.015   2.690  1.00  0.00    -0.035 A 
HETATM   18  C   UNL     1      43.808 -18.356   1.369  1.00  0.00     0.050 C 
HETATM   19  C   UNL     1      44.750 -20.265   2.631  1.00  0.00     0.009 A 
HETATM   20  C   UNL     1      44.985 -21.021   3.776  1.00  0.00     0.001 A 
HETATM   21  C   UNL     1      44.574 -20.539   5.010  1.00  0.00     0.002 A 
HETATM   22  C   UNL     1      43.949 -19.295   5.093  1.00  0.00     0.030 A 
ENDBRANCH  13  16
ENDBRANCH   1  12
BRANCH   2  23
HETATM   23  C   UNL     1      40.691 -14.277   2.484  1.00  0.00    -0.028 A 
HETATM   24  C   UNL     1      39.290 -14.381   2.571  1.00  0.00     0.011 A 
HETATM   25  C   UNL     1      38.495 -14.271   1.427  1.00  0.00     0.024 A 
HETATM   26  C   UNL     1      39.092 -14.061   0.187  1.00  0.00     0.034 A 
HETATM   27 CL   UNL     1      38.112 -13.930  -1.222  1.00  0.00    -0.084 Cl
HETATM   28  C   UNL     1      40.476 -13.954   0.079  1.00  0.00     0.024 A 
HETATM   29  C   UNL     1      41.273 -14.059   1.222  1.00  0.00     0.011 A 
ENDBRANCH   2  23
BRANCH   7  30
HETATM   30  C   UNL     1      41.017  -9.730   5.078  1.00  0.00     0.085 C 
BRANCH  30  31
HETATM   31  C   UNL     1      39.573  -9.257   5.252  1.00  0.00     0.034 C 
BRANCH  31  32
HETATM   32  C   UNL     1      38.638  -9.772   4.162  1.00  0.00     0.164 C 
BRANCH  32  33
HETATM   33  O   UNL     1      37.930 -10.914   4.631  1.00  0.00    -0.401 OA
HETATM   34  H   UNL     1      38.344 -11.700   4.236  1.00  0.00     0.209 HD
ENDBRANCH  32  33
ENDBRANCH  31  32
ENDBRANCH  30  31
ENDBRANCH   7  30
TORSDOF 7
ENDMDL
MODEL 2
REMARK VINA RESULT:      -8.1      3.693      5.251
REMARK  7 active torsions:
REMARK  status: ('A' for Active; 'I' for Inactive)
REMARK    1  A    between atoms: C_3  and  N_4 
REMARK       I    between atoms: N_4  and  C_5 
REMARK    2  A    between atoms: C_5  and  C_6 
REMARK    3  A    between atoms: C_7  and  C_8 
REMARK    4  A    between atoms: C_19  and  C_20 
REMARK    5  A    between atoms: C_20  and  C_21 
REMARK    6  A    between atoms: C_21  and  C_22 
REMARK    7  A    between atoms: C_22  and  O_23 
ROOT
HETATM    1  C   UNL     1      41.776 -13.879   1.081  1.00  0.00     0.062 C 
HETATM    2  C   UNL     1      41.979 -13.647  -0.422  1.00  0.00     0.202 C 
HETATM    3  N   UNL     1      42.335 -12.249  -0.694  1.00  0.00    -0.083 N 
HETATM    4  C   UNL     1      42.203 -11.239   0.219  1.00  0.00     0.726 A 
HETATM    5  N   UNL     1      41.843 -11.534   1.480  1.00  0.00    -0.192 N 
HETATM    6  N   UNL     1      42.715 -11.775  -1.900  1.00  0.00    -0.140 NA
HETATM    7  C   UNL     1      42.711 -10.456  -1.661  1.00  0.00     0.166 A 
HETATM    8  N   UNL     1      42.436 -10.091  -0.362  1.00  0.00    -0.046 NA
HETATM    9  C   UNL     1      41.655 -12.832   1.940  1.00  0.00     0.037 C 
HETATM   10  C   UNL     1      41.271 -12.944   3.396  1.00  0.00     0.070 C 
HETATM   11  H   UNL     1      41.737 -10.772   2.143  1.00  0.00     0.184 HD
ENDROOT
BRANCH   1  12
HETATM   12  C   UNL     1      41.706 -15.318   1.486  1.00  0.00     0.256 C 
HETATM   13  N   UNL     1      42.933 -15.909   1.673  1.00  0.00    -0.323 N 
HETATM   14  H   UNL     1      43.718 -15.446   1.234  1.00  0.00     0.169 HD
HETATM   15  O   UNL     1      40.629 -15.900   1.484  1.00  0.00    -0.267 OA
BRANCH  13  16
HETATM   16  C   UNL     1      43.226 -17.157   2.273  1.00  0.00     0.041 A 
HETATM   17  C   UNL     1      43.349 -17.412   3.652  1.00  0.00    -0.035 A 
HETATM   18  C   UNL     1      43.232 -16.378   4.739  1.00  0.00     0.050 C 
HETATM   19  C   UNL     1      43.643 -18.726   4.075  1.00  0.00     0.009 A 
HETATM   20  C   UNL     1      43.873 -19.752   3.162  1.00  0.00     0.001 A 
HETATM   21  C   UNL     1      43.808 -19.486   1.803  1.00  0.00     0.002 A 
HETATM   22  C   UNL     1      43.492 -18.200   1.365  1.00  0.00     0.030 A 
ENDBRANCH  13  16
ENDBRANCH   1  12
BRANCH   2  23
HETATM   23  C   UNL     1      40.755 -14.012  -1.267  1.00  0.00    -0.028 A 
HETATM   24  C   UNL     1      39.478 -13.494  -0.978  1.00  0.00     0.011 A 
HETATM   25  C   UNL     1      38.376 -13.833  -1.767  1.00  0.00     0.024 A 
HETATM   26  C   UNL     1      38.538 -14.695  -2.849  1.00  0.00     0.034 A 
HETATM   27 CL   UNL     1      37.180 -15.114  -3.819  1.00  0.00    -0.084 Cl
HETATM   28  C   UNL     1      39.793 -15.216  -3.153  1.00  0.00     0.024 A 
HETATM   29  C   UNL     1      40.897 -14.876  -2.368  1.00  0.00     0.011 A 
ENDBRANCH   2  23
BRANCH   7  30
HETATM   30  C   UNL     1      42.876  -9.444  -2.734  1.00  0.00     0.085 C 
BRANCH  30  31
HETATM   31  C   UNL     1      41.843  -9.597  -3.852  1.00  0.00     0.034 C 
BRANCH  31  32
HETATM   32  C   UNL     1      42.446 -10.091  -5.163  1.00  0.00     0.164 C 
BRANCH  32  33
HETATM   33  O   UNL     1      42.790 -11.468  -5.049  1.00  0.00    -0.401 OA
HETATM   34  H   UNL     1      43.204 -11.739  -5.885  1.00  0.00     0.209 HD
ENDBRANCH  32  33
ENDBRANCH  31  32
ENDBRANCH  30  31
ENDBRANCH   7  30
TORSDOF 7
ENDMDL
MODEL 3
REMARK VINA RESULT:      -8.1      0.470      1.254
REMARK  7 active torsions:
REMARK  status: ('A' for Active; 'I' for Inactive)
REMARK    1  A    between atoms: C_3  and  N_4 
REMARK       I    between atoms: N_4  and  C_5 
REMARK    2  A    between atoms: C_5  and  C_6 
REMARK    3  A    between atoms: C_7  and  C_8 
REMARK    4  A    between atoms: C_19  and  C_20 
REMARK    5  A    between atoms: C_20  and  C_21 
REMARK    6  A    between atoms: C_21  and  C_22 
REMARK    7  A    between atoms: C_22  and  O_23 
ROOT
HETATM    1  C   UNL     1      41.327 -15.792   4.345  1.00  0.00     0.062 C 
HETATM    2  C   UNL     1      41.582 -14.505   3.551  1.00  0.00     0.202 C 
HETATM    3  N   UNL     1      41.461 -13.323   4.414  1.00  0.00    -0.083 N 
HETATM    4  C   UNL     1      40.902 -13.347   5.661  1.00  0.00     0.726 A 
HETATM    5  N   UNL     1      40.544 -14.526   6.201  1.00  0.00    -0.192 N 
HETATM    6  N   UNL     1      41.771 -12.064   4.038  1.00  0.00    -0.140 NA
HETATM    7  C   UNL     1      41.290 -11.369   5.078  1.00  0.00     0.166 A 
HETATM    8  N   UNL     1      40.782 -12.125   6.111  1.00  0.00    -0.046 NA
HETATM    9  C   UNL     1      40.770 -15.751   5.585  1.00  0.00     0.037 C 
HETATM   10  C   UNL     1      40.308 -16.955   6.371  1.00  0.00     0.070 C 
HETATM   11  H   UNL     1      40.119 -14.525   7.124  1.00  0.00     0.184 HD
ENDROOT
BRANCH   1  12
HETATM   12  C   UNL     1      41.716 -17.051   3.635  1.00  0.00     0.256 C 
HETATM   13  N   UNL     1      42.976 -17.505   3.947  1.00  0.00    -0.323 N 
HETATM   14  H   UNL     1      43.605 -16.821   4.347  1.00  0.00     0.169 HD
HETATM   15  O   UNL     1      40.995 -17.502   2.754  1.00  0.00    -0.267 OA
BRANCH  13  16
HETATM   16  C   UNL     1      43.558 -18.760   3.648  1.00  0.00     0.041 A 
HETATM   17  C   UNL     1      44.377 -19.524   4.501  1.00  0.00    -0.035 A 
HETATM   18  C   UNL     1      44.818 -19.112   5.879  1.00  0.00     0.050 C 
HETATM   19  C   UNL     1      44.871 -20.762   4.035  1.00  0.00     0.009 A 
HETATM   20  C   UNL     1      44.617 -21.210   2.742  1.00  0.00     0.001 A 
HETATM   21  C   UNL     1      43.857 -20.428   1.884  1.00  0.00     0.002 A 
HETATM   22  C   UNL     1      43.338 -19.214   2.333  1.00  0.00     0.030 A 
ENDBRANCH  13  16
ENDBRANCH   1  12
BRANCH   2  23
HETATM   23  C   UNL     1      40.646 -14.332   2.351  1.00  0.00    -0.028 A 
HETATM   24  C   UNL     1      39.247 -14.392   2.492  1.00  0.00     0.011 A 
HETATM   25  C   UNL     1      38.411 -14.221   1.386  1.00  0.00     0.024 A 
HETATM   26  C   UNL     1      38.965 -13.994   0.128  1.00  0.00     0.034 A 
HETATM   27 CL   UNL     1      37.935 -13.788  -1.234  1.00  0.00    -0.084 Cl
HETATM   28  C   UNL     1      40.347 -13.929  -0.033  1.00  0.00     0.024 A 
HETATM   29  C   UNL     1      41.184 -14.095   1.073  1.00  0.00     0.011 A 
ENDBRANCH   2  23
BRANCH   7  30
HETATM   30  C   UNL     1      41.201  -9.888   5.082  1.00  0.00     0.085 C 
BRANCH  30  31
HETATM   31  C   UNL     1      39.763  -9.384   5.221  1.00  0.00     0.034 C 
BRANCH  31  32
HETATM   32  C   UNL     1      38.823  -9.957   4.166  1.00  0.00     0.164 C 
BRANCH  32  33
HETATM   33  O   UNL     1      38.032 -10.996   4.735  1.00  0.00    -0.401 OA
HETATM   34  H   UNL     1      38.549 -11.817   4.692  1.00  0.00     0.209 HD
ENDBRANCH  32  33
ENDBRANCH  31  32
ENDBRANCH  30  31
ENDBRANCH   7  30
TORSDOF 7
ENDMDL
MODEL 4
REMARK VINA RESULT:      -7.8      3.192      5.400
REMARK  7 active torsions:
REMARK  status: ('A' for Active; 'I' for Inactive)
REMARK    1  A    between atoms: C_3  and  N_4 
REMARK       I    between atoms: N_4  and  C_5 
REMARK    2  A    between atoms: C_5  and  C_6 
REMARK    3  A    between atoms: C_7  and  C_8 
REMARK    4  A    between atoms: C_19  and  C_20 
REMARK    5  A    between atoms: C_20  and  C_21 
REMARK    6  A    between atoms: C_21  and  C_22 
REMARK    7  A    between atoms: C_22  and  O_23 
ROOT
HETATM    1  C   UNL     1      41.798 -16.592   2.369  1.00  0.00     0.062 C 
HETATM    2  C   UNL     1      40.620 -15.611   2.323  1.00  0.00     0.202 C 
HETATM    3  N   UNL     1      40.362 -15.162   0.949  1.00  0.00    -0.083 N 
HETATM    4  C   UNL     1      41.235 -15.349  -0.088  1.00  0.00     0.726 A 
HETATM    5  N   UNL     1      42.342 -16.087   0.108  1.00  0.00    -0.192 N 
HETATM    6  N   UNL     1      39.305 -14.414   0.572  1.00  0.00    -0.140 NA
HETATM    7  C   UNL     1      39.649 -14.112  -0.688  1.00  0.00     0.166 A 
HETATM    8  N   UNL     1      40.810 -14.699  -1.140  1.00  0.00    -0.046 NA
HETATM    9  C   UNL     1      42.629 -16.737   1.303  1.00  0.00     0.037 C 
HETATM   10  C   UNL     1      43.915 -17.528   1.305  1.00  0.00     0.070 C 
HETATM   11  H   UNL     1      42.986 -16.207  -0.669  1.00  0.00     0.184 HD
ENDROOT
BRANCH   1  12
HETATM   12  C   UNL     1      41.947 -17.328   3.663  1.00  0.00     0.256 C 
HETATM   13  N   UNL     1      43.152 -17.119   4.293  1.00  0.00    -0.323 N 
HETATM   14  H   UNL     1      43.902 -16.774   3.707  1.00  0.00     0.169 HD
HETATM   15  O   UNL     1      41.101 -18.145   4.000  1.00  0.00    -0.267 OA
BRANCH  13  16
HETATM   16  C   UNL     1      43.524 -17.462   5.614  1.00  0.00     0.041 A 
HETATM   17  C   UNL     1      44.311 -18.565   6.000  1.00  0.00    -0.035 A 
HETATM   18  C   UNL     1      44.860 -19.607   5.065  1.00  0.00     0.050 C 
HETATM   19  C   UNL     1      44.587 -18.753   7.371  1.00  0.00     0.009 A 
HETATM   20  C   UNL     1      44.054 -17.913   8.345  1.00  0.00     0.001 A 
HETATM   21  C   UNL     1      43.233 -16.861   7.967  1.00  0.00     0.002 A 
HETATM   22  C   UNL     1      42.968 -16.643   6.615  1.00  0.00     0.030 A 
ENDBRANCH  13  16
ENDBRANCH   1  12
BRANCH   2  23
HETATM   23  C   UNL     1      40.818 -14.378   3.210  1.00  0.00    -0.028 A 
HETATM   24  C   UNL     1      41.935 -13.535   3.062  1.00  0.00     0.011 A 
HETATM   25  C   UNL     1      42.090 -12.409   3.876  1.00  0.00     0.024 A 
HETATM   26  C   UNL     1      41.135 -12.119   4.847  1.00  0.00     0.034 A 
HETATM   27 CL   UNL     1      41.330 -10.735   5.851  1.00  0.00    -0.084 Cl
HETATM   28  C   UNL     1      40.022 -12.939   5.008  1.00  0.00     0.024 A 
HETATM   29  C   UNL     1      39.862 -14.063   4.193  1.00  0.00     0.011 A 
ENDBRANCH   2  23
BRANCH   7  30
HETATM   30  C   UNL     1      38.904 -13.128  -1.512  1.00  0.00     0.085 C 
BRANCH  30  31
HETATM   31  C   UNL     1      38.816 -13.538  -2.983  1.00  0.00     0.034 C 
BRANCH  31  32
HETATM   32  C   UNL     1      37.448 -14.093  -3.370  1.00  0.00     0.164 C 
BRANCH  32  33
HETATM   33  O   UNL     1      37.388 -15.484  -3.071  1.00  0.00    -0.401 OA
HETATM   34  H   UNL     1      37.395 -15.967  -3.914  1.00  0.00     0.209 HD
ENDBRANCH  32  33
ENDBRANCH  31  32
ENDBRANCH  30  31
ENDBRANCH   7  30
TORSDOF 7
ENDMDL
MODEL 5
REMARK VINA RESULT:      -7.8      2.667      4.188
REMARK  7 active torsions:
REMARK  status: ('A' for Active; 'I' for Inactive)
REMARK    1  A    between atoms: C_3  and  N_4 
REMARK       I    between atoms: N_4  and  C_5 
REMARK    2  A    between atoms: C_5  and  C_6 
REMARK    3  A    between atoms: C_7  and  C_8 
REMARK    4  A    between atoms: C_19  and  C_20 
REMARK    5  A    between atoms: C_20  and  C_21 
REMARK    6  A    between atoms: C_21  and  C_22 
REMARK    7  A    between atoms: C_22  and  O_23 
ROOT
HETATM    1  C   UNL     1      40.790 -15.576   1.804  1.00  0.00     0.062 C 
HETATM    2  C   UNL     1      40.460 -14.772   3.068  1.00  0.00     0.202 C 
HETATM    3  N   UNL     1      39.871 -13.472   2.725  1.00  0.00    -0.083 N 
HETATM    4  C   UNL     1      39.898 -12.933   1.468  1.00  0.00     0.726 A 
HETATM    5  N   UNL     1      40.378 -13.665   0.447  1.00  0.00    -0.192 N 
HETATM    6  N   UNL     1      39.347 -12.607   3.619  1.00  0.00    -0.140 NA
HETATM    7  C   UNL     1      39.157 -11.531   2.843  1.00  0.00     0.166 A 
HETATM    8  N   UNL     1      39.450 -11.705   1.509  1.00  0.00    -0.046 NA
HETATM    9  C   UNL     1      40.797 -14.984   0.580  1.00  0.00     0.037 C 
HETATM   10  C   UNL     1      41.283 -15.630  -0.695  1.00  0.00     0.070 C 
HETATM   11  H   UNL     1      40.402 -13.246  -0.478  1.00  0.00     0.184 HD
ENDROOT
BRANCH   1  12
HETATM   12  C   UNL     1      41.112 -17.017   2.047  1.00  0.00     0.256 C 
HETATM   13  N   UNL     1      42.459 -17.292   2.087  1.00  0.00    -0.323 N 
HETATM   14  H   UNL     1      43.063 -16.606   1.653  1.00  0.00     0.169 HD
HETATM   15  O   UNL     1      40.216 -17.850   2.050  1.00  0.00    -0.267 OA
BRANCH  13  16
HETATM   16  C   UNL     1      43.102 -18.475   2.522  1.00  0.00     0.041 A 
HETATM   17  C   UNL     1      43.714 -18.681   3.774  1.00  0.00    -0.035 A 
HETATM   18  C   UNL     1      43.830 -17.650   4.862  1.00  0.00     0.050 C 
HETATM   19  C   UNL     1      44.309 -19.933   4.039  1.00  0.00     0.009 A 
HETATM   20  C   UNL     1      44.357 -20.938   3.076  1.00  0.00     0.001 A 
HETATM   21  C   UNL     1      43.804 -20.712   1.824  1.00  0.00     0.002 A 
HETATM   22  C   UNL     1      43.188 -19.491   1.551  1.00  0.00     0.030 A 
ENDBRANCH  13  16
ENDBRANCH   1  12
BRANCH   2  23
HETATM   23  C   UNL     1      41.672 -14.535   3.974  1.00  0.00    -0.028 A 
HETATM   24  C   UNL     1      42.888 -14.039   3.465  1.00  0.00     0.011 A 
HETATM   25  C   UNL     1      43.978 -13.821   4.311  1.00  0.00     0.024 A 
HETATM   26  C   UNL     1      43.867 -14.100   5.671  1.00  0.00     0.034 A 
HETATM   27 CL   UNL     1      45.211 -13.835   6.711  1.00  0.00    -0.084 Cl
HETATM   28  C   UNL     1      42.672 -14.589   6.195  1.00  0.00     0.024 A 
HETATM   29  C   UNL     1      41.580 -14.804   5.351  1.00  0.00     0.011 A 
ENDBRANCH   2  23
BRANCH   7  30
HETATM   30  C   UNL     1      38.768 -10.206   3.387  1.00  0.00     0.085 C 
BRANCH  30  31
HETATM   31  C   UNL     1      39.763  -9.680   4.423  1.00  0.00     0.034 C 
BRANCH  31  32
HETATM   32  C   UNL     1      39.196  -9.652   5.839  1.00  0.00     0.164 C 
BRANCH  32  33
HETATM   33  O   UNL     1      39.063 -10.981   6.333  1.00  0.00    -0.401 OA
HETATM   34  H   UNL     1      38.115 -11.159   6.450  1.00  0.00     0.209 HD
ENDBRANCH  32  33
ENDBRANCH  31  32
ENDBRANCH  30  31
ENDBRANCH   7  30
TORSDOF 7
ENDMDL
MODEL 6
REMARK VINA RESULT:      -7.6      3.840      8.423
REMARK  7 active torsions:
REMARK  status: ('A' for Active; 'I' for Inactive)
REMARK    1  A    between atoms: C_3  and  N_4 
REMARK       I    between atoms: N_4  and  C_5 
REMARK    2  A    between atoms: C_5  and  C_6 
REMARK    3  A    between atoms: C_7  and  C_8 
REMARK    4  A    between atoms: C_19  and  C_20 
REMARK    5  A    between atoms: C_20  and  C_21 
REMARK    6  A    between atoms: C_21  and  C_22 
REMARK    7  A    between atoms: C_22  and  O_23 
ROOT
HETATM    1  C   UNL     1      41.499 -13.876   0.230  1.00  0.00     0.062 C 
HETATM    2  C   UNL     1      42.283 -14.306   1.476  1.00  0.00     0.202 C 
HETATM    3  N   UNL     1      42.513 -15.756   1.477  1.00  0.00    -0.083 N 
HETATM    4  C   UNL     1      41.862 -16.630   0.650  1.00  0.00     0.726 A 
HETATM    5  N   UNL     1      41.049 -16.150  -0.307  1.00  0.00    -0.192 N 
HETATM    6  N   UNL     1      43.294 -16.408   2.364  1.00  0.00    -0.140 NA
HETATM    7  C   UNL     1      42.998 -17.682   2.067  1.00  0.00     0.166 A 
HETATM    8  N   UNL     1      42.150 -17.858   0.997  1.00  0.00    -0.046 NA
HETATM    9  C   UNL     1      40.875 -14.793  -0.556  1.00  0.00     0.037 C 
HETATM   10  C   UNL     1      39.932 -14.469  -1.689  1.00  0.00     0.070 C 
HETATM   11  H   UNL     1      40.564 -16.812  -0.905  1.00  0.00     0.184 HD
ENDROOT
BRANCH   1  12
HETATM   12  C   UNL     1      41.474 -12.399  -0.012  1.00  0.00     0.256 C 
HETATM   13  N   UNL     1      42.555 -11.927  -0.719  1.00  0.00    -0.323 N 
HETATM   14  H   UNL     1      43.372 -12.524  -0.727  1.00  0.00     0.169 HD
HETATM   15  O   UNL     1      40.620 -11.708   0.528  1.00  0.00    -0.267 OA
BRANCH  13  16
HETATM   16  C   UNL     1      42.729 -10.655  -1.313  1.00  0.00     0.041 A 
HETATM   17  C   UNL     1      42.443 -10.311  -2.649  1.00  0.00    -0.035 A 
HETATM   18  C   UNL     1      41.938 -11.261  -3.699  1.00  0.00     0.050 C 
HETATM   19  C   UNL     1      42.678  -8.985  -3.072  1.00  0.00     0.009 A 
HETATM   20  C   UNL     1      43.237  -8.035  -2.221  1.00  0.00     0.001 A 
HETATM   21  C   UNL     1      43.571  -8.392  -0.923  1.00  0.00     0.002 A 
HETATM   22  C   UNL     1      43.324  -9.690  -0.478  1.00  0.00     0.030 A 
ENDBRANCH  13  16
ENDBRANCH   1  12
BRANCH   2  23
HETATM   23  C   UNL     1      41.598 -13.921   2.791  1.00  0.00    -0.028 A 
HETATM   24  C   UNL     1      40.364 -14.481   3.172  1.00  0.00     0.011 A 
HETATM   25  C   UNL     1      39.762 -14.122   4.381  1.00  0.00     0.024 A 
HETATM   26  C   UNL     1      40.383 -13.198   5.217  1.00  0.00     0.034 A 
HETATM   27 CL   UNL     1      39.638 -12.754   6.703  1.00  0.00    -0.084 Cl
HETATM   28  C   UNL     1      41.605 -12.633   4.859  1.00  0.00     0.024 A 
HETATM   29  C   UNL     1      42.211 -12.993   3.653  1.00  0.00     0.011 A 
ENDBRANCH   2  23
BRANCH   7  30
HETATM   30  C   UNL     1      43.453 -18.826   2.895  1.00  0.00     0.085 C 
BRANCH  30  31
HETATM   31  C   UNL     1      43.446 -20.149   2.126  1.00  0.00     0.034 C 
BRANCH  31  32
HETATM   32  C   UNL     1      44.555 -21.101   2.561  1.00  0.00     0.164 C 
BRANCH  32  33
HETATM   33  O   UNL     1      44.435 -22.336   1.863  1.00  0.00    -0.401 OA
HETATM   34  H   UNL     1      44.411 -22.136   0.912  1.00  0.00     0.209 HD
ENDBRANCH  32  33
ENDBRANCH  31  32
ENDBRANCH  30  31
ENDBRANCH   7  30
TORSDOF 7
ENDMDL
MODEL 7
REMARK VINA RESULT:      -7.5      3.253      6.682
REMARK  7 active torsions:
REMARK  status: ('A' for Active; 'I' for Inactive)
REMARK    1  A    between atoms: C_3  and  N_4 
REMARK       I    between atoms: N_4  and  C_5 
REMARK    2  A    between atoms: C_5  and  C_6 
REMARK    3  A    between atoms: C_7  and  C_8 
REMARK    4  A    between atoms: C_19  and  C_20 
REMARK    5  A    between atoms: C_20  and  C_21 
REMARK    6  A    between atoms: C_21  and  C_22 
REMARK    7  A    between atoms: C_22  and  O_23 
ROOT
HETATM    1  C   UNL     1      41.298 -14.224   1.942  1.00  0.00     0.062 C 
HETATM    2  C   UNL     1      41.485 -15.257   3.061  1.00  0.00     0.202 C 
HETATM    3  N   UNL     1      42.264 -14.695   4.171  1.00  0.00    -0.083 N 
HETATM    4  C   UNL     1      42.978 -13.531   4.086  1.00  0.00     0.726 A 
HETATM    5  N   UNL     1      42.881 -12.778   2.975  1.00  0.00    -0.192 N 
HETATM    6  N   UNL     1      42.469 -15.311   5.354  1.00  0.00    -0.140 NA
HETATM    7  C   UNL     1      43.386 -14.501   5.901  1.00  0.00     0.166 A 
HETATM    8  N   UNL     1      43.697 -13.378   5.167  1.00  0.00    -0.046 NA
HETATM    9  C   UNL     1      42.036 -13.082   1.915  1.00  0.00     0.037 C 
HETATM   10  C   UNL     1      42.065 -12.094   0.773  1.00  0.00     0.070 C 
HETATM   11  H   UNL     1      43.426 -11.922   2.923  1.00  0.00     0.184 HD
ENDROOT
BRANCH   1  12
HETATM   12  C   UNL     1      40.278 -14.596   0.913  1.00  0.00     0.256 C 
HETATM   13  N   UNL     1      40.618 -14.239  -0.371  1.00  0.00    -0.323 N 
HETATM   14  H   UNL     1      41.323 -13.517  -0.456  1.00  0.00     0.169 HD
HETATM   15  O   UNL     1      39.192 -15.039   1.263  1.00  0.00    -0.267 OA
BRANCH  13  16
HETATM   16  C   UNL     1      40.011 -14.638  -1.585  1.00  0.00     0.041 A 
HETATM   17  C   UNL     1      38.815 -14.128  -2.127  1.00  0.00    -0.035 A 
HETATM   18  C   UNL     1      37.942 -13.090  -1.477  1.00  0.00     0.050 C 
HETATM   19  C   UNL     1      38.355 -14.644  -3.357  1.00  0.00     0.009 A 
HETATM   20  C   UNL     1      39.020 -15.678  -4.009  1.00  0.00     0.001 A 
HETATM   21  C   UNL     1      40.167 -16.218  -3.445  1.00  0.00     0.002 A 
HETATM   22  C   UNL     1      40.652 -15.704  -2.243  1.00  0.00     0.030 A 
ENDBRANCH  13  16
ENDBRANCH   1  12
BRANCH   2  23
HETATM   23  C   UNL     1      42.164 -16.547   2.592  1.00  0.00    -0.028 A 
HETATM   24  C   UNL     1      42.986 -16.576   1.450  1.00  0.00     0.011 A 
HETATM   25  C   UNL     1      43.604 -17.762   1.046  1.00  0.00     0.024 A 
HETATM   26  C   UNL     1      43.404 -18.931   1.775  1.00  0.00     0.034 A 
HETATM   27 CL   UNL     1      44.162 -20.392   1.274  1.00  0.00    -0.084 Cl
HETATM   28  C   UNL     1      42.596 -18.924   2.910  1.00  0.00     0.024 A 
HETATM   29  C   UNL     1      41.980 -17.738   3.318  1.00  0.00     0.011 A 
ENDBRANCH   2  23
BRANCH   7  30
HETATM   30  C   UNL     1      44.109 -14.835   7.153  1.00  0.00     0.085 C 
BRANCH  30  31
HETATM   31  C   UNL     1      44.385 -16.334   7.292  1.00  0.00     0.034 C 
BRANCH  31  32
HETATM   32  C   UNL     1      43.400 -17.041   8.218  1.00  0.00     0.164 C 
BRANCH  32  33
HETATM   33  O   UNL     1      42.245 -17.436   7.485  1.00  0.00    -0.401 OA
HETATM   34  H   UNL     1      41.828 -16.630   7.136  1.00  0.00     0.209 HD
ENDBRANCH  32  33
ENDBRANCH  31  32
ENDBRANCH  30  31
ENDBRANCH   7  30
TORSDOF 7
ENDMDL
MODEL 8
REMARK VINA RESULT:      -7.3      2.116      7.470
REMARK  7 active torsions:
REMARK  status: ('A' for Active; 'I' for Inactive)
REMARK    1  A    between atoms: C_3  and  N_4 
REMARK       I    between atoms: N_4  and  C_5 
REMARK    2  A    between atoms: C_5  and  C_6 
REMARK    3  A    between atoms: C_7  and  C_8 
REMARK    4  A    between atoms: C_19  and  C_20 
REMARK    5  A    between atoms: C_20  and  C_21 
REMARK    6  A    between atoms: C_21  and  C_22 
REMARK    7  A    between atoms: C_22  and  O_23 
ROOT
HETATM    1  C   UNL     1      41.850 -15.085   5.252  1.00  0.00     0.062 C 
HETATM    2  C   UNL     1      41.568 -16.258   4.305  1.00  0.00     0.202 C 
HETATM    3  N   UNL     1      42.588 -17.305   4.446  1.00  0.00    -0.083 N 
HETATM    4  C   UNL     1      43.777 -17.124   5.098  1.00  0.00     0.726 A 
HETATM    5  N   UNL     1      43.999 -15.973   5.758  1.00  0.00    -0.192 N 
HETATM    6  N   UNL     1      42.531 -18.516   3.855  1.00  0.00    -0.140 NA
HETATM    7  C   UNL     1      43.760 -18.982   4.121  1.00  0.00     0.166 A 
HETATM    8  N   UNL     1      44.541 -18.169   4.913  1.00  0.00    -0.046 NA
HETATM    9  C   UNL     1      43.052 -14.962   5.874  1.00  0.00     0.037 C 
HETATM   10  C   UNL     1      43.498 -13.761   6.673  1.00  0.00     0.070 C 
HETATM   11  H   UNL     1      44.891 -15.850   6.226  1.00  0.00     0.184 HD
ENDROOT
BRANCH   1  12
HETATM   12  C   UNL     1      40.719 -14.116   5.398  1.00  0.00     0.256 C 
HETATM   13  N   UNL     1      40.882 -12.951   4.684  1.00  0.00    -0.323 N 
HETATM   14  H   UNL     1      41.830 -12.732   4.407  1.00  0.00     0.169 HD
HETATM   15  O   UNL     1      39.832 -14.332   6.212  1.00  0.00    -0.267 OA
BRANCH  13  16
HETATM   16  C   UNL     1      39.925 -11.945   4.412  1.00  0.00     0.041 A 
HETATM   17  C   UNL     1      39.052 -11.900   3.307  1.00  0.00    -0.035 A 
HETATM   18  C   UNL     1      39.019 -12.904   2.187  1.00  0.00     0.050 C 
HETATM   19  C   UNL     1      38.155 -10.816   3.196  1.00  0.00     0.009 A 
HETATM   20  C   UNL     1      38.157  -9.771   4.115  1.00  0.00     0.001 A 
HETATM   21  C   UNL     1      39.056  -9.789   5.171  1.00  0.00     0.002 A 
HETATM   22  C   UNL     1      39.933 -10.864   5.313  1.00  0.00     0.030 A 
ENDBRANCH  13  16
ENDBRANCH   1  12
BRANCH   2  23
HETATM   23  C   UNL     1      41.491 -15.848   2.831  1.00  0.00    -0.028 A 
HETATM   24  C   UNL     1      40.482 -16.338   1.981  1.00  0.00     0.011 A 
HETATM   25  C   UNL     1      40.424 -15.943   0.642  1.00  0.00     0.024 A 
HETATM   26  C   UNL     1      41.376 -15.059   0.139  1.00  0.00     0.034 A 
HETATM   27 CL   UNL     1      41.307 -14.577  -1.511  1.00  0.00    -0.084 Cl
HETATM   28  C   UNL     1      42.382 -14.561   0.964  1.00  0.00     0.024 A 
HETATM   29  C   UNL     1      42.438 -14.952   2.304  1.00  0.00     0.011 A 
ENDBRANCH   2  23
BRANCH   7  30
HETATM   30  C   UNL     1      44.296 -20.227   3.519  1.00  0.00     0.085 C 
BRANCH  30  31
HETATM   31  C   UNL     1      43.676 -20.536   2.155  1.00  0.00     0.034 C 
BRANCH  31  32
HETATM   32  C   UNL     1      44.099 -21.892   1.598  1.00  0.00     0.164 C 
BRANCH  32  33
HETATM   33  O   UNL     1      44.561 -22.727   2.655  1.00  0.00    -0.401 OA
HETATM   34  H   UNL     1      44.977 -22.155   3.322  1.00  0.00     0.209 HD
ENDBRANCH  32  33
ENDBRANCH  31  32
ENDBRANCH  30  31
ENDBRANCH   7  30
TORSDOF 7
ENDMDL
MODEL 9
REMARK VINA RESULT:      -7.3      3.039      4.616
REMARK  7 active torsions:
REMARK  status: ('A' for Active; 'I' for Inactive)
REMARK    1  A    between atoms: C_3  and  N_4 
REMARK       I    between atoms: N_4  and  C_5 
REMARK    2  A    between atoms: C_5  and  C_6 
REMARK    3  A    between atoms: C_7  and  C_8 
REMARK    4  A    between atoms: C_19  and  C_20 
REMARK    5  A    between atoms: C_20  and  C_21 
REMARK    6  A    between atoms: C_21  and  C_22 
REMARK    7  A    between atoms: C_22  and  O_23 
ROOT
HETATM    1  C   UNL     1      42.508 -13.473   4.193  1.00  0.00     0.062 C 
HETATM    2  C   UNL     1      42.756 -13.708   2.697  1.00  0.00     0.202 C 
HETATM    3  N   UNL     1      42.184 -12.621   1.893  1.00  0.00    -0.083 N 
HETATM    4  C   UNL     1      41.299 -11.700   2.380  1.00  0.00     0.726 A 
HETATM    5  N   UNL     1      41.011 -11.693   3.694  1.00  0.00    -0.192 N 
HETATM    6  N   UNL     1      42.365 -12.473   0.564  1.00  0.00    -0.140 NA
HETATM    7  C   UNL     1      41.489 -11.493   0.300  1.00  0.00     0.166 A 
HETATM    8  N   UNL     1      40.842 -10.969   1.397  1.00  0.00    -0.046 NA
HETATM    9  C   UNL     1      41.616 -12.538   4.616  1.00  0.00     0.037 C 
HETATM   10  C   UNL     1      41.163 -12.354   6.044  1.00  0.00     0.070 C 
HETATM   11  H   UNL     1      40.342 -11.010   4.038  1.00  0.00     0.184 HD
ENDROOT
BRANCH   1  12
HETATM   12  C   UNL     1      43.300 -14.359   5.103  1.00  0.00     0.256 C 
HETATM   13  N   UNL     1      42.630 -15.488   5.511  1.00  0.00    -0.323 N 
HETATM   14  H   UNL     1      41.622 -15.456   5.431  1.00  0.00     0.169 HD
HETATM   15  O   UNL     1      44.383 -13.981   5.530  1.00  0.00    -0.267 OA
BRANCH  13  16
HETATM   16  C   UNL     1      43.149 -16.630   6.166  1.00  0.00     0.041 A 
HETATM   17  C   UNL     1      43.580 -17.821   5.550  1.00  0.00    -0.035 A 
HETATM   18  C   UNL     1      43.520 -18.105   4.074  1.00  0.00     0.050 C 
HETATM   19  C   UNL     1      44.075 -18.864   6.362  1.00  0.00     0.009 A 
HETATM   20  C   UNL     1      44.089 -18.763   7.751  1.00  0.00     0.001 A 
HETATM   21  C   UNL     1      43.611 -17.611   8.358  1.00  0.00     0.002 A 
HETATM   22  C   UNL     1      43.141 -16.559   7.572  1.00  0.00     0.030 A 
ENDBRANCH  13  16
ENDBRANCH   1  12
BRANCH   2  23
HETATM   23  C   UNL     1      42.194 -15.039   2.188  1.00  0.00    -0.028 A 
HETATM   24  C   UNL     1      42.958 -15.900   1.377  1.00  0.00     0.011 A 
HETATM   25  C   UNL     1      42.430 -17.114   0.931  1.00  0.00     0.024 A 
HETATM   26  C   UNL     1      41.133 -17.478   1.287  1.00  0.00     0.034 A 
HETATM   27 CL   UNL     1      40.482 -18.971   0.734  1.00  0.00    -0.084 Cl
HETATM   28  C   UNL     1      40.362 -16.641   2.090  1.00  0.00     0.024 A 
HETATM   29  C   UNL     1      40.889 -15.429   2.540  1.00  0.00     0.011 A 
ENDBRANCH   2  23
BRANCH   7  30
HETATM   30  C   UNL     1      41.146 -11.072  -1.080  1.00  0.00     0.085 C 
BRANCH  30  31
HETATM   31  C   UNL     1      41.268 -12.212  -2.092  1.00  0.00     0.034 C 
BRANCH  31  32
HETATM   32  C   UNL     1      42.542 -12.139  -2.928  1.00  0.00     0.164 C 
BRANCH  32  33
HETATM   33  O   UNL     1      43.163 -13.420  -2.977  1.00  0.00    -0.401 OA
HETATM   34  H   UNL     1      42.809 -13.889  -3.752  1.00  0.00     0.209 HD
ENDBRANCH  32  33
ENDBRANCH  31  32
ENDBRANCH  30  31
ENDBRANCH   7  30
TORSDOF 7
ENDMDL
MODEL 10
REMARK VINA RESULT:      -7.1      3.243      4.972
REMARK  7 active torsions:
REMARK  status: ('A' for Active; 'I' for Inactive)
REMARK    1  A    between atoms: C_3  and  N_4 
REMARK       I    between atoms: N_4  and  C_5 
REMARK    2  A    between atoms: C_5  and  C_6 
REMARK    3  A    between atoms: C_7  and  C_8 
REMARK    4  A    between atoms: C_19  and  C_20 
REMARK    5  A    between atoms: C_20  and  C_21 
REMARK    6  A    between atoms: C_21  and  C_22 
REMARK    7  A    between atoms: C_22  and  O_23 
ROOT
HETATM    1  C   UNL     1      41.923 -16.802   2.363  1.00  0.00     0.062 C 
HETATM    2  C   UNL     1      40.689 -15.918   2.581  1.00  0.00     0.202 C 
HETATM    3  N   UNL     1      40.268 -15.285   1.326  1.00  0.00    -0.083 N 
HETATM    4  C   UNL     1      41.041 -15.244   0.198  1.00  0.00     0.726 A 
HETATM    5  N   UNL     1      42.205 -15.917   0.173  1.00  0.00    -0.192 N 
HETATM    6  N   UNL     1      39.134 -14.569   1.170  1.00  0.00    -0.140 NA
HETATM    7  C   UNL     1      39.331 -14.053  -0.052  1.00  0.00     0.166 A 
HETATM    8  N   UNL     1      40.474 -14.474  -0.694  1.00  0.00    -0.046 NA
HETATM    9  C   UNL     1      42.650 -16.719   1.218  1.00  0.00     0.037 C 
HETATM   10  C   UNL     1      43.975 -17.401   0.978  1.00  0.00     0.070 C 
HETATM   11  H   UNL     1      42.774 -15.867  -0.668  1.00  0.00     0.184 HD
ENDROOT
BRANCH   1  12
HETATM   12  C   UNL     1      42.246 -17.715   3.504  1.00  0.00     0.256 C 
HETATM   13  N   UNL     1      42.912 -18.861   3.136  1.00  0.00    -0.323 N 
HETATM   14  H   UNL     1      42.837 -19.121   2.161  1.00  0.00     0.169 HD
HETATM   15  O   UNL     1      41.797 -17.480   4.619  1.00  0.00    -0.267 OA
BRANCH  13  16
HETATM   16  C   UNL     1      43.562 -19.805   3.965  1.00  0.00     0.041 A 
HETATM   17  C   UNL     1      44.237 -20.965   3.539  1.00  0.00    -0.035 A 
HETATM   18  C   UNL     1      44.346 -21.430   2.113  1.00  0.00     0.050 C 
HETATM   19  C   UNL     1      44.835 -21.797   4.510  1.00  0.00     0.009 A 
HETATM   20  C   UNL     1      44.719 -21.529   5.871  1.00  0.00     0.001 A 
HETATM   21  C   UNL     1      44.005 -20.416   6.292  1.00  0.00     0.002 A 
HETATM   22  C   UNL     1      43.429 -19.568   5.347  1.00  0.00     0.030 A 
ENDBRANCH  13  16
ENDBRANCH   1  12
BRANCH   2  23
HETATM   23  C   UNL     1      40.900 -14.824   3.633  1.00  0.00    -0.028 A 
HETATM   24  C   UNL     1      40.000 -14.643   4.700  1.00  0.00     0.011 A 
HETATM   25  C   UNL     1      40.217 -13.645   5.653  1.00  0.00     0.024 A 
HETATM   26  C   UNL     1      41.332 -12.817   5.548  1.00  0.00     0.034 A 
HETATM   27 CL   UNL     1      41.596 -11.586   6.720  1.00  0.00    -0.084 Cl
HETATM   28  C   UNL     1      42.236 -12.981   4.501  1.00  0.00     0.024 A 
HETATM   29  C   UNL     1      42.022 -13.981   3.549  1.00  0.00     0.011 A 
ENDBRANCH   2  23
BRANCH   7  30
HETATM   30  C   UNL     1      38.449 -13.014  -0.637  1.00  0.00     0.085 C 
BRANCH  30  31
HETATM   31  C   UNL     1      37.971 -13.371  -2.046  1.00  0.00     0.034 C 
BRANCH  31  32
HETATM   32  C   UNL     1      38.752 -12.655  -3.143  1.00  0.00     0.164 C 
BRANCH  32  33
HETATM   33  O   UNL     1      39.688 -13.551  -3.735  1.00  0.00    -0.401 OA
HETATM   34  H   UNL     1      39.354 -13.784  -4.618  1.00  0.00     0.209 HD
ENDBRANCH  32  33
ENDBRANCH  31  32
ENDBRANCH  30  31
ENDBRANCH   7  30
TORSDOF 7
ENDMDL
