MODEL 1
REMARK VINA RESULT:      -9.5      0.000      0.000
REMARK  6 active torsions:
REMARK  status: ('A' for Active; 'I' for Inactive)
REMARK    1  A    between atoms: C_2  and  N_3 
REMARK    2  A    between atoms: C_11  and  C_12 
REMARK    3  A    between atoms: C_14  and  C_15 
REMARK    4  A    between atoms: C_15  and  O_16 
REMARK    5  A    between atoms: O_16  and  C_17 
REMARK    6  A    between atoms: C_19  and  C_20 
ROOT
HETATM    1  N   UNL     1      41.971 -14.061  -1.628  1.00  0.00    -0.067 N 
HETATM    2  H   UNL     1      42.899 -14.455  -1.423  1.00  0.00     0.280 HD
HETATM    3  C   UNL     1      41.800 -12.866  -0.690  1.00  0.00     0.281 C 
HETATM    4  C   UNL     1      41.585 -13.312   0.716  1.00  0.00     0.018 A 
HETATM    5  C   UNL     1      41.275 -14.601   1.106  1.00  0.00    -0.023 A 
HETATM    6  C   UNL     1      41.080 -14.682   2.522  1.00  0.00     0.073 A 
HETATM    7  C   UNL     1      41.233 -13.459   3.129  1.00  0.00     0.088 A 
HETATM    8  N   UNL     1      41.055 -13.263   4.451  1.00  0.00    -0.357 N 
HETATM    9  C   UNL     1      41.024 -14.408   5.344  1.00  0.00     0.243 C 
HETATM   10  N   UNL     1      40.505 -15.565   4.657  1.00  0.00    -0.330 N 
HETATM   11  C   UNL     1      40.717 -15.830   3.334  1.00  0.00     0.256 C 
HETATM   12  O   UNL     1      40.570 -16.952   2.862  1.00  0.00    -0.267 OA
HETATM   13  S   UNL     1      41.643 -12.229   2.029  1.00  0.00    -0.074 SA
HETATM   14  C   UNL     1      41.160 -15.712   0.108  1.00  0.00     0.068 C 
HETATM   15  C   UNL     1      40.954 -15.165  -1.314  1.00  0.00     0.240 C 
HETATM   16  H   UNL     1      41.339 -12.391   4.886  1.00  0.00     0.162 HD
HETATM   17  H   UNL     1      40.348 -16.386   5.225  1.00  0.00     0.165 HD
ENDROOT
BRANCH   9  18
HETATM   18  C   UNL     1      42.324 -14.779   5.983  1.00  0.00     0.095 A 
HETATM   19  O   UNL     1      42.438 -16.078   6.397  1.00  0.00    -0.313 OA
HETATM   20  C   UNL     1      43.661 -16.215   6.986  1.00  0.00     0.077 A 
HETATM   21  C   UNL     1      44.338 -15.014   6.942  1.00  0.00     0.037 A 
HETATM   22  C   UNL     1      43.481 -14.092   6.293  1.00  0.00     0.039 A 
BRANCH  20  23
HETATM   23  C   UNL     1      43.993 -17.559   7.530  1.00  0.00     0.240 C 
BRANCH  23  24
HETATM   24  O   UNL     1      43.086 -18.475   6.923  1.00  0.00    -0.345 OA
BRANCH  24  25
HETATM   25  C   UNL     1      43.541 -19.182   5.844  1.00  0.00     0.070 A 
HETATM   26  C   UNL     1      43.347 -18.851   4.501  1.00  0.00     0.052 A 
HETATM   27  C   UNL     1      43.866 -19.668   3.479  1.00  0.00     0.050 A 
HETATM   28  C   UNL     1      44.589 -20.820   3.825  1.00  0.00     0.016 A 
HETATM   29  C   UNL     1      44.787 -21.150   5.164  1.00  0.00     0.004 A 
HETATM   30  C   UNL     1      44.266 -20.331   6.166  1.00  0.00     0.037 A 
BRANCH  27  31
HETATM   31  C   UNL     1      43.661 -19.320   2.025  1.00  0.00     0.417 C 
HETATM   32  F   UNL     1      43.980 -20.339   1.177  1.00  0.00    -0.166 F 
HETATM   33  F   UNL     1      42.372 -18.991   1.744  1.00  0.00    -0.166 F 
HETATM   34  F   UNL     1      44.417 -18.258   1.631  1.00  0.00    -0.166 F 
ENDBRANCH  27  31
ENDBRANCH  24  25
ENDBRANCH  23  24
ENDBRANCH  20  23
ENDBRANCH   9  18
BRANCH   1  35
HETATM   35  C   UNL     1      41.934 -13.684  -3.089  1.00  0.00     0.231 C 
HETATM   36  C   UNL     1      40.506 -13.587  -3.593  1.00  0.00     0.034 C 
ENDBRANCH   1  35
TORSDOF 6
ENDMDL
MODEL 2
REMARK VINA RESULT:      -9.4      1.504      2.223
REMARK  6 active torsions:
REMARK  status: ('A' for Active; 'I' for Inactive)
REMARK    1  A    between atoms: C_2  and  N_3 
REMARK    2  A    between atoms: C_11  and  C_12 
REMARK    3  A    between atoms: C_14  and  C_15 
REMARK    4  A    between atoms: C_15  and  O_16 
REMARK    5  A    between atoms: O_16  and  C_17 
REMARK    6  A    between atoms: C_19  and  C_20 
ROOT
HETATM    1  N   UNL     1      41.759 -13.081   0.041  1.00  0.00    -0.067 N 
HETATM    2  H   UNL     1      42.568 -13.690  -0.140  1.00  0.00     0.280 HD
HETATM    3  C   UNL     1      42.045 -12.377   1.368  1.00  0.00     0.281 C 
HETATM    4  C   UNL     1      41.920 -13.320   2.516  1.00  0.00     0.018 A 
HETATM    5  C   UNL     1      41.337 -14.572   2.460  1.00  0.00    -0.023 A 
HETATM    6  C   UNL     1      41.329 -15.198   3.747  1.00  0.00     0.073 A 
HETATM    7  C   UNL     1      41.886 -14.391   4.711  1.00  0.00     0.088 A 
HETATM    8  N   UNL     1      41.953 -14.735   6.013  1.00  0.00    -0.357 N 
HETATM    9  C   UNL     1      41.746 -16.120   6.397  1.00  0.00     0.243 C 
HETATM   10  N   UNL     1      40.846 -16.766   5.472  1.00  0.00    -0.330 N 
HETATM   11  C   UNL     1      40.792 -16.490   4.136  1.00  0.00     0.256 C 
HETATM   12  O   UNL     1      40.287 -17.264   3.330  1.00  0.00    -0.267 OA
HETATM   13  S   UNL     1      42.448 -12.915   4.082  1.00  0.00    -0.074 SA
HETATM   14  C   UNL     1      40.792 -15.123   1.179  1.00  0.00     0.068 C 
HETATM   15  C   UNL     1      40.540 -14.005   0.153  1.00  0.00     0.240 C 
HETATM   16  H   UNL     1      42.517 -14.193   6.660  1.00  0.00     0.162 HD
HETATM   17  H   UNL     1      40.558 -17.704   5.715  1.00  0.00     0.165 HD
ENDROOT
BRANCH   9  18
HETATM   18  C   UNL     1      42.977 -16.959   6.526  1.00  0.00     0.095 A 
HETATM   19  O   UNL     1      42.800 -18.308   6.379  1.00  0.00    -0.313 OA
HETATM   20  C   UNL     1      44.013 -18.903   6.570  1.00  0.00     0.077 A 
HETATM   21  C   UNL     1      44.970 -17.944   6.826  1.00  0.00     0.037 A 
HETATM   22  C   UNL     1      44.306 -16.693   6.793  1.00  0.00     0.039 A 
BRANCH  20  23
HETATM   23  C   UNL     1      44.051 -20.387   6.473  1.00  0.00     0.240 C 
BRANCH  23  24
HETATM   24  O   UNL     1      44.988 -20.700   5.446  1.00  0.00    -0.345 OA
BRANCH  24  25
HETATM   25  C   UNL     1      44.554 -20.596   4.153  1.00  0.00     0.070 A 
HETATM   26  C   UNL     1      44.158 -19.421   3.508  1.00  0.00     0.052 A 
HETATM   27  C   UNL     1      43.727 -19.450   2.169  1.00  0.00     0.050 A 
HETATM   28  C   UNL     1      43.702 -20.674   1.483  1.00  0.00     0.016 A 
HETATM   29  C   UNL     1      44.101 -21.846   2.122  1.00  0.00     0.004 A 
HETATM   30  C   UNL     1      44.525 -21.803   3.450  1.00  0.00     0.037 A 
BRANCH  27  31
HETATM   31  C   UNL     1      43.296 -18.187   1.464  1.00  0.00     0.417 C 
HETATM   32  F   UNL     1      43.932 -17.990   0.274  1.00  0.00    -0.166 F 
HETATM   33  F   UNL     1      41.966 -18.175   1.181  1.00  0.00    -0.166 F 
HETATM   34  F   UNL     1      43.536 -17.069   2.203  1.00  0.00    -0.166 F 
ENDBRANCH  27  31
ENDBRANCH  24  25
ENDBRANCH  23  24
ENDBRANCH  20  23
ENDBRANCH   9  18
BRANCH   1  35
HETATM   35  C   UNL     1      41.618 -12.130  -1.122  1.00  0.00     0.231 C 
HETATM   36  C   UNL     1      42.911 -12.031  -1.909  1.00  0.00     0.034 C 
ENDBRANCH   1  35
TORSDOF 6
ENDMDL
MODEL 3
REMARK VINA RESULT:      -9.3      5.566      8.417
REMARK  6 active torsions:
REMARK  status: ('A' for Active; 'I' for Inactive)
REMARK    1  A    between atoms: C_2  and  N_3 
REMARK    2  A    between atoms: C_11  and  C_12 
REMARK    3  A    between atoms: C_14  and  C_15 
REMARK    4  A    between atoms: C_15  and  O_16 
REMARK    5  A    between atoms: O_16  and  C_17 
REMARK    6  A    between atoms: C_19  and  C_20 
ROOT
HETATM    1  N   UNL     1      44.336 -19.537   3.140  1.00  0.00    -0.067 N 
HETATM    2  H   UNL     1      45.050 -18.799   3.193  1.00  0.00     0.280 HD
HETATM    3  C   UNL     1      43.175 -18.949   2.338  1.00  0.00     0.281 C 
HETATM    4  C   UNL     1      42.433 -17.929   3.133  1.00  0.00     0.018 A 
HETATM    5  C   UNL     1      42.555 -17.737   4.496  1.00  0.00    -0.023 A 
HETATM    6  C   UNL     1      41.663 -16.716   4.958  1.00  0.00     0.073 A 
HETATM    7  C   UNL     1      40.904 -16.200   3.935  1.00  0.00     0.088 A 
HETATM    8  N   UNL     1      39.957 -15.260   4.120  1.00  0.00    -0.357 N 
HETATM    9  C   UNL     1      39.934 -14.505   5.361  1.00  0.00     0.243 C 
HETATM   10  N   UNL     1      40.449 -15.307   6.444  1.00  0.00    -0.330 N 
HETATM   11  C   UNL     1      41.451 -16.225   6.307  1.00  0.00     0.256 C 
HETATM   12  O   UNL     1      42.095 -16.634   7.267  1.00  0.00    -0.267 OA
HETATM   13  S   UNL     1      41.275 -16.899   2.429  1.00  0.00    -0.074 SA
HETATM   14  C   UNL     1      43.509 -18.548   5.316  1.00  0.00     0.068 C 
HETATM   15  C   UNL     1      43.918 -19.837   4.584  1.00  0.00     0.240 C 
HETATM   16  H   UNL     1      39.539 -14.786   3.325  1.00  0.00     0.162 HD
HETATM   17  H   UNL     1      40.377 -14.905   7.368  1.00  0.00     0.165 HD
ENDROOT
BRANCH   9  18
HETATM   18  C   UNL     1      40.661 -13.198   5.350  1.00  0.00     0.095 A 
HETATM   19  O   UNL     1      40.749 -12.553   6.554  1.00  0.00    -0.313 OA
HETATM   20  C   UNL     1      41.401 -11.374   6.339  1.00  0.00     0.077 A 
HETATM   21  C   UNL     1      41.741 -11.263   5.007  1.00  0.00     0.037 A 
HETATM   22  C   UNL     1      41.270 -12.438   4.372  1.00  0.00     0.039 A 
BRANCH  20  23
HETATM   23  C   UNL     1      41.595 -10.494   7.522  1.00  0.00     0.240 C 
BRANCH  23  24
HETATM   24  O   UNL     1      42.792 -10.932   8.158  1.00  0.00    -0.345 OA
BRANCH  24  25
HETATM   25  C   UNL     1      42.833 -10.868   9.524  1.00  0.00     0.070 A 
HETATM   26  C   UNL     1      41.743 -11.000  10.387  1.00  0.00     0.052 A 
HETATM   27  C   UNL     1      41.918 -10.911  11.781  1.00  0.00     0.050 A 
HETATM   28  C   UNL     1      43.205 -10.692  12.297  1.00  0.00     0.016 A 
HETATM   29  C   UNL     1      44.294 -10.564  11.438  1.00  0.00     0.004 A 
HETATM   30  C   UNL     1      44.105 -10.654  10.059  1.00  0.00     0.037 A 
BRANCH  27  31
HETATM   31  C   UNL     1      40.747 -11.050  12.723  1.00  0.00     0.417 C 
HETATM   32  F   UNL     1      41.043 -10.703  14.007  1.00  0.00    -0.166 F 
HETATM   33  F   UNL     1      39.690 -10.274  12.361  1.00  0.00    -0.166 F 
HETATM   34  F   UNL     1      40.275 -12.326  12.782  1.00  0.00    -0.166 F 
ENDBRANCH  27  31
ENDBRANCH  24  25
ENDBRANCH  23  24
ENDBRANCH  20  23
ENDBRANCH   9  18
BRANCH   1  35
HETATM   35  C   UNL     1      44.959 -20.747   2.489  1.00  0.00     0.231 C 
HETATM   36  C   UNL     1      43.913 -21.589   1.783  1.00  0.00     0.034 C 
ENDBRANCH   1  35
TORSDOF 6
ENDMDL
MODEL 4
REMARK VINA RESULT:      -9.0      3.109      5.100
REMARK  6 active torsions:
REMARK  status: ('A' for Active; 'I' for Inactive)
REMARK    1  A    between atoms: C_2  and  N_3 
REMARK    2  A    between atoms: C_11  and  C_12 
REMARK    3  A    between atoms: C_14  and  C_15 
REMARK    4  A    between atoms: C_15  and  O_16 
REMARK    5  A    between atoms: O_16  and  C_17 
REMARK    6  A    between atoms: C_19  and  C_20 
ROOT
HETATM    1  N   UNL     1      41.389 -10.226   4.220  1.00  0.00    -0.067 N 
HETATM    2  H   UNL     1      42.366 -10.355   3.925  1.00  0.00     0.280 HD
HETATM    3  C   UNL     1      41.064 -11.403   5.140  1.00  0.00     0.281 C 
HETATM    4  C   UNL     1      40.934 -12.671   4.366  1.00  0.00     0.018 A 
HETATM    5  C   UNL     1      40.815 -12.759   2.992  1.00  0.00    -0.023 A 
HETATM    6  C   UNL     1      40.653 -14.117   2.571  1.00  0.00     0.073 A 
HETATM    7  C   UNL     1      40.641 -14.985   3.637  1.00  0.00     0.088 A 
HETATM    8  N   UNL     1      40.454 -16.313   3.506  1.00  0.00    -0.357 N 
HETATM    9  C   UNL     1      40.599 -16.928   2.198  1.00  0.00     0.243 C 
HETATM   10  N   UNL     1      40.239 -15.992   1.162  1.00  0.00    -0.330 N 
HETATM   11  C   UNL     1      40.468 -14.647   1.232  1.00  0.00     0.256 C 
HETATM   12  O   UNL     1      40.474 -13.935   0.234  1.00  0.00    -0.267 OA
HETATM   13  S   UNL     1      40.857 -14.193   5.126  1.00  0.00    -0.074 SA
HETATM   14  C   UNL     1      40.844 -11.537   2.127  1.00  0.00     0.068 C 
HETATM   15  C   UNL     1      40.543 -10.268   2.942  1.00  0.00     0.240 C 
HETATM   16  H   UNL     1      40.618 -16.936   4.291  1.00  0.00     0.162 HD
HETATM   17  H   UNL     1      40.207 -16.360   0.222  1.00  0.00     0.165 HD
ENDROOT
BRANCH   9  18
HETATM   18  C   UNL     1      41.947 -17.492   1.882  1.00  0.00     0.095 A 
HETATM   19  O   UNL     1      42.216 -18.729   2.403  1.00  0.00    -0.313 OA
HETATM   20  C   UNL     1      43.492 -19.054   2.047  1.00  0.00     0.077 A 
HETATM   21  C   UNL     1      44.040 -18.040   1.290  1.00  0.00     0.037 A 
HETATM   22  C   UNL     1      43.045 -17.037   1.179  1.00  0.00     0.039 A 
BRANCH  20  23
HETATM   23  C   UNL     1      44.004 -20.365   2.528  1.00  0.00     0.240 C 
BRANCH  23  24
HETATM   24  O   UNL     1      44.978 -20.076   3.528  1.00  0.00    -0.345 OA
BRANCH  24  25
HETATM   25  C   UNL     1      44.538 -19.990   4.820  1.00  0.00     0.070 A 
HETATM   26  C   UNL     1      44.237 -18.814   5.511  1.00  0.00     0.052 A 
HETATM   27  C   UNL     1      43.794 -18.860   6.846  1.00  0.00     0.050 A 
HETATM   28  C   UNL     1      43.654 -20.106   7.477  1.00  0.00     0.016 A 
HETATM   29  C   UNL     1      43.950 -21.280   6.789  1.00  0.00     0.004 A 
HETATM   30  C   UNL     1      44.388 -21.218   5.466  1.00  0.00     0.037 A 
BRANCH  27  31
HETATM   31  C   UNL     1      43.467 -17.596   7.602  1.00  0.00     0.417 C 
HETATM   32  F   UNL     1      43.760 -17.671   8.932  1.00  0.00    -0.166 F 
HETATM   33  F   UNL     1      44.147 -16.516   7.132  1.00  0.00    -0.166 F 
HETATM   34  F   UNL     1      42.147 -17.272   7.530  1.00  0.00    -0.166 F 
ENDBRANCH  27  31
ENDBRANCH  24  25
ENDBRANCH  23  24
ENDBRANCH  20  23
ENDBRANCH   9  18
BRANCH   1  35
HETATM   35  C   UNL     1      41.278  -8.886   4.904  1.00  0.00     0.231 C 
HETATM   36  C   UNL     1      39.883  -8.308   4.754  1.00  0.00     0.034 C 
ENDBRANCH   1  35
TORSDOF 6
ENDMDL
MODEL 5
REMARK VINA RESULT:      -8.9      2.670      6.797
REMARK  6 active torsions:
REMARK  status: ('A' for Active; 'I' for Inactive)
REMARK    1  A    between atoms: C_2  and  N_3 
REMARK    2  A    between atoms: C_11  and  C_12 
REMARK    3  A    between atoms: C_14  and  C_15 
REMARK    4  A    between atoms: C_15  and  O_16 
REMARK    5  A    between atoms: O_16  and  C_17 
REMARK    6  A    between atoms: C_19  and  C_20 
ROOT
HETATM    1  N   UNL     1      43.836 -20.247   5.833  1.00  0.00    -0.067 N 
HETATM    2  H   UNL     1      42.854 -20.309   5.534  1.00  0.00     0.280 HD
HETATM    3  C   UNL     1      43.860 -19.283   7.019  1.00  0.00     0.281 C 
HETATM    4  C   UNL     1      43.636 -17.877   6.575  1.00  0.00     0.018 A 
HETATM    5  C   UNL     1      43.700 -17.434   5.268  1.00  0.00    -0.023 A 
HETATM    6  C   UNL     1      43.490 -16.020   5.189  1.00  0.00     0.073 A 
HETATM    7  C   UNL     1      43.296 -15.462   6.431  1.00  0.00     0.088 A 
HETATM    8  N   UNL     1      43.124 -14.140   6.627  1.00  0.00    -0.357 N 
HETATM    9  C   UNL     1      42.797 -13.287   5.498  1.00  0.00     0.243 C 
HETATM   10  N   UNL     1      43.369 -13.820   4.286  1.00  0.00    -0.330 N 
HETATM   11  C   UNL     1      43.503 -15.154   4.024  1.00  0.00     0.256 C 
HETATM   12  O   UNL     1      43.663 -15.581   2.886  1.00  0.00    -0.267 OA
HETATM   13  S   UNL     1      43.326 -16.618   7.678  1.00  0.00    -0.074 SA
HETATM   14  C   UNL     1      43.975 -18.376   4.137  1.00  0.00     0.068 C 
HETATM   15  C   UNL     1      44.615 -19.680   4.640  1.00  0.00     0.240 C 
HETATM   16  H   UNL     1      42.818 -13.789   7.530  1.00  0.00     0.162 HD
HETATM   17  H   UNL     1      43.284 -13.241   3.462  1.00  0.00     0.165 HD
ENDROOT
BRANCH   9  18
HETATM   18  C   UNL     1      41.342 -13.034   5.265  1.00  0.00     0.095 A 
HETATM   19  O   UNL     1      40.990 -12.704   3.984  1.00  0.00    -0.313 OA
HETATM   20  C   UNL     1      39.646 -12.471   3.976  1.00  0.00     0.077 A 
HETATM   21  C   UNL     1      39.130 -12.661   5.241  1.00  0.00     0.037 A 
HETATM   22  C   UNL     1      40.219 -13.028   6.069  1.00  0.00     0.039 A 
BRANCH  20  23
HETATM   23  C   UNL     1      39.045 -12.076   2.674  1.00  0.00     0.240 C 
BRANCH  23  24
HETATM   24  O   UNL     1      38.549 -13.273   2.079  1.00  0.00    -0.345 OA
BRANCH  24  25
HETATM   25  C   UNL     1      39.448 -14.053   1.404  1.00  0.00     0.070 A 
HETATM   26  C   UNL     1      39.843 -15.346   1.754  1.00  0.00     0.052 A 
HETATM   27  C   UNL     1      40.783 -16.044   0.974  1.00  0.00     0.050 A 
HETATM   28  C   UNL     1      41.319 -15.426  -0.167  1.00  0.00     0.016 A 
HETATM   29  C   UNL     1      40.924 -14.138  -0.520  1.00  0.00     0.004 A 
HETATM   30  C   UNL     1      39.991 -13.458   0.263  1.00  0.00     0.037 A 
BRANCH  27  31
HETATM   31  C   UNL     1      41.218 -17.441   1.343  1.00  0.00     0.417 C 
HETATM   32  F   UNL     1      41.198 -17.675   2.686  1.00  0.00    -0.166 F 
HETATM   33  F   UNL     1      40.427 -18.398   0.787  1.00  0.00    -0.166 F 
HETATM   34  F   UNL     1      42.488 -17.717   0.937  1.00  0.00    -0.166 F 
ENDBRANCH  27  31
ENDBRANCH  24  25
ENDBRANCH  23  24
ENDBRANCH  20  23
ENDBRANCH   9  18
BRANCH   1  35
HETATM   35  C   UNL     1      44.309 -21.636   6.183  1.00  0.00     0.231 C 
HETATM   36  C   UNL     1      45.037 -22.277   5.016  1.00  0.00     0.034 C 
ENDBRANCH   1  35
TORSDOF 6
ENDMDL
MODEL 6
REMARK VINA RESULT:      -8.8      2.453      3.117
REMARK  6 active torsions:
REMARK  status: ('A' for Active; 'I' for Inactive)
REMARK    1  A    between atoms: C_2  and  N_3 
REMARK    2  A    between atoms: C_11  and  C_12 
REMARK    3  A    between atoms: C_14  and  C_15 
REMARK    4  A    between atoms: C_15  and  O_16 
REMARK    5  A    between atoms: O_16  and  C_17 
REMARK    6  A    between atoms: C_19  and  C_20 
ROOT
HETATM    1  N   UNL     1      38.245 -14.306  -1.817  1.00  0.00    -0.067 N 
HETATM    2  H   UNL     1      37.774 -15.071  -1.316  1.00  0.00     0.280 HD
HETATM    3  C   UNL     1      39.746 -14.559  -1.669  1.00  0.00     0.281 C 
HETATM    4  C   UNL     1      40.204 -14.278  -0.279  1.00  0.00     0.018 A 
HETATM    5  C   UNL     1      39.477 -13.596   0.679  1.00  0.00    -0.023 A 
HETATM    6  C   UNL     1      40.226 -13.447   1.890  1.00  0.00     0.073 A 
HETATM    7  C   UNL     1      41.479 -14.004   1.788  1.00  0.00     0.088 A 
HETATM    8  N   UNL     1      42.392 -13.954   2.777  1.00  0.00    -0.357 N 
HETATM    9  C   UNL     1      41.968 -13.604   4.122  1.00  0.00     0.243 C 
HETATM   10  N   UNL     1      40.831 -12.718   4.074  1.00  0.00    -0.330 N 
HETATM   11  C   UNL     1      39.852 -12.779   3.123  1.00  0.00     0.256 C 
HETATM   12  O   UNL     1      38.751 -12.266   3.288  1.00  0.00    -0.267 OA
HETATM   13  S   UNL     1      41.750 -14.730   0.274  1.00  0.00    -0.074 SA
HETATM   14  C   UNL     1      38.095 -13.094   0.398  1.00  0.00     0.068 C 
HETATM   15  C   UNL     1      37.829 -13.009  -1.114  1.00  0.00     0.240 C 
HETATM   16  H   UNL     1      43.236 -14.516   2.729  1.00  0.00     0.162 HD
HETATM   17  H   UNL     1      40.527 -12.336   4.959  1.00  0.00     0.165 HD
ENDROOT
BRANCH   9  18
HETATM   18  C   UNL     1      41.640 -14.749   5.027  1.00  0.00     0.095 A 
HETATM   19  O   UNL     1      42.685 -15.569   5.356  1.00  0.00    -0.313 OA
HETATM   20  C   UNL     1      42.190 -16.567   6.144  1.00  0.00     0.077 A 
HETATM   21  C   UNL     1      40.836 -16.386   6.332  1.00  0.00     0.037 A 
HETATM   22  C   UNL     1      40.483 -15.214   5.619  1.00  0.00     0.039 A 
BRANCH  20  23
HETATM   23  C   UNL     1      43.161 -17.593   6.609  1.00  0.00     0.240 C 
BRANCH  23  24
HETATM   24  O   UNL     1      44.222 -17.605   5.657  1.00  0.00    -0.345 OA
BRANCH  24  25
HETATM   25  C   UNL     1      44.260 -18.652   4.778  1.00  0.00     0.070 A 
HETATM   26  C   UNL     1      44.529 -19.986   5.097  1.00  0.00     0.052 A 
HETATM   27  C   UNL     1      44.543 -20.973   4.094  1.00  0.00     0.050 A 
HETATM   28  C   UNL     1      44.279 -20.603   2.766  1.00  0.00     0.016 A 
HETATM   29  C   UNL     1      44.007 -19.275   2.447  1.00  0.00     0.004 A 
HETATM   30  C   UNL     1      43.997 -18.307   3.451  1.00  0.00     0.037 A 
BRANCH  27  31
HETATM   31  C   UNL     1      44.833 -22.416   4.427  1.00  0.00     0.417 C 
HETATM   32  F   UNL     1      45.998 -22.588   5.114  1.00  0.00    -0.166 F 
HETATM   33  F   UNL     1      43.861 -22.980   5.194  1.00  0.00    -0.166 F 
HETATM   34  F   UNL     1      44.939 -23.196   3.316  1.00  0.00    -0.166 F 
ENDBRANCH  27  31
ENDBRANCH  24  25
ENDBRANCH  23  24
ENDBRANCH  20  23
ENDBRANCH   9  18
BRANCH   1  35
HETATM   35  C   UNL     1      37.775 -14.324  -3.251  1.00  0.00     0.231 C 
HETATM   36  C   UNL     1      38.336 -15.521  -3.996  1.00  0.00     0.034 C 
ENDBRANCH   1  35
TORSDOF 6
ENDMDL
MODEL 7
REMARK VINA RESULT:      -8.8      1.974      2.592
REMARK  6 active torsions:
REMARK  status: ('A' for Active; 'I' for Inactive)
REMARK    1  A    between atoms: C_2  and  N_3 
REMARK    2  A    between atoms: C_11  and  C_12 
REMARK    3  A    between atoms: C_14  and  C_15 
REMARK    4  A    between atoms: C_15  and  O_16 
REMARK    5  A    between atoms: O_16  and  C_17 
REMARK    6  A    between atoms: C_19  and  C_20 
ROOT
HETATM    1  N   UNL     1      38.368 -14.595  -2.221  1.00  0.00    -0.067 N 
HETATM    2  H   UNL     1      37.934 -15.347  -1.670  1.00  0.00     0.280 HD
HETATM    3  C   UNL     1      39.874 -14.706  -1.978  1.00  0.00     0.281 C 
HETATM    4  C   UNL     1      40.232 -14.258  -0.602  1.00  0.00     0.018 A 
HETATM    5  C   UNL     1      39.402 -13.553   0.249  1.00  0.00    -0.023 A 
HETATM    6  C   UNL     1      40.068 -13.229   1.474  1.00  0.00     0.073 A 
HETATM    7  C   UNL     1      41.365 -13.685   1.485  1.00  0.00     0.088 A 
HETATM    8  N   UNL     1      42.216 -13.465   2.507  1.00  0.00    -0.357 N 
HETATM    9  C   UNL     1      41.693 -13.028   3.790  1.00  0.00     0.243 C 
HETATM   10  N   UNL     1      40.493 -12.250   3.602  1.00  0.00    -0.330 N 
HETATM   11  C   UNL     1      39.576 -12.482   2.617  1.00  0.00     0.256 C 
HETATM   12  O   UNL     1      38.429 -12.051   2.679  1.00  0.00    -0.267 OA
HETATM   13  S   UNL     1      41.776 -14.524   0.064  1.00  0.00    -0.074 SA
HETATM   14  C   UNL     1      38.001 -13.199  -0.144  1.00  0.00     0.068 C 
HETATM   15  C   UNL     1      37.812 -13.278  -1.668  1.00  0.00     0.240 C 
HETATM   16  H   UNL     1      43.104 -13.956   2.553  1.00  0.00     0.162 HD
HETATM   17  H   UNL     1      40.111 -11.814   4.430  1.00  0.00     0.165 HD
ENDROOT
BRANCH   9  18
HETATM   18  C   UNL     1      41.409 -14.107   4.786  1.00  0.00     0.095 A 
HETATM   19  O   UNL     1      42.503 -14.718   5.334  1.00  0.00    -0.313 OA
HETATM   20  C   UNL     1      42.050 -15.690   6.177  1.00  0.00     0.077 A 
HETATM   21  C   UNL     1      40.671 -15.699   6.182  1.00  0.00     0.037 A 
HETATM   22  C   UNL     1      40.258 -14.678   5.292  1.00  0.00     0.039 A 
BRANCH  20  23
HETATM   23  C   UNL     1      43.082 -16.502   6.876  1.00  0.00     0.240 C 
BRANCH  23  24
HETATM   24  O   UNL     1      42.666 -17.861   6.771  1.00  0.00    -0.345 OA
BRANCH  24  25
HETATM   25  C   UNL     1      43.226 -18.610   5.774  1.00  0.00     0.070 A 
HETATM   26  C   UNL     1      43.074 -18.400   4.401  1.00  0.00     0.052 A 
HETATM   27  C   UNL     1      43.703 -19.250   3.472  1.00  0.00     0.050 A 
HETATM   28  C   UNL     1      44.493 -20.311   3.941  1.00  0.00     0.016 A 
HETATM   29  C   UNL     1      44.649 -20.520   5.309  1.00  0.00     0.004 A 
HETATM   30  C   UNL     1      44.019 -19.671   6.218  1.00  0.00     0.037 A 
BRANCH  27  31
HETATM   31  C   UNL     1      43.545 -19.033   1.987  1.00  0.00     0.417 C 
HETATM   32  F   UNL     1      44.454 -18.158   1.469  1.00  0.00    -0.166 F 
HETATM   33  F   UNL     1      43.685 -20.182   1.273  1.00  0.00    -0.166 F 
HETATM   34  F   UNL     1      42.321 -18.532   1.661  1.00  0.00    -0.166 F 
ENDBRANCH  27  31
ENDBRANCH  24  25
ENDBRANCH  23  24
ENDBRANCH  20  23
ENDBRANCH   9  18
BRANCH   1  35
HETATM   35  C   UNL     1      37.980 -14.788  -3.666  1.00  0.00     0.231 C 
HETATM   36  C   UNL     1      38.756 -15.931  -4.294  1.00  0.00     0.034 C 
ENDBRANCH   1  35
TORSDOF 6
ENDMDL
MODEL 8
REMARK VINA RESULT:      -8.7      5.776      8.748
REMARK  6 active torsions:
REMARK  status: ('A' for Active; 'I' for Inactive)
REMARK    1  A    between atoms: C_2  and  N_3 
REMARK    2  A    between atoms: C_11  and  C_12 
REMARK    3  A    between atoms: C_14  and  C_15 
REMARK    4  A    between atoms: C_15  and  O_16 
REMARK    5  A    between atoms: O_16  and  C_17 
REMARK    6  A    between atoms: C_19  and  C_20 
ROOT
HETATM    1  N   UNL     1      43.754 -19.733   3.396  1.00  0.00    -0.067 N 
HETATM    2  H   UNL     1      42.731 -19.796   3.480  1.00  0.00     0.280 HD
HETATM    3  C   UNL     1      44.253 -19.126   4.707  1.00  0.00     0.281 C 
HETATM    4  C   UNL     1      43.912 -17.677   4.793  1.00  0.00     0.018 A 
HETATM    5  C   UNL     1      43.483 -16.894   3.738  1.00  0.00    -0.023 A 
HETATM    6  C   UNL     1      43.296 -15.534   4.145  1.00  0.00     0.073 A 
HETATM    7  C   UNL     1      43.605 -15.350   5.472  1.00  0.00     0.088 A 
HETATM    8  N   UNL     1      43.554 -14.150   6.082  1.00  0.00    -0.357 N 
HETATM    9  C   UNL     1      42.842 -13.055   5.446  1.00  0.00     0.243 C 
HETATM   10  N   UNL     1      42.895 -13.191   4.010  1.00  0.00    -0.330 N 
HETATM   11  C   UNL     1      42.884 -14.389   3.354  1.00  0.00     0.256 C 
HETATM   12  O   UNL     1      42.588 -14.478   2.167  1.00  0.00    -0.267 OA
HETATM   13  S   UNL     1      44.079 -16.792   6.238  1.00  0.00    -0.074 SA
HETATM   14  C   UNL     1      43.282 -17.469   2.371  1.00  0.00     0.068 C 
HETATM   15  C   UNL     1      44.033 -18.802   2.210  1.00  0.00     0.240 C 
HETATM   16  H   UNL     1      43.625 -14.082   7.093  1.00  0.00     0.162 HD
HETATM   17  H   UNL     1      42.516 -12.421   3.477  1.00  0.00     0.165 HD
ENDROOT
BRANCH   9  18
HETATM   18  C   UNL     1      41.415 -12.873   5.854  1.00  0.00     0.095 A 
HETATM   19  O   UNL     1      41.163 -11.826   6.697  1.00  0.00    -0.313 OA
HETATM   20  C   UNL     1      39.830 -11.846   6.988  1.00  0.00     0.077 A 
HETATM   21  C   UNL     1      39.223 -12.892   6.327  1.00  0.00     0.037 A 
HETATM   22  C   UNL     1      40.240 -13.551   5.593  1.00  0.00     0.039 A 
BRANCH  20  23
HETATM   23  C   UNL     1      39.334 -10.793   7.914  1.00  0.00     0.240 C 
BRANCH  23  24
HETATM   24  O   UNL     1      39.632 -11.243   9.233  1.00  0.00    -0.345 OA
BRANCH  24  25
HETATM   25  C   UNL     1      40.463 -10.460   9.986  1.00  0.00     0.070 A 
HETATM   26  C   UNL     1      41.567 -10.900  10.721  1.00  0.00     0.052 A 
HETATM   27  C   UNL     1      42.344  -9.990  11.461  1.00  0.00     0.050 A 
HETATM   28  C   UNL     1      41.999  -8.629  11.451  1.00  0.00     0.016 A 
HETATM   29  C   UNL     1      40.901  -8.188  10.716  1.00  0.00     0.004 A 
HETATM   30  C   UNL     1      40.140  -9.102   9.987  1.00  0.00     0.037 A 
BRANCH  27  31
HETATM   31  C   UNL     1      43.538 -10.454  12.259  1.00  0.00     0.417 C 
HETATM   32  F   UNL     1      43.853  -9.623  13.293  1.00  0.00    -0.166 F 
HETATM   33  F   UNL     1      43.350 -11.682  12.813  1.00  0.00    -0.166 F 
HETATM   34  F   UNL     1      44.666 -10.549  11.502  1.00  0.00    -0.166 F 
ENDBRANCH  27  31
ENDBRANCH  24  25
ENDBRANCH  23  24
ENDBRANCH  20  23
ENDBRANCH   9  18
BRANCH   1  35
HETATM   35  C   UNL     1      44.290 -21.120   3.137  1.00  0.00     0.231 C 
HETATM   36  C   UNL     1      43.956 -21.584   1.732  1.00  0.00     0.034 C 
ENDBRANCH   1  35
TORSDOF 6
ENDMDL
MODEL 9
REMARK VINA RESULT:      -8.6      2.151      3.111
REMARK  6 active torsions:
REMARK  status: ('A' for Active; 'I' for Inactive)
REMARK    1  A    between atoms: C_2  and  N_3 
REMARK    2  A    between atoms: C_11  and  C_12 
REMARK    3  A    between atoms: C_14  and  C_15 
REMARK    4  A    between atoms: C_15  and  O_16 
REMARK    5  A    between atoms: O_16  and  C_17 
REMARK    6  A    between atoms: C_19  and  C_20 
ROOT
HETATM    1  N   UNL     1      41.002 -11.438  -3.468  1.00  0.00    -0.067 N 
HETATM    2  H   UNL     1      41.601 -10.951  -2.789  1.00  0.00     0.280 HD
HETATM    3  C   UNL     1      39.613 -11.514  -2.832  1.00  0.00     0.281 C 
HETATM    4  C   UNL     1      39.588 -12.499  -1.713  1.00  0.00     0.018 A 
HETATM    5  C   UNL     1      40.565 -13.443  -1.458  1.00  0.00    -0.023 A 
HETATM    6  C   UNL     1      40.210 -14.269  -0.344  1.00  0.00     0.073 A 
HETATM    7  C   UNL     1      38.984 -13.927   0.175  1.00  0.00     0.088 A 
HETATM    8  N   UNL     1      38.406 -14.586   1.199  1.00  0.00    -0.357 N 
HETATM    9  C   UNL     1      39.209 -15.475   2.020  1.00  0.00     0.243 C 
HETATM   10  N   UNL     1      40.280 -16.046   1.238  1.00  0.00    -0.330 N 
HETATM   11  C   UNL     1      40.932 -15.388   0.236  1.00  0.00     0.256 C 
HETATM   12  O   UNL     1      42.032 -15.745  -0.172  1.00  0.00    -0.267 OA
HETATM   13  S   UNL     1      38.277 -12.608  -0.632  1.00  0.00    -0.074 SA
HETATM   14  C   UNL     1      41.801 -13.533  -2.298  1.00  0.00     0.068 C 
HETATM   15  C   UNL     1      41.606 -12.834  -3.654  1.00  0.00     0.240 C 
HETATM   16  H   UNL     1      37.587 -14.204   1.661  1.00  0.00     0.162 HD
HETATM   17  H   UNL     1      40.832 -16.759   1.695  1.00  0.00     0.165 HD
ENDROOT
BRANCH   9  18
HETATM   18  C   UNL     1      39.793 -14.879   3.260  1.00  0.00     0.095 A 
HETATM   19  O   UNL     1      40.540 -15.723   4.036  1.00  0.00    -0.313 OA
HETATM   20  C   UNL     1      40.948 -15.019   5.131  1.00  0.00     0.077 A 
HETATM   21  C   UNL     1      40.477 -13.725   5.058  1.00  0.00     0.037 A 
HETATM   22  C   UNL     1      39.738 -13.633   3.853  1.00  0.00     0.039 A 
BRANCH  20  23
HETATM   23  C   UNL     1      41.769 -15.755   6.129  1.00  0.00     0.240 C 
BRANCH  23  24
HETATM   24  O   UNL     1      41.465 -17.138   5.961  1.00  0.00    -0.345 OA
BRANCH  24  25
HETATM   25  C   UNL     1      42.487 -17.958   5.569  1.00  0.00     0.070 A 
HETATM   26  C   UNL     1      42.749 -18.383   4.264  1.00  0.00     0.052 A 
HETATM   27  C   UNL     1      43.836 -19.235   3.993  1.00  0.00     0.050 A 
HETATM   28  C   UNL     1      44.660 -19.651   5.050  1.00  0.00     0.016 A 
HETATM   29  C   UNL     1      44.404 -19.225   6.351  1.00  0.00     0.004 A 
HETATM   30  C   UNL     1      43.322 -18.382   6.605  1.00  0.00     0.037 A 
BRANCH  27  31
HETATM   31  C   UNL     1      44.127 -19.700   2.587  1.00  0.00     0.417 C 
HETATM   32  F   UNL     1      45.200 -20.538   2.507  1.00  0.00    -0.166 F 
HETATM   33  F   UNL     1      43.084 -20.377   2.035  1.00  0.00    -0.166 F 
HETATM   34  F   UNL     1      44.398 -18.668   1.741  1.00  0.00    -0.166 F 
ENDBRANCH  27  31
ENDBRANCH  24  25
ENDBRANCH  23  24
ENDBRANCH  20  23
ENDBRANCH   9  18
BRANCH   1  35
HETATM   35  C   UNL     1      41.025 -10.657  -4.759  1.00  0.00     0.231 C 
HETATM   36  C   UNL     1      42.442 -10.275  -5.143  1.00  0.00     0.034 C 
ENDBRANCH   1  35
TORSDOF 6
ENDMDL
MODEL 10
REMARK VINA RESULT:      -8.6      1.838      2.462
REMARK  6 active torsions:
REMARK  status: ('A' for Active; 'I' for Inactive)
REMARK    1  A    between atoms: C_2  and  N_3 
REMARK    2  A    between atoms: C_11  and  C_12 
REMARK    3  A    between atoms: C_14  and  C_15 
REMARK    4  A    between atoms: C_15  and  O_16 
REMARK    5  A    between atoms: O_16  and  C_17 
REMARK    6  A    between atoms: C_19  and  C_20 
ROOT
HETATM    1  N   UNL     1      39.003 -14.324  -0.083  1.00  0.00    -0.067 N 
HETATM    2  H   UNL     1      38.874 -15.322   0.131  1.00  0.00     0.280 HD
HETATM    3  C   UNL     1      40.507 -14.061   0.006  1.00  0.00     0.281 C 
HETATM    4  C   UNL     1      40.974 -14.084   1.422  1.00  0.00     0.018 A 
HETATM    5  C   UNL     1      40.154 -14.040   2.534  1.00  0.00    -0.023 A 
HETATM    6  C   UNL     1      40.920 -14.022   3.743  1.00  0.00     0.073 A 
HETATM    7  C   UNL     1      42.272 -14.035   3.491  1.00  0.00     0.088 A 
HETATM    8  N   UNL     1      43.204 -13.976   4.463  1.00  0.00    -0.357 N 
HETATM    9  C   UNL     1      42.819 -14.238   5.839  1.00  0.00     0.243 C 
HETATM   10  N   UNL     1      41.448 -13.846   6.058  1.00  0.00    -0.330 N 
HETATM   11  C   UNL     1      40.462 -13.950   5.119  1.00  0.00     0.256 C 
HETATM   12  O   UNL     1      39.273 -13.941   5.418  1.00  0.00    -0.267 OA
HETATM   13  S   UNL     1      42.627 -14.107   1.830  1.00  0.00    -0.074 SA
HETATM   14  C   UNL     1      38.663 -14.001   2.403  1.00  0.00     0.068 C 
HETATM   15  C   UNL     1      38.238 -13.548   0.996  1.00  0.00     0.240 C 
HETATM   16  H   UNL     1      44.181 -14.157   4.252  1.00  0.00     0.162 HD
HETATM   17  H   UNL     1      41.120 -13.894   7.012  1.00  0.00     0.165 HD
ENDROOT
BRANCH   9  18
HETATM   18  C   UNL     1      42.993 -15.645   6.314  1.00  0.00     0.095 A 
HETATM   19  O   UNL     1      44.147 -16.270   5.925  1.00  0.00    -0.313 OA
HETATM   20  C   UNL     1      44.107 -17.544   6.412  1.00  0.00     0.077 A 
HETATM   21  C   UNL     1      42.940 -17.737   7.121  1.00  0.00     0.037 A 
HETATM   22  C   UNL     1      42.225 -16.516   7.063  1.00  0.00     0.039 A 
BRANCH  20  23
HETATM   23  C   UNL     1      45.267 -18.417   6.091  1.00  0.00     0.240 C 
BRANCH  23  24
HETATM   24  O   UNL     1      44.727 -19.671   5.682  1.00  0.00    -0.345 OA
BRANCH  24  25
HETATM   25  C   UNL     1      44.282 -19.768   4.392  1.00  0.00     0.070 A 
HETATM   26  C   UNL     1      43.459 -18.852   3.734  1.00  0.00     0.052 A 
HETATM   27  C   UNL     1      43.066 -19.071   2.400  1.00  0.00     0.050 A 
HETATM   28  C   UNL     1      43.517 -20.222   1.734  1.00  0.00     0.016 A 
HETATM   29  C   UNL     1      44.342 -21.134   2.387  1.00  0.00     0.004 A 
HETATM   30  C   UNL     1      44.721 -20.905   3.710  1.00  0.00     0.037 A 
BRANCH  27  31
HETATM   31  C   UNL     1      42.176 -18.089   1.679  1.00  0.00     0.417 C 
HETATM   32  F   UNL     1      42.826 -17.381   0.711  1.00  0.00    -0.166 F 
HETATM   33  F   UNL     1      41.128 -18.692   1.058  1.00  0.00    -0.166 F 
HETATM   34  F   UNL     1      41.636 -17.162   2.518  1.00  0.00    -0.166 F 
ENDBRANCH  27  31
ENDBRANCH  24  25
ENDBRANCH  23  24
ENDBRANCH  20  23
ENDBRANCH   9  18
BRANCH   1  35
HETATM   35  C   UNL     1      38.431 -14.060  -1.454  1.00  0.00     0.231 C 
HETATM   36  C   UNL     1      39.522 -13.688  -2.440  1.00  0.00     0.034 C 
ENDBRANCH   1  35
TORSDOF 6
ENDMDL
