MODEL 1
REMARK VINA RESULT:     -10.3      0.000      0.000
REMARK  9 active torsions:
REMARK  status: ('A' for Active; 'I' for Inactive)
REMARK    1  A    between atoms: C_2  and  O_3 
REMARK    2  A    between atoms: O_3  and  C_4 
REMARK    3  A    between atoms: C_5  and  C_6 
REMARK    4  A    between atoms: C_7  and  C_8 
REMARK       I    between atoms: C_8  and  N_9 
REMARK    5  A    between atoms: N_9  and  C_10 
REMARK    6  A    between atoms: C_20  and  S_21 
REMARK    7  A    between atoms: S_21  and  C_22 
REMARK    8  A    between atoms: C_22  and  C_23 
REMARK       I    between atoms: C_23  and  N_24 
REMARK    9  A    between atoms: N_24  and  C_25 
ROOT
HETATM    1  C   UNL     1      43.224 -15.555   4.534  1.00  0.00     0.107 C 
HETATM    2  C   UNL     1      43.269 -16.709   5.544  1.00  0.00     0.046 C 
HETATM    3  C   UNL     1      43.383 -16.454   6.869  1.00  0.00     0.019 C 
HETATM    4  C   UNL     1      43.213 -17.485   7.961  1.00  0.00     0.069 C 
HETATM    5  N   UNL     1      43.589 -15.155   7.315  1.00  0.00    -0.353 N 
HETATM    6  C   UNL     1      43.432 -14.020   6.533  1.00  0.00     0.087 C 
HETATM    7  C   UNL     1      43.289 -14.150   5.190  1.00  0.00     0.055 C 
HETATM    8  C   UNL     1      42.739 -13.012   4.346  1.00  0.00     0.019 C 
HETATM    9  N   UNL     1      42.285 -12.067   3.645  1.00  0.00    -0.096 N 
HETATM   10  H   UNL     1      43.371 -14.999   8.296  1.00  0.00     0.166 HD
ENDROOT
BRANCH   1  11
HETATM   11  C   UNL     1      42.020 -15.630   3.573  1.00  0.00    -0.011 A 
HETATM   12  C   UNL     1      42.154 -16.060   2.233  1.00  0.00     0.076 A 
HETATM   13  C   UNL     1      41.019 -16.171   1.424  1.00  0.00     0.037 A 
HETATM   14  C   UNL     1      39.754 -15.874   1.935  1.00  0.00     0.003 A 
HETATM   15  C   UNL     1      39.612 -15.453   3.253  1.00  0.00     0.001 A 
HETATM   16  C   UNL     1      40.735 -15.328   4.068  1.00  0.00     0.011 A 
BRANCH  12  17
HETATM   17  O   UNL     1      43.427 -16.352   1.817  1.00  0.00    -0.351 OA
BRANCH  17  18
HETATM   18  C   UNL     1      43.597 -17.473   0.954  1.00  0.00     0.171 C 
HETATM   19  C   UNL     1      42.659 -18.567   1.428  1.00  0.00     0.034 C 
ENDBRANCH  17  18
ENDBRANCH  12  17
ENDBRANCH   1  11
BRANCH   6  20
HETATM   20  S   UNL     1      43.184 -12.457   7.303  1.00  0.00    -0.102 SA
BRANCH  20  21
HETATM   21  C   UNL     1      44.484 -12.436   8.569  1.00  0.00     0.184 C 
BRANCH  21  22
HETATM   22  C   UNL     1      44.259 -11.375   9.635  1.00  0.00     0.231 C 
HETATM   23  N   UNL     1      43.246 -11.687  10.525  1.00  0.00    -0.327 N 
HETATM   24  H   UNL     1      42.633 -12.448  10.246  1.00  0.00     0.169 HD
HETATM   25  O   UNL     1      45.005 -10.402   9.698  1.00  0.00    -0.272 OA
BRANCH  23  26
HETATM   26  C   UNL     1      42.930 -11.046  11.736  1.00  0.00     0.034 A 
HETATM   27  C   UNL     1      43.761 -10.115  12.361  1.00  0.00     0.030 A 
HETATM   28  C   UNL     1      43.395  -9.556  13.590  1.00  0.00     0.009 A 
HETATM   29  C   UNL     1      42.198  -9.921  14.214  1.00  0.00    -0.062 A 
HETATM   30  C   UNL     1      41.810  -9.300  15.522  1.00  0.00     0.048 C 
HETATM   31  C   UNL     1      41.357 -10.838  13.577  1.00  0.00     0.009 A 
HETATM   32  C   UNL     1      41.725 -11.400  12.351  1.00  0.00     0.030 A 
ENDBRANCH  23  26
ENDBRANCH  21  22
ENDBRANCH  20  21
ENDBRANCH   6  20
BRANCH   2  33
HETATM   33  C   UNL     1      43.101 -18.103   5.009  1.00  0.00     0.255 C 
HETATM   34  N   UNL     1      44.296 -18.732   4.712  1.00  0.00    -0.323 N 
HETATM   35  H   UNL     1      45.148 -18.218   4.894  1.00  0.00     0.169 HD
HETATM   36  O   UNL     1      41.988 -18.589   4.866  1.00  0.00    -0.268 OA
BRANCH  34  37
HETATM   37  C   UNL     1      44.459 -20.080   4.318  1.00  0.00     0.035 A 
HETATM   38  C   UNL     1      44.444 -20.512   2.990  1.00  0.00     0.029 A 
HETATM   39  C   UNL     1      44.579 -21.869   2.680  1.00  0.00     0.002 A 
HETATM   40  C   UNL     1      44.723 -22.808   3.696  1.00  0.00     0.000 A 
HETATM   41  C   UNL     1      44.746 -22.390   5.023  1.00  0.00     0.002 A 
HETATM   42  C   UNL     1      44.625 -21.031   5.333  1.00  0.00     0.029 A 
ENDBRANCH  34  37
ENDBRANCH   2  33
TORSDOF 9
ENDMDL
MODEL 2
REMARK VINA RESULT:     -10.3      0.901      2.002
REMARK  9 active torsions:
REMARK  status: ('A' for Active; 'I' for Inactive)
REMARK    1  A    between atoms: C_2  and  O_3 
REMARK    2  A    between atoms: O_3  and  C_4 
REMARK    3  A    between atoms: C_5  and  C_6 
REMARK    4  A    between atoms: C_7  and  C_8 
REMARK       I    between atoms: C_8  and  N_9 
REMARK    5  A    between atoms: N_9  and  C_10 
REMARK    6  A    between atoms: C_20  and  S_21 
REMARK    7  A    between atoms: S_21  and  C_22 
REMARK    8  A    between atoms: C_22  and  C_23 
REMARK       I    between atoms: C_23  and  N_24 
REMARK    9  A    between atoms: N_24  and  C_25 
ROOT
HETATM    1  C   UNL     1      43.224 -15.525   4.398  1.00  0.00     0.107 C 
HETATM    2  C   UNL     1      43.279 -16.674   5.414  1.00  0.00     0.046 C 
HETATM    3  C   UNL     1      43.424 -16.413   6.734  1.00  0.00     0.019 C 
HETATM    4  C   UNL     1      43.267 -17.436   7.836  1.00  0.00     0.069 C 
HETATM    5  N   UNL     1      43.651 -15.113   7.169  1.00  0.00    -0.353 N 
HETATM    6  C   UNL     1      43.489 -13.981   6.384  1.00  0.00     0.087 C 
HETATM    7  C   UNL     1      43.316 -14.117   5.045  1.00  0.00     0.055 C 
HETATM    8  C   UNL     1      42.760 -12.978   4.206  1.00  0.00     0.019 C 
HETATM    9  N   UNL     1      42.300 -12.033   3.510  1.00  0.00    -0.096 N 
HETATM   10  H   UNL     1      43.455 -14.950   8.154  1.00  0.00     0.166 HD
ENDROOT
BRANCH   1  11
HETATM   11  C   UNL     1      42.000 -15.594   3.463  1.00  0.00    -0.011 A 
HETATM   12  C   UNL     1      40.684 -15.369   3.931  1.00  0.00     0.076 A 
HETATM   13  C   UNL     1      39.617 -15.379   3.029  1.00  0.00     0.037 A 
HETATM   14  C   UNL     1      39.842 -15.595   1.668  1.00  0.00     0.003 A 
HETATM   15  C   UNL     1      41.133 -15.814   1.198  1.00  0.00     0.001 A 
HETATM   16  C   UNL     1      42.206 -15.816   2.088  1.00  0.00     0.011 A 
BRANCH  12  17
HETATM   17  O   UNL     1      40.552 -15.144   5.277  1.00  0.00    -0.351 OA
BRANCH  17  18
HETATM   18  C   UNL     1      39.402 -14.426   5.715  1.00  0.00     0.171 C 
HETATM   19  C   UNL     1      39.841 -13.012   6.050  1.00  0.00     0.034 C 
ENDBRANCH  17  18
ENDBRANCH  12  17
ENDBRANCH   1  11
BRANCH   6  20
HETATM   20  S   UNL     1      43.271 -12.411   7.150  1.00  0.00    -0.102 SA
BRANCH  20  21
HETATM   21  C   UNL     1      44.464 -12.476   8.517  1.00  0.00     0.184 C 
BRANCH  21  22
HETATM   22  C   UNL     1      44.226 -11.402   9.566  1.00  0.00     0.231 C 
HETATM   23  N   UNL     1      43.237 -11.726  10.478  1.00  0.00    -0.327 N 
HETATM   24  H   UNL     1      42.641 -12.508  10.224  1.00  0.00     0.169 HD
HETATM   25  O   UNL     1      44.945 -10.407   9.597  1.00  0.00    -0.272 OA
BRANCH  23  26
HETATM   26  C   UNL     1      42.921 -11.069  11.681  1.00  0.00     0.034 A 
HETATM   27  C   UNL     1      43.767 -10.157  12.312  1.00  0.00     0.030 A 
HETATM   28  C   UNL     1      43.401  -9.582  13.533  1.00  0.00     0.009 A 
HETATM   29  C   UNL     1      42.188  -9.913  14.144  1.00  0.00    -0.062 A 
HETATM   30  C   UNL     1      41.798  -9.276  15.444  1.00  0.00     0.048 C 
HETATM   31  C   UNL     1      41.331 -10.813  13.502  1.00  0.00     0.009 A 
HETATM   32  C   UNL     1      41.700 -11.390  12.283  1.00  0.00     0.030 A 
ENDBRANCH  23  26
ENDBRANCH  21  22
ENDBRANCH  20  21
ENDBRANCH   6  20
BRANCH   2  33
HETATM   33  C   UNL     1      43.088 -18.069   4.890  1.00  0.00     0.255 C 
HETATM   34  N   UNL     1      44.256 -18.665   4.455  1.00  0.00    -0.323 N 
HETATM   35  H   UNL     1      45.110 -18.130   4.543  1.00  0.00     0.169 HD
HETATM   36  O   UNL     1      41.978 -18.583   4.871  1.00  0.00    -0.268 OA
BRANCH  34  37
HETATM   37  C   UNL     1      44.407 -20.006   4.035  1.00  0.00     0.035 A 
HETATM   38  C   UNL     1      44.257 -20.432   2.713  1.00  0.00     0.029 A 
HETATM   39  C   UNL     1      44.390 -21.783   2.379  1.00  0.00     0.002 A 
HETATM   40  C   UNL     1      44.668 -22.724   3.365  1.00  0.00     0.000 A 
HETATM   41  C   UNL     1      44.826 -22.313   4.685  1.00  0.00     0.002 A 
HETATM   42  C   UNL     1      44.707 -20.959   5.018  1.00  0.00     0.029 A 
ENDBRANCH  34  37
ENDBRANCH   2  33
TORSDOF 9
ENDMDL
MODEL 3
REMARK VINA RESULT:     -10.0      2.033      2.781
REMARK  9 active torsions:
REMARK  status: ('A' for Active; 'I' for Inactive)
REMARK    1  A    between atoms: C_2  and  O_3 
REMARK    2  A    between atoms: O_3  and  C_4 
REMARK    3  A    between atoms: C_5  and  C_6 
REMARK    4  A    between atoms: C_7  and  C_8 
REMARK       I    between atoms: C_8  and  N_9 
REMARK    5  A    between atoms: N_9  and  C_10 
REMARK    6  A    between atoms: C_20  and  S_21 
REMARK    7  A    between atoms: S_21  and  C_22 
REMARK    8  A    between atoms: C_22  and  C_23 
REMARK       I    between atoms: C_23  and  N_24 
REMARK    9  A    between atoms: N_24  and  C_25 
ROOT
HETATM    1  C   UNL     1      42.454 -13.534   3.549  1.00  0.00     0.107 C 
HETATM    2  C   UNL     1      43.073 -14.738   4.270  1.00  0.00     0.046 C 
HETATM    3  C   UNL     1      43.152 -14.759   5.622  1.00  0.00     0.019 C 
HETATM    4  C   UNL     1      43.530 -15.970   6.443  1.00  0.00     0.069 C 
HETATM    5  N   UNL     1      42.790 -13.639   6.360  1.00  0.00    -0.353 N 
HETATM    6  C   UNL     1      42.094 -12.552   5.851  1.00  0.00     0.087 C 
HETATM    7  C   UNL     1      41.933 -12.431   4.510  1.00  0.00     0.055 C 
HETATM    8  C   UNL     1      40.881 -11.503   3.926  1.00  0.00     0.019 C 
HETATM    9  N   UNL     1      40.009 -10.732   3.441  1.00  0.00    -0.096 N 
HETATM   10  H   UNL     1      42.592 -13.818   7.342  1.00  0.00     0.166 HD
ENDROOT
BRANCH   1  11
HETATM   11  C   UNL     1      41.346 -13.924   2.549  1.00  0.00    -0.011 A 
HETATM   12  C   UNL     1      41.392 -13.540   1.189  1.00  0.00     0.076 A 
HETATM   13  C   UNL     1      40.395 -13.976   0.312  1.00  0.00     0.037 A 
HETATM   14  C   UNL     1      39.362 -14.798   0.766  1.00  0.00     0.003 A 
HETATM   15  C   UNL     1      39.310 -15.183   2.102  1.00  0.00     0.001 A 
HETATM   16  C   UNL     1      40.292 -14.748   2.990  1.00  0.00     0.011 A 
BRANCH  12  17
HETATM   17  O   UNL     1      42.450 -12.750   0.821  1.00  0.00    -0.351 OA
BRANCH  17  18
HETATM   18  C   UNL     1      42.157 -11.513   0.176  1.00  0.00     0.171 C 
HETATM   19  C   UNL     1      42.810 -11.540  -1.194  1.00  0.00     0.034 C 
ENDBRANCH  17  18
ENDBRANCH  12  17
ENDBRANCH   1  11
BRANCH   6  20
HETATM   20  S   UNL     1      41.231 -11.478   6.947  1.00  0.00    -0.102 SA
BRANCH  20  21
HETATM   21  C   UNL     1      42.529 -10.992   8.119  1.00  0.00     0.184 C 
BRANCH  21  22
HETATM   22  C   UNL     1      41.977 -10.476   9.438  1.00  0.00     0.231 C 
HETATM   23  N   UNL     1      42.545 -11.073  10.550  1.00  0.00    -0.327 N 
HETATM   24  H   UNL     1      43.078 -11.918  10.372  1.00  0.00     0.169 HD
HETATM   25  O   UNL     1      41.171  -9.548   9.443  1.00  0.00    -0.272 OA
BRANCH  23  26
HETATM   26  C   UNL     1      42.426 -10.683  11.896  1.00  0.00     0.034 A 
HETATM   27  C   UNL     1      41.361 -11.052  12.719  1.00  0.00     0.030 A 
HETATM   28  C   UNL     1      41.291 -10.584  14.035  1.00  0.00     0.009 A 
HETATM   29  C   UNL     1      42.281  -9.739  14.547  1.00  0.00    -0.062 A 
HETATM   30  C   UNL     1      42.205  -9.260  15.966  1.00  0.00     0.048 C 
HETATM   31  C   UNL     1      43.359  -9.387  13.729  1.00  0.00     0.009 A 
HETATM   32  C   UNL     1      43.425  -9.851  12.412  1.00  0.00     0.030 A 
ENDBRANCH  23  26
ENDBRANCH  21  22
ENDBRANCH  20  21
ENDBRANCH   6  20
BRANCH   2  33
HETATM   33  C   UNL     1      43.506 -15.903   3.426  1.00  0.00     0.255 C 
HETATM   34  N   UNL     1      43.317 -17.130   4.034  1.00  0.00    -0.323 N 
HETATM   35  H   UNL     1      42.902 -17.131   4.956  1.00  0.00     0.169 HD
HETATM   36  O   UNL     1      43.977 -15.727   2.311  1.00  0.00    -0.268 OA
BRANCH  34  37
HETATM   37  C   UNL     1      43.509 -18.398   3.440  1.00  0.00     0.035 A 
HETATM   38  C   UNL     1      42.860 -18.822   2.278  1.00  0.00     0.029 A 
HETATM   39  C   UNL     1      43.078 -20.105   1.767  1.00  0.00     0.002 A 
HETATM   40  C   UNL     1      43.942 -20.981   2.418  1.00  0.00     0.000 A 
HETATM   41  C   UNL     1      44.599 -20.569   3.573  1.00  0.00     0.002 A 
HETATM   42  C   UNL     1      44.393 -19.280   4.077  1.00  0.00     0.029 A 
ENDBRANCH  34  37
ENDBRANCH   2  33
TORSDOF 9
ENDMDL
MODEL 4
REMARK VINA RESULT:      -9.6      2.714      3.779
REMARK  9 active torsions:
REMARK  status: ('A' for Active; 'I' for Inactive)
REMARK    1  A    between atoms: C_2  and  O_3 
REMARK    2  A    between atoms: O_3  and  C_4 
REMARK    3  A    between atoms: C_5  and  C_6 
REMARK    4  A    between atoms: C_7  and  C_8 
REMARK       I    between atoms: C_8  and  N_9 
REMARK    5  A    between atoms: N_9  and  C_10 
REMARK    6  A    between atoms: C_20  and  S_21 
REMARK    7  A    between atoms: S_21  and  C_22 
REMARK    8  A    between atoms: C_22  and  C_23 
REMARK       I    between atoms: C_23  and  N_24 
REMARK    9  A    between atoms: N_24  and  C_25 
ROOT
HETATM    1  C   UNL     1      41.936 -12.399   3.614  1.00  0.00     0.107 C 
HETATM    2  C   UNL     1      42.729 -13.375   4.493  1.00  0.00     0.046 C 
HETATM    3  C   UNL     1      42.674 -13.279   5.843  1.00  0.00     0.019 C 
HETATM    4  C   UNL     1      43.224 -14.309   6.802  1.00  0.00     0.069 C 
HETATM    5  N   UNL     1      42.003 -12.220   6.441  1.00  0.00    -0.353 N 
HETATM    6  C   UNL     1      41.141 -11.359   5.778  1.00  0.00     0.087 C 
HETATM    7  C   UNL     1      41.093 -11.377   4.422  1.00  0.00     0.055 C 
HETATM    8  C   UNL     1      39.927 -10.756   3.670  1.00  0.00     0.019 C 
HETATM    9  N   UNL     1      38.960 -10.241   3.046  1.00  0.00    -0.096 N 
HETATM   10  H   UNL     1      41.753 -12.367   7.416  1.00  0.00     0.166 HD
ENDROOT
BRANCH   1  11
HETATM   11  C   UNL     1      41.046 -13.102   2.569  1.00  0.00    -0.011 A 
HETATM   12  C   UNL     1      41.337 -13.063   1.186  1.00  0.00     0.076 A 
HETATM   13  C   UNL     1      40.535 -13.772   0.288  1.00  0.00     0.037 A 
HETATM   14  C   UNL     1      39.456 -14.530   0.749  1.00  0.00     0.003 A 
HETATM   15  C   UNL     1      39.163 -14.577   2.108  1.00  0.00     0.001 A 
HETATM   16  C   UNL     1      39.950 -13.867   3.014  1.00  0.00     0.011 A 
BRANCH  12  17
HETATM   17  O   UNL     1      42.425 -12.314   0.819  1.00  0.00    -0.351 OA
BRANCH  17  18
HETATM   18  C   UNL     1      42.252 -11.371  -0.236  1.00  0.00     0.171 C 
HETATM   19  C   UNL     1      41.488 -10.186   0.325  1.00  0.00     0.034 C 
ENDBRANCH  17  18
ENDBRANCH  12  17
ENDBRANCH   1  11
BRANCH   6  20
HETATM   20  S   UNL     1      39.959 -10.431   6.694  1.00  0.00    -0.102 SA
BRANCH  20  21
HETATM   21  C   UNL     1      39.474 -11.597   7.998  1.00  0.00     0.184 C 
BRANCH  21  22
HETATM   22  C   UNL     1      39.599 -11.013   9.395  1.00  0.00     0.231 C 
HETATM   23  N   UNL     1      40.715 -11.454  10.084  1.00  0.00    -0.327 N 
HETATM   24  H   UNL     1      41.186 -12.263   9.690  1.00  0.00     0.169 HD
HETATM   25  O   UNL     1      38.799 -10.162   9.777  1.00  0.00    -0.272 OA
BRANCH  23  26
HETATM   26  C   UNL     1      41.240 -10.954  11.290  1.00  0.00     0.034 A 
HETATM   27  C   UNL     1      40.738 -11.282  12.550  1.00  0.00     0.030 A 
HETATM   28  C   UNL     1      41.287 -10.705  13.700  1.00  0.00     0.009 A 
HETATM   29  C   UNL     1      42.341  -9.792  13.609  1.00  0.00    -0.062 A 
HETATM   30  C   UNL     1      42.933  -9.196  14.851  1.00  0.00     0.048 C 
HETATM   31  C   UNL     1      42.858  -9.480  12.348  1.00  0.00     0.009 A 
HETATM   32  C   UNL     1      42.306 -10.053  11.198  1.00  0.00     0.030 A 
ENDBRANCH  23  26
ENDBRANCH  21  22
ENDBRANCH  20  21
ENDBRANCH   6  20
BRANCH   2  33
HETATM   33  C   UNL     1      43.488 -14.471   3.800  1.00  0.00     0.255 C 
HETATM   34  N   UNL     1      42.895 -15.714   3.911  1.00  0.00    -0.323 N 
HETATM   35  H   UNL     1      42.022 -15.767   4.418  1.00  0.00     0.169 HD
HETATM   36  O   UNL     1      44.531 -14.231   3.208  1.00  0.00    -0.268 OA
BRANCH  34  37
HETATM   37  C   UNL     1      43.307 -16.900   3.261  1.00  0.00     0.035 A 
HETATM   38  C   UNL     1      43.316 -17.069   1.874  1.00  0.00     0.029 A 
HETATM   39  C   UNL     1      43.707 -18.284   1.306  1.00  0.00     0.002 A 
HETATM   40  C   UNL     1      44.086 -19.348   2.119  1.00  0.00     0.000 A 
HETATM   41  C   UNL     1      44.088 -19.192   3.502  1.00  0.00     0.002 A 
HETATM   42  C   UNL     1      43.710 -17.971   4.071  1.00  0.00     0.029 A 
ENDBRANCH  34  37
ENDBRANCH   2  33
TORSDOF 9
ENDMDL
MODEL 5
REMARK VINA RESULT:      -9.5      4.299      8.235
REMARK  9 active torsions:
REMARK  status: ('A' for Active; 'I' for Inactive)
REMARK    1  A    between atoms: C_2  and  O_3 
REMARK    2  A    between atoms: O_3  and  C_4 
REMARK    3  A    between atoms: C_5  and  C_6 
REMARK    4  A    between atoms: C_7  and  C_8 
REMARK       I    between atoms: C_8  and  N_9 
REMARK    5  A    between atoms: N_9  and  C_10 
REMARK    6  A    between atoms: C_20  and  S_21 
REMARK    7  A    between atoms: S_21  and  C_22 
REMARK    8  A    between atoms: C_22  and  C_23 
REMARK       I    between atoms: C_23  and  N_24 
REMARK    9  A    between atoms: N_24  and  C_25 
ROOT
HETATM    1  C   UNL     1      41.419 -15.385   4.172  1.00  0.00     0.107 C 
HETATM    2  C   UNL     1      41.838 -15.797   2.754  1.00  0.00     0.046 C 
HETATM    3  C   UNL     1      41.299 -15.179   1.676  1.00  0.00     0.019 C 
HETATM    4  C   UNL     1      41.792 -15.340   0.256  1.00  0.00     0.069 C 
HETATM    5  N   UNL     1      40.272 -14.258   1.839  1.00  0.00    -0.353 N 
HETATM    6  C   UNL     1      39.900 -13.701   3.054  1.00  0.00     0.087 C 
HETATM    7  C   UNL     1      40.391 -14.223   4.206  1.00  0.00     0.055 C 
HETATM    8  C   UNL     1      40.335 -13.442   5.508  1.00  0.00     0.019 C 
HETATM    9  N   UNL     1      40.288 -12.795   6.589  1.00  0.00    -0.096 N 
HETATM   10  H   UNL     1      40.127 -13.633   1.050  1.00  0.00     0.166 HD
ENDROOT
BRANCH   1  11
HETATM   11  C   UNL     1      42.614 -15.056   5.090  1.00  0.00    -0.011 A 
HETATM   12  C   UNL     1      43.069 -15.955   6.082  1.00  0.00     0.076 A 
HETATM   13  C   UNL     1      44.197 -15.634   6.843  1.00  0.00     0.037 A 
HETATM   14  C   UNL     1      44.883 -14.438   6.621  1.00  0.00     0.003 A 
HETATM   15  C   UNL     1      44.444 -13.549   5.646  1.00  0.00     0.001 A 
HETATM   16  C   UNL     1      43.316 -13.852   4.886  1.00  0.00     0.011 A 
BRANCH  12  17
HETATM   17  O   UNL     1      42.351 -17.114   6.221  1.00  0.00    -0.351 OA
BRANCH  17  18
HETATM   18  C   UNL     1      42.435 -17.795   7.471  1.00  0.00     0.171 C 
HETATM   19  C   UNL     1      43.485 -18.882   7.334  1.00  0.00     0.034 C 
ENDBRANCH  17  18
ENDBRANCH  12  17
ENDBRANCH   1  11
BRANCH   6  20
HETATM   20  S   UNL     1      38.995 -12.192   3.081  1.00  0.00    -0.102 SA
BRANCH  20  21
HETATM   21  C   UNL     1      40.310 -10.947   2.961  1.00  0.00     0.184 C 
BRANCH  21  22
HETATM   22  C   UNL     1      40.535 -10.454   1.541  1.00  0.00     0.231 C 
HETATM   23  N   UNL     1      41.518 -11.151   0.860  1.00  0.00    -0.327 N 
HETATM   24  H   UNL     1      42.119 -11.737   1.432  1.00  0.00     0.169 HD
HETATM   25  O   UNL     1      39.811  -9.578   1.074  1.00  0.00    -0.272 OA
BRANCH  23  26
HETATM   26  C   UNL     1      41.821 -11.101  -0.513  1.00  0.00     0.034 A 
HETATM   27  C   UNL     1      42.795 -10.269  -1.063  1.00  0.00     0.030 A 
HETATM   28  C   UNL     1      43.004 -10.243  -2.446  1.00  0.00     0.009 A 
HETATM   29  C   UNL     1      42.240 -11.046  -3.299  1.00  0.00    -0.062 A 
HETATM   30  C   UNL     1      42.486 -11.024  -4.777  1.00  0.00     0.048 C 
HETATM   31  C   UNL     1      41.277 -11.895  -2.745  1.00  0.00     0.009 A 
HETATM   32  C   UNL     1      41.066 -11.916  -1.363  1.00  0.00     0.030 A 
ENDBRANCH  23  26
ENDBRANCH  21  22
ENDBRANCH  20  21
ENDBRANCH   6  20
BRANCH   2  33
HETATM   33  C   UNL     1      42.912 -16.839   2.625  1.00  0.00     0.255 C 
HETATM   34  N   UNL     1      42.512 -18.101   3.024  1.00  0.00    -0.323 N 
HETATM   35  H   UNL     1      41.557 -18.206   3.340  1.00  0.00     0.169 HD
HETATM   36  O   UNL     1      44.021 -16.546   2.202  1.00  0.00    -0.268 OA
BRANCH  34  37
HETATM   37  C   UNL     1      43.258 -19.295   2.897  1.00  0.00     0.035 A 
HETATM   38  C   UNL     1      43.117 -20.196   1.839  1.00  0.00     0.029 A 
HETATM   39  C   UNL     1      43.868 -21.374   1.799  1.00  0.00     0.002 A 
HETATM   40  C   UNL     1      44.764 -21.668   2.823  1.00  0.00     0.000 A 
HETATM   41  C   UNL     1      44.918 -20.776   3.880  1.00  0.00     0.002 A 
HETATM   42  C   UNL     1      44.177 -19.590   3.913  1.00  0.00     0.029 A 
ENDBRANCH  34  37
ENDBRANCH   2  33
TORSDOF 9
ENDMDL
MODEL 6
REMARK VINA RESULT:      -9.3      4.884      8.661
REMARK  9 active torsions:
REMARK  status: ('A' for Active; 'I' for Inactive)
REMARK    1  A    between atoms: C_2  and  O_3 
REMARK    2  A    between atoms: O_3  and  C_4 
REMARK    3  A    between atoms: C_5  and  C_6 
REMARK    4  A    between atoms: C_7  and  C_8 
REMARK       I    between atoms: C_8  and  N_9 
REMARK    5  A    between atoms: N_9  and  C_10 
REMARK    6  A    between atoms: C_20  and  S_21 
REMARK    7  A    between atoms: S_21  and  C_22 
REMARK    8  A    between atoms: C_22  and  C_23 
REMARK       I    between atoms: C_23  and  N_24 
REMARK    9  A    between atoms: N_24  and  C_25 
ROOT
HETATM    1  C   UNL     1      41.816 -12.835   1.511  1.00  0.00     0.107 C 
HETATM    2  C   UNL     1      41.908 -14.164   0.749  1.00  0.00     0.046 C 
HETATM    3  C   UNL     1      42.364 -15.278   1.370  1.00  0.00     0.019 C 
HETATM    4  C   UNL     1      42.288 -16.675   0.797  1.00  0.00     0.069 C 
HETATM    5  N   UNL     1      42.871 -15.200   2.661  1.00  0.00    -0.353 N 
HETATM    6  C   UNL     1      42.721 -14.107   3.501  1.00  0.00     0.087 C 
HETATM    7  C   UNL     1      42.254 -12.937   2.997  1.00  0.00     0.055 C 
HETATM    8  C   UNL     1      41.713 -11.849   3.909  1.00  0.00     0.019 C 
HETATM    9  N   UNL     1      41.266 -10.946   4.667  1.00  0.00    -0.096 N 
HETATM   10  H   UNL     1      42.912 -16.086   3.159  1.00  0.00     0.166 HD
ENDROOT
BRANCH   1  11
HETATM   11  C   UNL     1      40.427 -12.172   1.417  1.00  0.00    -0.011 A 
HETATM   12  C   UNL     1      40.248 -10.879   0.875  1.00  0.00     0.076 A 
HETATM   13  C   UNL     1      38.959 -10.351   0.753  1.00  0.00     0.037 A 
HETATM   14  C   UNL     1      37.848 -11.098   1.152  1.00  0.00     0.003 A 
HETATM   15  C   UNL     1      38.015 -12.372   1.684  1.00  0.00     0.001 A 
HETATM   16  C   UNL     1      39.295 -12.907   1.819  1.00  0.00     0.011 A 
BRANCH  12  17
HETATM   17  O   UNL     1      41.387 -10.222   0.489  1.00  0.00    -0.351 OA
BRANCH  17  18
HETATM   18  C   UNL     1      41.695 -10.198  -0.902  1.00  0.00     0.171 C 
HETATM   19  C   UNL     1      43.206 -10.263  -1.042  1.00  0.00     0.034 C 
ENDBRANCH  17  18
ENDBRANCH  12  17
ENDBRANCH   1  11
BRANCH   6  20
HETATM   20  S   UNL     1      42.909 -14.309   5.240  1.00  0.00    -0.102 SA
BRANCH  20  21
HETATM   21  C   UNL     1      41.535 -15.421   5.653  1.00  0.00     0.184 C 
BRANCH  21  22
HETATM   22  C   UNL     1      41.798 -16.865   5.253  1.00  0.00     0.231 C 
HETATM   23  N   UNL     1      43.130 -17.231   5.336  1.00  0.00    -0.327 N 
HETATM   24  H   UNL     1      43.793 -16.466   5.427  1.00  0.00     0.169 HD
HETATM   25  O   UNL     1      40.857 -17.606   4.984  1.00  0.00    -0.272 OA
BRANCH  23  26
HETATM   26  C   UNL     1      43.679 -18.523   5.253  1.00  0.00     0.034 A 
HETATM   27  C   UNL     1      44.222 -19.062   4.086  1.00  0.00     0.030 A 
HETATM   28  C   UNL     1      44.706 -20.374   4.073  1.00  0.00     0.009 A 
HETATM   29  C   UNL     1      44.651 -21.168   5.223  1.00  0.00    -0.062 A 
HETATM   30  C   UNL     1      45.190 -22.566   5.200  1.00  0.00     0.048 C 
HETATM   31  C   UNL     1      44.125 -20.621   6.397  1.00  0.00     0.009 A 
HETATM   32  C   UNL     1      43.637 -19.311   6.408  1.00  0.00     0.030 A 
ENDBRANCH  23  26
ENDBRANCH  21  22
ENDBRANCH  20  21
ENDBRANCH   6  20
BRANCH   2  33
HETATM   33  C   UNL     1      41.403 -14.187  -0.666  1.00  0.00     0.255 C 
HETATM   34  N   UNL     1      40.202 -14.855  -0.816  1.00  0.00    -0.323 N 
HETATM   35  H   UNL     1      39.778 -15.239   0.019  1.00  0.00     0.169 HD
HETATM   36  O   UNL     1      42.035 -13.652  -1.565  1.00  0.00    -0.268 OA
BRANCH  34  37
HETATM   37  C   UNL     1      39.426 -14.930  -1.995  1.00  0.00     0.035 A 
HETATM   38  C   UNL     1      38.273 -14.176  -2.221  1.00  0.00     0.029 A 
HETATM   39  C   UNL     1      37.540 -14.329  -3.401  1.00  0.00     0.002 A 
HETATM   40  C   UNL     1      37.949 -15.245  -4.365  1.00  0.00     0.000 A 
HETATM   41  C   UNL     1      39.099 -15.999  -4.156  1.00  0.00     0.002 A 
HETATM   42  C   UNL     1      39.841 -15.836  -2.981  1.00  0.00     0.029 A 
ENDBRANCH  34  37
ENDBRANCH   2  33
TORSDOF 9
ENDMDL
MODEL 7
REMARK VINA RESULT:      -9.3      2.977      9.695
REMARK  9 active torsions:
REMARK  status: ('A' for Active; 'I' for Inactive)
REMARK    1  A    between atoms: C_2  and  O_3 
REMARK    2  A    between atoms: O_3  and  C_4 
REMARK    3  A    between atoms: C_5  and  C_6 
REMARK    4  A    between atoms: C_7  and  C_8 
REMARK       I    between atoms: C_8  and  N_9 
REMARK    5  A    between atoms: N_9  and  C_10 
REMARK    6  A    between atoms: C_20  and  S_21 
REMARK    7  A    between atoms: S_21  and  C_22 
REMARK    8  A    between atoms: C_22  and  C_23 
REMARK       I    between atoms: C_23  and  N_24 
REMARK    9  A    between atoms: N_24  and  C_25 
ROOT
HETATM    1  C   UNL     1      41.979 -12.753   4.967  1.00  0.00     0.107 C 
HETATM    2  C   UNL     1      40.616 -12.091   5.215  1.00  0.00     0.046 C 
HETATM    3  C   UNL     1      39.873 -11.647   4.174  1.00  0.00     0.019 C 
HETATM    4  C   UNL     1      38.436 -11.190   4.276  1.00  0.00     0.069 C 
HETATM    5  N   UNL     1      40.390 -11.671   2.885  1.00  0.00    -0.353 N 
HETATM    6  C   UNL     1      41.534 -12.359   2.509  1.00  0.00     0.087 C 
HETATM    7  C   UNL     1      42.351 -12.868   3.464  1.00  0.00     0.055 C 
HETATM    8  C   UNL     1      43.381 -13.935   3.130  1.00  0.00     0.019 C 
HETATM    9  N   UNL     1      44.237 -14.818   2.853  1.00  0.00    -0.096 N 
HETATM   10  H   UNL     1      39.697 -11.610   2.143  1.00  0.00     0.166 HD
ENDROOT
BRANCH   1  11
HETATM   11  C   UNL     1      42.124 -14.127   5.651  1.00  0.00    -0.011 A 
HETATM   12  C   UNL     1      43.236 -14.449   6.462  1.00  0.00     0.076 A 
HETATM   13  C   UNL     1      43.286 -15.686   7.111  1.00  0.00     0.037 A 
HETATM   14  C   UNL     1      42.239 -16.600   6.974  1.00  0.00     0.003 A 
HETATM   15  C   UNL     1      41.140 -16.291   6.180  1.00  0.00     0.001 A 
HETATM   16  C   UNL     1      41.081 -15.065   5.520  1.00  0.00     0.011 A 
BRANCH  12  17
HETATM   17  O   UNL     1      44.210 -13.488   6.560  1.00  0.00    -0.351 OA
BRANCH  17  18
HETATM   18  C   UNL     1      45.032 -13.500   7.724  1.00  0.00     0.171 C 
HETATM   19  C   UNL     1      44.584 -12.358   8.618  1.00  0.00     0.034 C 
ENDBRANCH  17  18
ENDBRANCH  12  17
ENDBRANCH   1  11
BRANCH   6  20
HETATM   20  S   UNL     1      41.790 -12.768   0.816  1.00  0.00    -0.102 SA
BRANCH  20  21
HETATM   21  C   UNL     1      40.459 -13.961   0.498  1.00  0.00     0.184 C 
BRANCH  21  22
HETATM   22  C   UNL     1      40.633 -15.263   1.263  1.00  0.00     0.231 C 
HETATM   23  N   UNL     1      41.768 -15.969   0.907  1.00  0.00    -0.327 N 
HETATM   24  H   UNL     1      42.222 -15.672   0.048  1.00  0.00     0.169 HD
HETATM   25  O   UNL     1      39.850 -15.552   2.165  1.00  0.00    -0.272 OA
BRANCH  23  26
HETATM   26  C   UNL     1      42.335 -17.080   1.558  1.00  0.00     0.034 A 
HETATM   27  C   UNL     1      41.957 -17.511   2.829  1.00  0.00     0.030 A 
HETATM   28  C   UNL     1      42.603 -18.598   3.428  1.00  0.00     0.009 A 
HETATM   29  C   UNL     1      43.639 -19.266   2.768  1.00  0.00    -0.062 A 
HETATM   30  C   UNL     1      44.310 -20.441   3.412  1.00  0.00     0.048 C 
HETATM   31  C   UNL     1      44.004 -18.846   1.485  1.00  0.00     0.009 A 
HETATM   32  C   UNL     1      43.360 -17.758   0.889  1.00  0.00     0.030 A 
ENDBRANCH  23  26
ENDBRANCH  21  22
ENDBRANCH  20  21
ENDBRANCH   6  20
BRANCH   2  33
HETATM   33  C   UNL     1      40.122 -12.035   6.632  1.00  0.00     0.255 C 
HETATM   34  N   UNL     1      40.669 -11.002   7.371  1.00  0.00    -0.323 N 
HETATM   35  H   UNL     1      41.317 -10.387   6.897  1.00  0.00     0.169 HD
HETATM   36  O   UNL     1      39.313 -12.853   7.045  1.00  0.00    -0.268 OA
BRANCH  34  37
HETATM   37  C   UNL     1      40.302 -10.624   8.682  1.00  0.00     0.035 A 
HETATM   38  C   UNL     1      41.074 -10.888   9.816  1.00  0.00     0.029 A 
HETATM   39  C   UNL     1      40.629 -10.510  11.086  1.00  0.00     0.002 A 
HETATM   40  C   UNL     1      39.402  -9.871  11.237  1.00  0.00     0.000 A 
HETATM   41  C   UNL     1      38.626  -9.597  10.115  1.00  0.00     0.002 A 
HETATM   42  C   UNL     1      39.077  -9.961   8.842  1.00  0.00     0.029 A 
ENDBRANCH  34  37
ENDBRANCH   2  33
TORSDOF 9
ENDMDL
MODEL 8
REMARK VINA RESULT:      -9.3      3.372     10.069
REMARK  9 active torsions:
REMARK  status: ('A' for Active; 'I' for Inactive)
REMARK    1  A    between atoms: C_2  and  O_3 
REMARK    2  A    between atoms: O_3  and  C_4 
REMARK    3  A    between atoms: C_5  and  C_6 
REMARK    4  A    between atoms: C_7  and  C_8 
REMARK       I    between atoms: C_8  and  N_9 
REMARK    5  A    between atoms: N_9  and  C_10 
REMARK    6  A    between atoms: C_20  and  S_21 
REMARK    7  A    between atoms: S_21  and  C_22 
REMARK    8  A    between atoms: C_22  and  C_23 
REMARK       I    between atoms: C_23  and  N_24 
REMARK    9  A    between atoms: N_24  and  C_25 
ROOT
HETATM    1  C   UNL     1      40.148 -11.382   5.839  1.00  0.00     0.107 C 
HETATM    2  C   UNL     1      41.445 -11.722   6.586  1.00  0.00     0.046 C 
HETATM    3  C   UNL     1      42.171 -12.810   6.234  1.00  0.00     0.019 C 
HETATM    4  C   UNL     1      43.562 -13.115   6.740  1.00  0.00     0.069 C 
HETATM    5  N   UNL     1      41.685 -13.696   5.282  1.00  0.00    -0.353 N 
HETATM    6  C   UNL     1      40.611 -13.439   4.443  1.00  0.00     0.087 C 
HETATM    7  C   UNL     1      39.819 -12.365   4.683  1.00  0.00     0.055 C 
HETATM    8  C   UNL     1      38.889 -11.820   3.612  1.00  0.00     0.019 C 
HETATM    9  N   UNL     1      38.117 -11.368   2.724  1.00  0.00    -0.096 N 
HETATM   10  H   UNL     1      42.387 -14.301   4.861  1.00  0.00     0.166 HD
ENDROOT
BRANCH   1  11
HETATM   11  C   UNL     1      40.103  -9.930   5.323  1.00  0.00    -0.011 A 
HETATM   12  C   UNL     1      39.271  -8.950   5.909  1.00  0.00     0.076 A 
HETATM   13  C   UNL     1      39.317  -7.632   5.444  1.00  0.00     0.037 A 
HETATM   14  C   UNL     1      40.189  -7.276   4.413  1.00  0.00     0.003 A 
HETATM   15  C   UNL     1      41.014  -8.234   3.832  1.00  0.00     0.001 A 
HETATM   16  C   UNL     1      40.972  -9.553   4.280  1.00  0.00     0.011 A 
BRANCH  12  17
HETATM   17  O   UNL     1      38.460  -9.377   6.929  1.00  0.00    -0.351 OA
BRANCH  17  18
HETATM   18  C   UNL     1      38.724  -8.874   8.236  1.00  0.00     0.171 C 
HETATM   19  C   UNL     1      38.504 -10.009   9.220  1.00  0.00     0.034 C 
ENDBRANCH  17  18
ENDBRANCH  12  17
ENDBRANCH   1  11
BRANCH   6  20
HETATM   20  S   UNL     1      40.427 -14.360   2.953  1.00  0.00    -0.102 SA
BRANCH  20  21
HETATM   21  C   UNL     1      42.054 -15.146   2.778  1.00  0.00     0.184 C 
BRANCH  21  22
HETATM   22  C   UNL     1      42.110 -16.538   3.387  1.00  0.00     0.231 C 
HETATM   23  N   UNL     1      43.227 -17.264   3.012  1.00  0.00    -0.327 N 
HETATM   24  H   UNL     1      43.748 -16.894   2.223  1.00  0.00     0.169 HD
HETATM   25  O   UNL     1      41.258 -16.885   4.201  1.00  0.00    -0.272 OA
BRANCH  23  26
HETATM   26  C   UNL     1      43.692 -18.476   3.553  1.00  0.00     0.034 A 
HETATM   27  C   UNL     1      43.941 -18.675   4.912  1.00  0.00     0.030 A 
HETATM   28  C   UNL     1      44.449 -19.896   5.365  1.00  0.00     0.009 A 
HETATM   29  C   UNL     1      44.720 -20.935   4.469  1.00  0.00    -0.062 A 
HETATM   30  C   UNL     1      45.247 -22.246   4.970  1.00  0.00     0.048 C 
HETATM   31  C   UNL     1      44.452 -20.742   3.110  1.00  0.00     0.009 A 
HETATM   32  C   UNL     1      43.948 -19.519   2.657  1.00  0.00     0.030 A 
ENDBRANCH  23  26
ENDBRANCH  21  22
ENDBRANCH  20  21
ENDBRANCH   6  20
BRANCH   2  33
HETATM   33  C   UNL     1      41.901 -10.765   7.650  1.00  0.00     0.255 C 
HETATM   34  N   UNL     1      41.792 -11.267   8.934  1.00  0.00    -0.323 N 
HETATM   35  H   UNL     1      41.441 -12.210   9.034  1.00  0.00     0.169 HD
HETATM   36  O   UNL     1      42.321  -9.655   7.355  1.00  0.00    -0.268 OA
BRANCH  34  37
HETATM   37  C   UNL     1      42.258 -10.651  10.117  1.00  0.00     0.035 A 
HETATM   38  C   UNL     1      41.616  -9.583  10.748  1.00  0.00     0.029 A 
HETATM   39  C   UNL     1      42.157  -9.005  11.900  1.00  0.00     0.002 A 
HETATM   40  C   UNL     1      43.350  -9.483  12.429  1.00  0.00     0.000 A 
HETATM   41  C   UNL     1      43.998 -10.551  11.815  1.00  0.00     0.002 A 
HETATM   42  C   UNL     1      43.450 -11.139  10.670  1.00  0.00     0.029 A 
ENDBRANCH  34  37
ENDBRANCH   2  33
TORSDOF 9
ENDMDL
MODEL 9
REMARK VINA RESULT:      -9.2      6.000     10.944
REMARK  9 active torsions:
REMARK  status: ('A' for Active; 'I' for Inactive)
REMARK    1  A    between atoms: C_2  and  O_3 
REMARK    2  A    between atoms: O_3  and  C_4 
REMARK    3  A    between atoms: C_5  and  C_6 
REMARK    4  A    between atoms: C_7  and  C_8 
REMARK       I    between atoms: C_8  and  N_9 
REMARK    5  A    between atoms: N_9  and  C_10 
REMARK    6  A    between atoms: C_20  and  S_21 
REMARK    7  A    between atoms: S_21  and  C_22 
REMARK    8  A    between atoms: C_22  and  C_23 
REMARK       I    between atoms: C_23  and  N_24 
REMARK    9  A    between atoms: N_24  and  C_25 
ROOT
HETATM    1  C   UNL     1      40.255 -12.062  -1.308  1.00  0.00     0.107 C 
HETATM    2  C   UNL     1      41.530 -11.304  -1.700  1.00  0.00     0.046 C 
HETATM    3  C   UNL     1      42.359 -10.821  -0.745  1.00  0.00     0.019 C 
HETATM    4  C   UNL     1      43.740 -10.263  -1.005  1.00  0.00     0.069 C 
HETATM    5  N   UNL     1      42.000 -10.896   0.595  1.00  0.00    -0.353 N 
HETATM    6  C   UNL     1      40.958 -11.666   1.089  1.00  0.00     0.087 C 
HETATM    7  C   UNL     1      40.071 -12.221   0.226  1.00  0.00     0.055 C 
HETATM    8  C   UNL     1      39.163 -13.360   0.657  1.00  0.00     0.019 C 
HETATM    9  N   UNL     1      38.409 -14.305   1.015  1.00  0.00    -0.096 N 
HETATM   10  H   UNL     1      42.771 -10.794   1.252  1.00  0.00     0.166 HD
ENDROOT
BRANCH   1  11
HETATM   11  C   UNL     1      40.124 -13.436  -1.997  1.00  0.00    -0.011 A 
HETATM   12  C   UNL     1      39.181 -13.675  -3.022  1.00  0.00     0.076 A 
HETATM   13  C   UNL     1      39.149 -14.919  -3.658  1.00  0.00     0.037 A 
HETATM   14  C   UNL     1      40.051 -15.922  -3.296  1.00  0.00     0.003 A 
HETATM   15  C   UNL     1      40.984 -15.695  -2.290  1.00  0.00     0.001 A 
HETATM   16  C   UNL     1      41.021 -14.462  -1.641  1.00  0.00     0.011 A 
BRANCH  12  17
HETATM   17  O   UNL     1      38.347 -12.632  -3.331  1.00  0.00    -0.351 OA
BRANCH  17  18
HETATM   18  C   UNL     1      36.957 -12.917  -3.470  1.00  0.00     0.171 C 
HETATM   19  C   UNL     1      36.465 -12.213  -4.721  1.00  0.00     0.034 C 
ENDBRANCH  17  18
ENDBRANCH  12  17
ENDBRANCH   1  11
BRANCH   6  20
HETATM   20  S   UNL     1      40.933 -12.112   2.792  1.00  0.00    -0.102 SA
BRANCH  20  21
HETATM   21  C   UNL     1      42.449 -13.093   2.961  1.00  0.00     0.184 C 
BRANCH  21  22
HETATM   22  C   UNL     1      42.206 -14.589   2.837  1.00  0.00     0.231 C 
HETATM   23  N   UNL     1      43.349 -15.316   2.552  1.00  0.00    -0.327 N 
HETATM   24  H   UNL     1      44.150 -14.775   2.239  1.00  0.00     0.169 HD
HETATM   25  O   UNL     1      41.093 -15.050   3.074  1.00  0.00    -0.272 OA
BRANCH  23  26
HETATM   26  C   UNL     1      43.518 -16.712   2.588  1.00  0.00     0.034 A 
HETATM   27  C   UNL     1      43.655 -17.447   3.765  1.00  0.00     0.030 A 
HETATM   28  C   UNL     1      43.867 -18.829   3.714  1.00  0.00     0.009 A 
HETATM   29  C   UNL     1      43.949 -19.495   2.488  1.00  0.00    -0.062 A 
HETATM   30  C   UNL     1      44.157 -20.979   2.448  1.00  0.00     0.048 C 
HETATM   31  C   UNL     1      43.791 -18.761   1.309  1.00  0.00     0.009 A 
HETATM   32  C   UNL     1      43.583 -17.379   1.360  1.00  0.00     0.030 A 
ENDBRANCH  23  26
ENDBRANCH  21  22
ENDBRANCH  20  21
ENDBRANCH   6  20
BRANCH   2  33
HETATM   33  C   UNL     1      41.848 -11.197  -3.164  1.00  0.00     0.255 C 
HETATM   34  N   UNL     1      41.226 -10.134  -3.792  1.00  0.00    -0.323 N 
HETATM   35  H   UNL     1      40.646  -9.534  -3.221  1.00  0.00     0.169 HD
HETATM   36  O   UNL     1      42.594 -12.003  -3.703  1.00  0.00    -0.268 OA
BRANCH  34  37
HETATM   37  C   UNL     1      41.434  -9.709  -5.124  1.00  0.00     0.035 A 
HETATM   38  C   UNL     1      40.642 -10.106  -6.203  1.00  0.00     0.029 A 
HETATM   39  C   UNL     1      40.930  -9.668  -7.499  1.00  0.00     0.002 A 
HETATM   40  C   UNL     1      42.019  -8.834  -7.731  1.00  0.00     0.000 A 
HETATM   41  C   UNL     1      42.813  -8.426  -6.663  1.00  0.00     0.002 A 
HETATM   42  C   UNL     1      42.517  -8.852  -5.364  1.00  0.00     0.029 A 
ENDBRANCH  34  37
ENDBRANCH   2  33
TORSDOF 9
ENDMDL
MODEL 10
REMARK VINA RESULT:      -9.2      4.428      9.424
REMARK  9 active torsions:
REMARK  status: ('A' for Active; 'I' for Inactive)
REMARK    1  A    between atoms: C_2  and  O_3 
REMARK    2  A    between atoms: O_3  and  C_4 
REMARK    3  A    between atoms: C_5  and  C_6 
REMARK    4  A    between atoms: C_7  and  C_8 
REMARK       I    between atoms: C_8  and  N_9 
REMARK    5  A    between atoms: N_9  and  C_10 
REMARK    6  A    between atoms: C_20  and  S_21 
REMARK    7  A    between atoms: S_21  and  C_22 
REMARK    8  A    between atoms: C_22  and  C_23 
REMARK       I    between atoms: C_23  and  N_24 
REMARK    9  A    between atoms: N_24  and  C_25 
ROOT
HETATM    1  C   UNL     1      41.342 -15.729   3.951  1.00  0.00     0.107 C 
HETATM    2  C   UNL     1      41.774 -16.225   2.564  1.00  0.00     0.046 C 
HETATM    3  C   UNL     1      41.208 -15.709   1.447  1.00  0.00     0.019 C 
HETATM    4  C   UNL     1      41.704 -15.951   0.040  1.00  0.00     0.069 C 
HETATM    5  N   UNL     1      40.144 -14.821   1.549  1.00  0.00    -0.353 N 
HETATM    6  C   UNL     1      39.753 -14.193   2.722  1.00  0.00     0.087 C 
HETATM    7  C   UNL     1      40.267 -14.610   3.906  1.00  0.00     0.055 C 
HETATM    8  C   UNL     1      40.183 -13.740   5.149  1.00  0.00     0.019 C 
HETATM    9  N   UNL     1      40.111 -13.019   6.180  1.00  0.00    -0.096 N 
HETATM   10  H   UNL     1      39.972 -14.261   0.717  1.00  0.00     0.166 HD
ENDROOT
BRANCH   1  11
HETATM   11  C   UNL     1      42.524 -15.286   4.837  1.00  0.00    -0.011 A 
HETATM   12  C   UNL     1      43.026 -16.097   5.880  1.00  0.00     0.076 A 
HETATM   13  C   UNL     1      44.141 -15.676   6.610  1.00  0.00     0.037 A 
HETATM   14  C   UNL     1      44.770 -14.467   6.307  1.00  0.00     0.003 A 
HETATM   15  C   UNL     1      44.285 -13.663   5.281  1.00  0.00     0.001 A 
HETATM   16  C   UNL     1      43.168 -14.067   4.550  1.00  0.00     0.011 A 
BRANCH  12  17
HETATM   17  O   UNL     1      42.364 -17.278   6.099  1.00  0.00    -0.351 OA
BRANCH  17  18
HETATM   18  C   UNL     1      42.510 -17.888   7.378  1.00  0.00     0.171 C 
HETATM   19  C   UNL     1      43.572 -18.966   7.257  1.00  0.00     0.034 C 
ENDBRANCH  17  18
ENDBRANCH  12  17
ENDBRANCH   1  11
BRANCH   6  20
HETATM   20  S   UNL     1      38.787 -12.723   2.645  1.00  0.00    -0.102 SA
BRANCH  20  21
HETATM   21  C   UNL     1      39.330 -11.982   1.080  1.00  0.00     0.184 C 
BRANCH  21  22
HETATM   22  C   UNL     1      38.268 -12.042  -0.006  1.00  0.00     0.231 C 
HETATM   23  N   UNL     1      38.688 -12.679  -1.160  1.00  0.00    -0.327 N 
HETATM   24  H   UNL     1      39.690 -12.827  -1.243  1.00  0.00     0.169 HD
HETATM   25  O   UNL     1      37.135 -11.627   0.222  1.00  0.00    -0.272 OA
BRANCH  23  26
HETATM   26  C   UNL     1      37.907 -13.094  -2.254  1.00  0.00     0.034 A 
HETATM   27  C   UNL     1      37.863 -14.407  -2.723  1.00  0.00     0.030 A 
HETATM   28  C   UNL     1      37.097 -14.730  -3.847  1.00  0.00     0.009 A 
HETATM   29  C   UNL     1      36.365 -13.747  -4.521  1.00  0.00    -0.062 A 
HETATM   30  C   UNL     1      35.532 -14.110  -5.713  1.00  0.00     0.048 C 
HETATM   31  C   UNL     1      36.393 -12.435  -4.038  1.00  0.00     0.009 A 
HETATM   32  C   UNL     1      37.163 -12.112  -2.917  1.00  0.00     0.030 A 
ENDBRANCH  23  26
ENDBRANCH  21  22
ENDBRANCH  20  21
ENDBRANCH   6  20
BRANCH   2  33
HETATM   33  C   UNL     1      42.889 -17.230   2.504  1.00  0.00     0.255 C 
HETATM   34  N   UNL     1      42.547 -18.469   3.012  1.00  0.00    -0.323 N 
HETATM   35  H   UNL     1      41.601 -18.587   3.349  1.00  0.00     0.169 HD
HETATM   36  O   UNL     1      43.980 -16.927   2.042  1.00  0.00    -0.268 OA
BRANCH  34  37
HETATM   37  C   UNL     1      43.341 -19.639   2.972  1.00  0.00     0.035 A 
HETATM   38  C   UNL     1      44.291 -19.971   3.941  1.00  0.00     0.029 A 
HETATM   39  C   UNL     1      45.061 -21.131   3.817  1.00  0.00     0.002 A 
HETATM   40  C   UNL     1      44.895 -21.967   2.717  1.00  0.00     0.000 A 
HETATM   41  C   UNL     1      43.948 -21.651   1.748  1.00  0.00     0.002 A 
HETATM   42  C   UNL     1      43.167 -20.498   1.879  1.00  0.00     0.029 A 
ENDBRANCH  34  37
ENDBRANCH   2  33
TORSDOF 9
ENDMDL
