MODEL 1
REMARK VINA RESULT:     -10.3      0.000      0.000
REMARK  7 active torsions:
REMARK  status: ('A' for Active; 'I' for Inactive)
REMARK    1  A    between atoms: C_4  and  N_5 
REMARK    2  A    between atoms: N_8  and  C_10 
REMARK    3  A    between atoms: C_10  and  C_11 
REMARK    4  A    between atoms: C_11  and  C_12 
REMARK    5  A    between atoms: C_12  and  N_13 
REMARK       I    between atoms: N_13  and  C_14 
REMARK    6  A    between atoms: C_14  and  C_15 
REMARK    7  A    between atoms: C_21  and  C_22 
ROOT
HETATM    1  N   UNL     1      39.551 -12.206   4.213  1.00  0.00    -0.357 N 
HETATM    2  C   UNL     1      40.169 -11.007   4.509  1.00  0.00     0.251 C 
HETATM    3  O   UNL     1      40.312 -10.139   3.648  1.00  0.00    -0.268 OA
HETATM    4  H   UNL     1      39.352 -12.878   4.945  1.00  0.00     0.162 HD
ENDROOT
BRANCH   2   5
HETATM    5  C   UNL     1      40.529 -10.753   5.934  1.00  0.00     0.034 A 
HETATM    6  C   UNL     1      41.741 -11.165   6.504  1.00  0.00     0.048 A 
HETATM    7  C   UNL     1      41.982 -10.983   7.875  1.00  0.00     0.053 A 
HETATM    8  C   UNL     1      41.024 -10.375   8.685  1.00  0.00     0.032 A 
HETATM    9  N   UNL     1      43.194 -11.444   8.389  1.00  0.00    -0.321 N 
HETATM   10  S   UNL     1      41.212 -10.167  10.428  1.00  0.00    -0.083 SA
HETATM   11  C   UNL     1      39.830  -9.931   8.104  1.00  0.00     0.022 A 
HETATM   12  C   UNL     1      42.852 -10.622  10.711  1.00  0.00     0.074 C 
HETATM   13  C   UNL     1      43.474 -10.394  11.886  1.00  0.00     0.036 C 
HETATM   14  C   UNL     1      43.660 -11.331   9.667  1.00  0.00     0.263 C 
HETATM   15  O   UNL     1      44.766 -11.815   9.912  1.00  0.00    -0.267 OA
HETATM   16  C   UNL     1      39.583 -10.114   6.741  1.00  0.00     0.018 A 
HETATM   17  H   UNL     1      43.857 -11.907   7.781  1.00  0.00     0.169 HD
BRANCH  13  18
HETATM   18  C   UNL     1      42.893  -9.717  13.051  1.00  0.00    -0.035 A 
HETATM   19  C   UNL     1      42.427 -10.466  14.136  1.00  0.00     0.011 A 
HETATM   20  C   UNL     1      41.859  -9.824  15.238  1.00  0.00     0.001 A 
HETATM   21  C   UNL     1      41.758  -8.434  15.262  1.00  0.00     0.000 A 
HETATM   22  C   UNL     1      42.228  -7.682  14.186  1.00  0.00     0.001 A 
HETATM   23  C   UNL     1      42.796  -8.321  13.082  1.00  0.00     0.011 A 
ENDBRANCH  13  18
ENDBRANCH   2   5
BRANCH   1  24
HETATM   24  C   UNL     1      39.075 -12.516   2.882  1.00  0.00     0.124 C 
BRANCH  24  25
HETATM   25  C   UNL     1      40.171 -13.088   1.983  1.00  0.00     0.047 C 
BRANCH  25  26
HETATM   26  C   UNL     1      39.707 -13.894   0.768  1.00  0.00     0.236 C 
BRANCH  26  27
HETATM   27  N   UNL     1      40.234 -15.308   0.736  1.00  0.00    -0.068 N 
HETATM   28  C   UNL     1      41.727 -15.375   0.415  1.00  0.00     0.254 C 
HETATM   29  C   UNL     1      42.319 -16.790   0.582  1.00  0.00     0.150 C 
HETATM   30  N   UNL     1      41.970 -17.308   1.911  1.00  0.00    -0.377 N 
HETATM   31  C   UNL     1      40.514 -17.446   2.095  1.00  0.00     0.150 C 
HETATM   32  C   UNL     1      39.891 -16.035   2.050  1.00  0.00     0.254 C 
HETATM   33  H   UNL     1      39.685 -15.827   0.020  1.00  0.00     0.280 HD
BRANCH  30  34
HETATM   34  C   UNL     1      42.770 -18.298   2.494  1.00  0.00     0.036 A 
HETATM   35  C   UNL     1      43.025 -19.520   1.840  1.00  0.00     0.036 A 
HETATM   36  C   UNL     1      43.864 -20.505   2.388  1.00  0.00    -0.060 A 
HETATM   37  C   UNL     1      44.178 -21.763   1.632  1.00  0.00     0.048 C 
HETATM   38  C   UNL     1      44.458 -20.275   3.626  1.00  0.00     0.007 A 
HETATM   39  C   UNL     1      44.224 -19.080   4.298  1.00  0.00     0.009 A 
HETATM   40  C   UNL     1      43.412 -18.077   3.736  1.00  0.00    -0.035 A 
HETATM   41  C   UNL     1      43.296 -16.788   4.507  1.00  0.00     0.050 C 
ENDBRANCH  30  34
ENDBRANCH  26  27
ENDBRANCH  25  26
ENDBRANCH  24  25
ENDBRANCH   1  24
TORSDOF 7
ENDMDL
MODEL 2
REMARK VINA RESULT:     -10.1      2.715     10.722
REMARK  7 active torsions:
REMARK  status: ('A' for Active; 'I' for Inactive)
REMARK    1  A    between atoms: C_4  and  N_5 
REMARK    2  A    between atoms: N_8  and  C_10 
REMARK    3  A    between atoms: C_10  and  C_11 
REMARK    4  A    between atoms: C_11  and  C_12 
REMARK    5  A    between atoms: C_12  and  N_13 
REMARK       I    between atoms: N_13  and  C_14 
REMARK    6  A    between atoms: C_14  and  C_15 
REMARK    7  A    between atoms: C_21  and  C_22 
ROOT
HETATM    1  N   UNL     1      38.814 -11.269   3.884  1.00  0.00    -0.357 N 
HETATM    2  C   UNL     1      39.115 -12.122   4.927  1.00  0.00     0.251 C 
HETATM    3  O   UNL     1      38.692 -11.908   6.063  1.00  0.00    -0.268 OA
HETATM    4  H   UNL     1      39.084 -11.499   2.935  1.00  0.00     0.162 HD
ENDROOT
BRANCH   2   5
HETATM    5  C   UNL     1      39.852 -13.377   4.597  1.00  0.00     0.034 A 
HETATM    6  C   UNL     1      40.176 -13.754   3.287  1.00  0.00     0.048 A 
HETATM    7  C   UNL     1      40.785 -14.993   3.032  1.00  0.00     0.053 A 
HETATM    8  C   UNL     1      41.090 -15.858   4.081  1.00  0.00     0.032 A 
HETATM    9  N   UNL     1      41.052 -15.325   1.703  1.00  0.00    -0.321 N 
HETATM   10  S   UNL     1      41.792 -17.461   3.849  1.00  0.00    -0.083 SA
HETATM   11  C   UNL     1      40.800 -15.461   5.392  1.00  0.00     0.022 A 
HETATM   12  C   UNL     1      42.195 -17.483   2.172  1.00  0.00     0.074 C 
HETATM   13  C   UNL     1      42.962 -18.448   1.624  1.00  0.00     0.036 C 
HETATM   14  C   UNL     1      41.676 -16.441   1.228  1.00  0.00     0.263 C 
HETATM   15  O   UNL     1      41.810 -16.539   0.007  1.00  0.00    -0.267 OA
HETATM   16  C   UNL     1      40.190 -14.231   5.652  1.00  0.00     0.018 A 
HETATM   17  H   UNL     1      40.792 -14.688   0.961  1.00  0.00     0.169 HD
BRANCH  13  18
HETATM   18  C   UNL     1      43.583 -19.567   2.343  1.00  0.00    -0.035 A 
HETATM   19  C   UNL     1      44.257 -19.337   3.546  1.00  0.00     0.011 A 
HETATM   20  C   UNL     1      44.861 -20.398   4.224  1.00  0.00     0.001 A 
HETATM   21  C   UNL     1      44.792 -21.690   3.703  1.00  0.00     0.000 A 
HETATM   22  C   UNL     1      44.116 -21.924   2.507  1.00  0.00     0.001 A 
HETATM   23  C   UNL     1      43.511 -20.865   1.828  1.00  0.00     0.011 A 
ENDBRANCH  13  18
ENDBRANCH   2   5
BRANCH   1  24
HETATM   24  C   UNL     1      38.022 -10.073   4.076  1.00  0.00     0.124 C 
BRANCH  24  25
HETATM   25  C   UNL     1      38.880  -8.821   4.257  1.00  0.00     0.047 C 
BRANCH  25  26
HETATM   26  C   UNL     1      38.984  -8.264   5.678  1.00  0.00     0.236 C 
BRANCH  26  27
HETATM   27  N   UNL     1      39.573  -9.234   6.673  1.00  0.00    -0.068 N 
HETATM   28  C   UNL     1      41.099  -9.295   6.606  1.00  0.00     0.254 C 
HETATM   29  C   UNL     1      41.722 -10.122   7.750  1.00  0.00     0.150 C 
HETATM   30  N   UNL     1      41.199  -9.642   9.036  1.00  0.00    -0.377 N 
HETATM   31  C   UNL     1      39.739  -9.817   9.148  1.00  0.00     0.150 C 
HETATM   32  C   UNL     1      39.068  -8.914   8.092  1.00  0.00     0.254 C 
HETATM   33  H   UNL     1      39.163 -10.169   6.473  1.00  0.00     0.280 HD
BRANCH  30  34
HETATM   34  C   UNL     1      41.945  -9.852  10.202  1.00  0.00     0.036 A 
HETATM   35  C   UNL     1      42.666 -11.043  10.413  1.00  0.00     0.036 A 
HETATM   36  C   UNL     1      43.458 -11.252  11.554  1.00  0.00    -0.060 A 
HETATM   37  C   UNL     1      44.275 -12.501  11.712  1.00  0.00     0.048 C 
HETATM   38  C   UNL     1      43.528 -10.251  12.520  1.00  0.00     0.007 A 
HETATM   39  C   UNL     1      42.827  -9.063  12.343  1.00  0.00     0.009 A 
HETATM   40  C   UNL     1      42.060  -8.838  11.184  1.00  0.00    -0.035 A 
HETATM   41  C   UNL     1      41.412  -7.484  11.053  1.00  0.00     0.050 C 
ENDBRANCH  30  34
ENDBRANCH  26  27
ENDBRANCH  25  26
ENDBRANCH  24  25
ENDBRANCH   1  24
TORSDOF 7
ENDMDL
MODEL 3
REMARK VINA RESULT:     -10.0      2.743     11.415
REMARK  7 active torsions:
REMARK  status: ('A' for Active; 'I' for Inactive)
REMARK    1  A    between atoms: C_4  and  N_5 
REMARK    2  A    between atoms: N_8  and  C_10 
REMARK    3  A    between atoms: C_10  and  C_11 
REMARK    4  A    between atoms: C_11  and  C_12 
REMARK    5  A    between atoms: C_12  and  N_13 
REMARK       I    between atoms: N_13  and  C_14 
REMARK    6  A    between atoms: C_14  and  C_15 
REMARK    7  A    between atoms: C_21  and  C_22 
ROOT
HETATM    1  N   UNL     1      39.647 -11.311   4.530  1.00  0.00    -0.357 N 
HETATM    2  C   UNL     1      39.488 -12.406   5.356  1.00  0.00     0.251 C 
HETATM    3  O   UNL     1      38.707 -12.374   6.307  1.00  0.00    -0.268 OA
HETATM    4  H   UNL     1      40.219 -11.373   3.696  1.00  0.00     0.162 HD
ENDROOT
BRANCH   2   5
HETATM    5  C   UNL     1      40.190 -13.665   4.970  1.00  0.00     0.034 A 
HETATM    6  C   UNL     1      40.562 -13.962   3.653  1.00  0.00     0.048 A 
HETATM    7  C   UNL     1      41.134 -15.206   3.337  1.00  0.00     0.053 A 
HETATM    8  C   UNL     1      41.353 -16.155   4.334  1.00  0.00     0.032 A 
HETATM    9  N   UNL     1      41.452 -15.455   2.002  1.00  0.00    -0.321 N 
HETATM   10  S   UNL     1      42.001 -17.766   4.020  1.00  0.00    -0.083 SA
HETATM   11  C   UNL     1      41.015 -15.839   5.656  1.00  0.00     0.022 A 
HETATM   12  C   UNL     1      42.484 -17.687   2.365  1.00  0.00     0.074 C 
HETATM   13  C   UNL     1      43.239 -18.643   1.785  1.00  0.00     0.036 C 
HETATM   14  C   UNL     1      42.054 -16.560   1.476  1.00  0.00     0.263 C 
HETATM   15  O   UNL     1      42.243 -16.579   0.259  1.00  0.00    -0.267 OA
HETATM   16  C   UNL     1      40.442 -14.605   5.975  1.00  0.00     0.018 A 
HETATM   17  H   UNL     1      41.253 -14.756   1.297  1.00  0.00     0.169 HD
BRANCH  13  18
HETATM   18  C   UNL     1      43.779 -19.835   2.449  1.00  0.00    -0.035 A 
HETATM   19  C   UNL     1      43.671 -21.088   1.836  1.00  0.00     0.011 A 
HETATM   20  C   UNL     1      44.171 -22.225   2.474  1.00  0.00     0.001 A 
HETATM   21  C   UNL     1      44.781 -22.115   3.723  1.00  0.00     0.000 A 
HETATM   22  C   UNL     1      44.896 -20.867   4.335  1.00  0.00     0.001 A 
HETATM   23  C   UNL     1      44.397 -19.729   3.700  1.00  0.00     0.011 A 
ENDBRANCH  13  18
ENDBRANCH   2   5
BRANCH   1  24
HETATM   24  C   UNL     1      38.939 -10.069   4.757  1.00  0.00     0.124 C 
BRANCH  24  25
HETATM   25  C   UNL     1      39.877  -8.905   5.074  1.00  0.00     0.047 C 
BRANCH  25  26
HETATM   26  C   UNL     1      41.060  -9.213   5.995  1.00  0.00     0.236 C 
BRANCH  26  27
HETATM   27  N   UNL     1      40.685  -9.328   7.453  1.00  0.00    -0.068 N 
HETATM   28  C   UNL     1      41.321 -10.540   8.133  1.00  0.00     0.254 C 
HETATM   29  C   UNL     1      41.115 -10.553   9.662  1.00  0.00     0.150 C 
HETATM   30  N   UNL     1      41.541  -9.262  10.219  1.00  0.00    -0.377 N 
HETATM   31  C   UNL     1      40.741  -8.137   9.705  1.00  0.00     0.150 C 
HETATM   32  C   UNL     1      41.007  -8.015   8.190  1.00  0.00     0.254 C 
HETATM   33  H   UNL     1      39.647  -9.387   7.502  1.00  0.00     0.280 HD
BRANCH  30  34
HETATM   34  C   UNL     1      41.931  -9.190  11.562  1.00  0.00     0.036 A 
HETATM   35  C   UNL     1      41.073  -8.674  12.553  1.00  0.00     0.036 A 
HETATM   36  C   UNL     1      41.428  -8.638  13.911  1.00  0.00    -0.060 A 
HETATM   37  C   UNL     1      40.461  -8.154  14.952  1.00  0.00     0.048 C 
HETATM   38  C   UNL     1      42.677  -9.119  14.297  1.00  0.00     0.007 A 
HETATM   39  C   UNL     1      43.549  -9.632  13.343  1.00  0.00     0.009 A 
HETATM   40  C   UNL     1      43.181  -9.702  11.985  1.00  0.00    -0.035 A 
HETATM   41  C   UNL     1      44.165 -10.356  11.050  1.00  0.00     0.050 C 
ENDBRANCH  30  34
ENDBRANCH  26  27
ENDBRANCH  25  26
ENDBRANCH  24  25
ENDBRANCH   1  24
TORSDOF 7
ENDMDL
MODEL 4
REMARK VINA RESULT:      -9.7      2.916     11.254
REMARK  7 active torsions:
REMARK  status: ('A' for Active; 'I' for Inactive)
REMARK    1  A    between atoms: C_4  and  N_5 
REMARK    2  A    between atoms: N_8  and  C_10 
REMARK    3  A    between atoms: C_10  and  C_11 
REMARK    4  A    between atoms: C_11  and  C_12 
REMARK    5  A    between atoms: C_12  and  N_13 
REMARK       I    between atoms: N_13  and  C_14 
REMARK    6  A    between atoms: C_14  and  C_15 
REMARK    7  A    between atoms: C_21  and  C_22 
ROOT
HETATM    1  N   UNL     1      39.939 -11.377   4.674  1.00  0.00    -0.357 N 
HETATM    2  C   UNL     1      39.589 -12.513   5.374  1.00  0.00     0.251 C 
HETATM    3  O   UNL     1      38.632 -12.511   6.149  1.00  0.00    -0.268 OA
HETATM    4  H   UNL     1      40.666 -11.409   3.969  1.00  0.00     0.162 HD
ENDROOT
BRANCH   2   5
HETATM    5  C   UNL     1      40.323 -13.772   5.053  1.00  0.00     0.034 A 
HETATM    6  C   UNL     1      41.408 -14.240   5.805  1.00  0.00     0.048 A 
HETATM    7  C   UNL     1      42.120 -15.380   5.396  1.00  0.00     0.053 A 
HETATM    8  C   UNL     1      41.746 -16.069   4.245  1.00  0.00     0.032 A 
HETATM    9  N   UNL     1      43.212 -15.776   6.169  1.00  0.00    -0.321 N 
HETATM   10  S   UNL     1      42.622 -17.468   3.619  1.00  0.00    -0.083 SA
HETATM   11  C   UNL     1      40.637 -15.621   3.516  1.00  0.00     0.022 A 
HETATM   12  C   UNL     1      43.747 -17.831   4.876  1.00  0.00     0.074 C 
HETATM   13  C   UNL     1      44.463 -18.974   4.899  1.00  0.00     0.036 C 
HETATM   14  C   UNL     1      44.010 -16.868   5.994  1.00  0.00     0.263 C 
HETATM   15  O   UNL     1      44.929 -17.034   6.798  1.00  0.00    -0.267 OA
HETATM   16  C   UNL     1      39.928 -14.485   3.916  1.00  0.00     0.018 A 
HETATM   17  H   UNL     1      43.476 -15.237   6.984  1.00  0.00     0.169 HD
BRANCH  13  18
HETATM   18  C   UNL     1      44.378 -20.063   3.919  1.00  0.00    -0.035 A 
HETATM   19  C   UNL     1      44.700 -21.371   4.297  1.00  0.00     0.011 A 
HETATM   20  C   UNL     1      44.635 -22.406   3.362  1.00  0.00     0.001 A 
HETATM   21  C   UNL     1      44.245 -22.139   2.050  1.00  0.00     0.000 A 
HETATM   22  C   UNL     1      43.917 -20.839   1.671  1.00  0.00     0.001 A 
HETATM   23  C   UNL     1      43.982 -19.802   2.603  1.00  0.00     0.011 A 
ENDBRANCH  13  18
ENDBRANCH   2   5
BRANCH   1  24
HETATM   24  C   UNL     1      39.230 -10.125   4.838  1.00  0.00     0.124 C 
BRANCH  24  25
HETATM   25  C   UNL     1      39.768  -9.292   6.001  1.00  0.00     0.047 C 
BRANCH  25  26
HETATM   26  C   UNL     1      38.751  -8.429   6.750  1.00  0.00     0.236 C 
BRANCH  26  27
HETATM   27  N   UNL     1      38.994  -8.353   8.238  1.00  0.00    -0.068 N 
HETATM   28  C   UNL     1      39.123  -9.731   8.887  1.00  0.00     0.254 C 
HETATM   29  C   UNL     1      39.575  -9.666  10.362  1.00  0.00     0.150 C 
HETATM   30  N   UNL     1      40.786  -8.842  10.461  1.00  0.00    -0.377 N 
HETATM   31  C   UNL     1      40.553  -7.449  10.039  1.00  0.00     0.150 C 
HETATM   32  C   UNL     1      40.210  -7.457   8.535  1.00  0.00     0.254 C 
HETATM   33  H   UNL     1      38.197  -7.829   8.655  1.00  0.00     0.280 HD
BRANCH  30  34
HETATM   34  C   UNL     1      41.657  -9.030  11.541  1.00  0.00     0.036 A 
HETATM   35  C   UNL     1      41.355  -8.544  12.827  1.00  0.00     0.036 A 
HETATM   36  C   UNL     1      42.193  -8.765  13.932  1.00  0.00    -0.060 A 
HETATM   37  C   UNL     1      41.805  -8.301  15.305  1.00  0.00     0.048 C 
HETATM   38  C   UNL     1      43.374  -9.482  13.752  1.00  0.00     0.007 A 
HETATM   39  C   UNL     1      43.703  -9.974  12.493  1.00  0.00     0.009 A 
HETATM   40  C   UNL     1      42.847  -9.783  11.392  1.00  0.00    -0.035 A 
HETATM   41  C   UNL     1      43.257 -10.432  10.095  1.00  0.00     0.050 C 
ENDBRANCH  30  34
ENDBRANCH  26  27
ENDBRANCH  25  26
ENDBRANCH  24  25
ENDBRANCH   1  24
TORSDOF 7
ENDMDL
MODEL 5
REMARK VINA RESULT:      -9.5      5.408      9.307
REMARK  7 active torsions:
REMARK  status: ('A' for Active; 'I' for Inactive)
REMARK    1  A    between atoms: C_4  and  N_5 
REMARK    2  A    between atoms: N_8  and  C_10 
REMARK    3  A    between atoms: C_10  and  C_11 
REMARK    4  A    between atoms: C_11  and  C_12 
REMARK    5  A    between atoms: C_12  and  N_13 
REMARK       I    between atoms: N_13  and  C_14 
REMARK    6  A    between atoms: C_14  and  C_15 
REMARK    7  A    between atoms: C_21  and  C_22 
ROOT
HETATM    1  N   UNL     1      39.424 -10.925   3.729  1.00  0.00    -0.357 N 
HETATM    2  C   UNL     1      39.211 -11.971   4.605  1.00  0.00     0.251 C 
HETATM    3  O   UNL     1      38.370 -11.885   5.501  1.00  0.00    -0.268 OA
HETATM    4  H   UNL     1      40.048 -11.034   2.939  1.00  0.00     0.162 HD
ENDROOT
BRANCH   2   5
HETATM    5  C   UNL     1      39.934 -13.248   4.340  1.00  0.00     0.034 A 
HETATM    6  C   UNL     1      40.232 -13.706   3.050  1.00  0.00     0.048 A 
HETATM    7  C   UNL     1      40.829 -14.963   2.860  1.00  0.00     0.053 A 
HETATM    8  C   UNL     1      41.148 -15.765   3.954  1.00  0.00     0.032 A 
HETATM    9  N   UNL     1      41.070 -15.378   1.550  1.00  0.00    -0.321 N 
HETATM   10  S   UNL     1      41.837 -17.383   3.809  1.00  0.00    -0.083 SA
HETATM   11  C   UNL     1      40.885 -15.287   5.244  1.00  0.00     0.022 A 
HETATM   12  C   UNL     1      42.209 -17.510   2.129  1.00  0.00     0.074 C 
HETATM   13  C   UNL     1      42.961 -18.512   1.628  1.00  0.00     0.036 C 
HETATM   14  C   UNL     1      41.680 -16.524   1.132  1.00  0.00     0.263 C 
HETATM   15  O   UNL     1      41.790 -16.698  -0.082  1.00  0.00    -0.267 OA
HETATM   16  C   UNL     1      40.286 -14.039   5.438  1.00  0.00     0.018 A 
HETATM   17  H   UNL     1      40.800 -14.785   0.775  1.00  0.00     0.169 HD
BRANCH  13  18
HETATM   18  C   UNL     1      43.588 -19.589   2.403  1.00  0.00    -0.035 A 
HETATM   19  C   UNL     1      44.164 -19.312   3.647  1.00  0.00     0.011 A 
HETATM   20  C   UNL     1      44.775 -20.333   4.378  1.00  0.00     0.001 A 
HETATM   21  C   UNL     1      44.810 -21.631   3.871  1.00  0.00     0.000 A 
HETATM   22  C   UNL     1      44.232 -21.913   2.634  1.00  0.00     0.001 A 
HETATM   23  C   UNL     1      43.621 -20.895   1.901  1.00  0.00     0.011 A 
ENDBRANCH  13  18
ENDBRANCH   2   5
BRANCH   1  24
HETATM   24  C   UNL     1      38.704  -9.674   3.838  1.00  0.00     0.124 C 
BRANCH  24  25
HETATM   25  C   UNL     1      38.066  -9.246   2.517  1.00  0.00     0.047 C 
BRANCH  25  26
HETATM   26  C   UNL     1      36.775  -9.963   2.118  1.00  0.00     0.236 C 
BRANCH  26  27
HETATM   27  N   UNL     1      36.915 -10.840   0.898  1.00  0.00    -0.068 N 
HETATM   28  C   UNL     1      37.852 -10.245  -0.153  1.00  0.00     0.254 C 
HETATM   29  C   UNL     1      38.165 -11.221  -1.307  1.00  0.00     0.150 C 
HETATM   30  N   UNL     1      38.627 -12.499  -0.749  1.00  0.00    -0.377 N 
HETATM   31  C   UNL     1      37.598 -13.154   0.078  1.00  0.00     0.150 C 
HETATM   32  C   UNL     1      37.336 -12.263   1.310  1.00  0.00     0.254 C 
HETATM   33  H   UNL     1      35.962 -10.973   0.501  1.00  0.00     0.280 HD
BRANCH  30  34
HETATM   34  C   UNL     1      39.430 -13.338  -1.531  1.00  0.00     0.036 A 
HETATM   35  C   UNL     1      38.870 -14.277  -2.419  1.00  0.00     0.036 A 
HETATM   36  C   UNL     1      39.659 -15.094  -3.245  1.00  0.00    -0.060 A 
HETATM   37  C   UNL     1      39.031 -16.030  -4.237  1.00  0.00     0.048 C 
HETATM   38  C   UNL     1      41.046 -14.983  -3.181  1.00  0.00     0.007 A 
HETATM   39  C   UNL     1      41.630 -14.067  -2.312  1.00  0.00     0.009 A 
HETATM   40  C   UNL     1      40.841 -13.223  -1.508  1.00  0.00    -0.035 A 
HETATM   41  C   UNL     1      41.573 -12.208  -0.669  1.00  0.00     0.050 C 
ENDBRANCH  30  34
ENDBRANCH  26  27
ENDBRANCH  25  26
ENDBRANCH  24  25
ENDBRANCH   1  24
TORSDOF 7
ENDMDL
MODEL 6
REMARK VINA RESULT:      -9.5      5.429     10.589
REMARK  7 active torsions:
REMARK  status: ('A' for Active; 'I' for Inactive)
REMARK    1  A    between atoms: C_4  and  N_5 
REMARK    2  A    between atoms: N_8  and  C_10 
REMARK    3  A    between atoms: C_10  and  C_11 
REMARK    4  A    between atoms: C_11  and  C_12 
REMARK    5  A    between atoms: C_12  and  N_13 
REMARK       I    between atoms: N_13  and  C_14 
REMARK    6  A    between atoms: C_14  and  C_15 
REMARK    7  A    between atoms: C_21  and  C_22 
ROOT
HETATM    1  N   UNL     1      43.875 -18.837   4.845  1.00  0.00    -0.357 N 
HETATM    2  C   UNL     1      43.584 -19.212   3.548  1.00  0.00     0.251 C 
HETATM    3  O   UNL     1      43.694 -20.385   3.188  1.00  0.00    -0.268 OA
HETATM    4  H   UNL     1      43.694 -17.891   5.161  1.00  0.00     0.162 HD
ENDROOT
BRANCH   2   5
HETATM    5  C   UNL     1      43.003 -18.175   2.646  1.00  0.00     0.034 A 
HETATM    6  C   UNL     1      41.776 -17.547   2.892  1.00  0.00     0.048 A 
HETATM    7  C   UNL     1      41.236 -16.649   1.957  1.00  0.00     0.053 A 
HETATM    8  C   UNL     1      41.922 -16.359   0.779  1.00  0.00     0.032 A 
HETATM    9  N   UNL     1      39.994 -16.081   2.243  1.00  0.00    -0.321 N 
HETATM   10  S   UNL     1      41.289 -15.299  -0.482  1.00  0.00    -0.083 SA
HETATM   11  C   UNL     1      43.167 -16.960   0.555  1.00  0.00     0.022 A 
HETATM   12  C   UNL     1      39.887 -14.604   0.246  1.00  0.00     0.074 C 
HETATM   13  C   UNL     1      39.229 -13.561  -0.301  1.00  0.00     0.036 C 
HETATM   14  C   UNL     1      39.308 -15.155   1.513  1.00  0.00     0.263 C 
HETATM   15  O   UNL     1      38.216 -14.785   1.948  1.00  0.00    -0.267 OA
HETATM   16  C   UNL     1      43.707 -17.858   1.480  1.00  0.00     0.018 A 
HETATM   17  H   UNL     1      39.507 -16.334   3.093  1.00  0.00     0.169 HD
BRANCH  13  18
HETATM   18  C   UNL     1      39.605 -12.854  -1.531  1.00  0.00    -0.035 A 
HETATM   19  C   UNL     1      40.742 -12.039  -1.550  1.00  0.00     0.011 A 
HETATM   20  C   UNL     1      41.092 -11.354  -2.715  1.00  0.00     0.001 A 
HETATM   21  C   UNL     1      40.312 -11.482  -3.863  1.00  0.00     0.000 A 
HETATM   22  C   UNL     1      39.182 -12.299  -3.850  1.00  0.00     0.001 A 
HETATM   23  C   UNL     1      38.829 -12.985  -2.687  1.00  0.00     0.011 A 
ENDBRANCH  13  18
ENDBRANCH   2   5
BRANCH   1  24
HETATM   24  C   UNL     1      44.353 -19.784   5.829  1.00  0.00     0.124 C 
BRANCH  24  25
HETATM   25  C   UNL     1      43.661 -19.626   7.183  1.00  0.00     0.047 C 
BRANCH  25  26
HETATM   26  C   UNL     1      44.135 -18.467   8.061  1.00  0.00     0.236 C 
BRANCH  26  27
HETATM   27  N   UNL     1      43.431 -17.161   7.783  1.00  0.00    -0.068 N 
HETATM   28  C   UNL     1      44.352 -16.115   7.157  1.00  0.00     0.254 C 
HETATM   29  C   UNL     1      43.600 -14.855   6.679  1.00  0.00     0.150 C 
HETATM   30  N   UNL     1      42.479 -15.256   5.819  1.00  0.00    -0.377 N 
HETATM   31  C   UNL     1      41.489 -16.081   6.535  1.00  0.00     0.150 C 
HETATM   32  C   UNL     1      42.171 -17.407   6.933  1.00  0.00     0.254 C 
HETATM   33  H   UNL     1      43.051 -16.816   8.688  1.00  0.00     0.280 HD
BRANCH  30  34
HETATM   34  C   UNL     1      41.974 -14.347   4.881  1.00  0.00     0.036 A 
HETATM   35  C   UNL     1      40.756 -13.672   5.090  1.00  0.00     0.036 A 
HETATM   36  C   UNL     1      40.258 -12.722   4.183  1.00  0.00    -0.060 A 
HETATM   37  C   UNL     1      38.995 -11.963   4.472  1.00  0.00     0.048 C 
HETATM   38  C   UNL     1      40.986 -12.441   3.029  1.00  0.00     0.007 A 
HETATM   39  C   UNL     1      42.191 -13.093   2.793  1.00  0.00     0.009 A 
HETATM   40  C   UNL     1      42.710 -14.020   3.717  1.00  0.00    -0.035 A 
HETATM   41  C   UNL     1      44.064 -14.602   3.405  1.00  0.00     0.050 C 
ENDBRANCH  30  34
ENDBRANCH  26  27
ENDBRANCH  25  26
ENDBRANCH  24  25
ENDBRANCH   1  24
TORSDOF 7
ENDMDL
MODEL 7
REMARK VINA RESULT:      -9.5      4.975      9.344
REMARK  7 active torsions:
REMARK  status: ('A' for Active; 'I' for Inactive)
REMARK    1  A    between atoms: C_4  and  N_5 
REMARK    2  A    between atoms: N_8  and  C_10 
REMARK    3  A    between atoms: C_10  and  C_11 
REMARK    4  A    between atoms: C_11  and  C_12 
REMARK    5  A    between atoms: C_12  and  N_13 
REMARK       I    between atoms: N_13  and  C_14 
REMARK    6  A    between atoms: C_14  and  C_15 
REMARK    7  A    between atoms: C_21  and  C_22 
ROOT
HETATM    1  N   UNL     1      40.421 -11.487   5.157  1.00  0.00    -0.357 N 
HETATM    2  C   UNL     1      39.757 -12.663   5.440  1.00  0.00     0.251 C 
HETATM    3  O   UNL     1      38.580 -12.655   5.804  1.00  0.00    -0.268 OA
HETATM    4  H   UNL     1      41.357 -11.504   4.769  1.00  0.00     0.162 HD
ENDROOT
BRANCH   2   5
HETATM    5  C   UNL     1      40.472 -13.942   5.157  1.00  0.00     0.034 A 
HETATM    6  C   UNL     1      41.164 -14.184   3.963  1.00  0.00     0.048 A 
HETATM    7  C   UNL     1      41.736 -15.443   3.715  1.00  0.00     0.053 A 
HETATM    8  C   UNL     1      41.635 -16.462   4.659  1.00  0.00     0.032 A 
HETATM    9  N   UNL     1      42.383 -15.633   2.494  1.00  0.00    -0.321 N 
HETATM   10  S   UNL     1      42.263 -18.092   4.405  1.00  0.00    -0.083 SA
HETATM   11  C   UNL     1      40.976 -16.204   5.868  1.00  0.00     0.022 A 
HETATM   12  C   UNL     1      43.170 -17.948   2.944  1.00  0.00     0.074 C 
HETATM   13  C   UNL     1      44.002 -18.917   2.510  1.00  0.00     0.036 C 
HETATM   14  C   UNL     1      43.047 -16.743   2.061  1.00  0.00     0.263 C 
HETATM   15  O   UNL     1      43.550 -16.702   0.937  1.00  0.00    -0.267 OA
HETATM   16  C   UNL     1      40.401 -14.955   6.119  1.00  0.00     0.018 A 
HETATM   17  H   UNL     1      42.413 -14.882   1.816  1.00  0.00     0.169 HD
BRANCH  13  18
HETATM   18  C   UNL     1      44.287 -20.181   3.199  1.00  0.00    -0.035 A 
HETATM   19  C   UNL     1      44.260 -21.386   2.491  1.00  0.00     0.011 A 
HETATM   20  C   UNL     1      44.516 -22.591   3.150  1.00  0.00     0.001 A 
HETATM   21  C   UNL     1      44.801 -22.594   4.514  1.00  0.00     0.000 A 
HETATM   22  C   UNL     1      44.835 -21.394   5.223  1.00  0.00     0.001 A 
HETATM   23  C   UNL     1      44.580 -20.189   4.567  1.00  0.00     0.011 A 
ENDBRANCH  13  18
ENDBRANCH   2   5
BRANCH   1  24
HETATM   24  C   UNL     1      39.788 -10.193   5.304  1.00  0.00     0.124 C 
BRANCH  24  25
HETATM   25  C   UNL     1      39.231  -9.657   3.986  1.00  0.00     0.047 C 
BRANCH  25  26
HETATM   26  C   UNL     1      40.087  -9.886   2.739  1.00  0.00     0.236 C 
BRANCH  26  27
HETATM   27  N   UNL     1      39.328 -10.486   1.580  1.00  0.00    -0.068 N 
HETATM   28  C   UNL     1      40.036 -10.280   0.241  1.00  0.00     0.254 C 
HETATM   29  C   UNL     1      39.381 -11.063  -0.917  1.00  0.00     0.150 C 
HETATM   30  N   UNL     1      39.234 -12.471  -0.527  1.00  0.00    -0.377 N 
HETATM   31  C   UNL     1      38.349 -12.642   0.639  1.00  0.00     0.150 C 
HETATM   32  C   UNL     1      39.025 -11.970   1.853  1.00  0.00     0.254 C 
HETATM   33  H   UNL     1      38.386 -10.043   1.565  1.00  0.00     0.280 HD
BRANCH  30  34
HETATM   34  C   UNL     1      39.153 -13.453  -1.522  1.00  0.00     0.036 A 
HETATM   35  C   UNL     1      38.016 -13.580  -2.344  1.00  0.00     0.036 A 
HETATM   36  C   UNL     1      37.936 -14.527  -3.378  1.00  0.00    -0.060 A 
HETATM   37  C   UNL     1      36.742 -14.586  -4.285  1.00  0.00     0.048 C 
HETATM   38  C   UNL     1      39.015 -15.381  -3.597  1.00  0.00     0.007 A 
HETATM   39  C   UNL     1      40.152 -15.283  -2.802  1.00  0.00     0.009 A 
HETATM   40  C   UNL     1      40.247 -14.312  -1.787  1.00  0.00    -0.035 A 
HETATM   41  C   UNL     1      41.556 -14.235  -1.044  1.00  0.00     0.050 C 
ENDBRANCH  30  34
ENDBRANCH  26  27
ENDBRANCH  25  26
ENDBRANCH  24  25
ENDBRANCH   1  24
TORSDOF 7
ENDMDL
MODEL 8
REMARK VINA RESULT:      -9.2      1.742      2.311
REMARK  7 active torsions:
REMARK  status: ('A' for Active; 'I' for Inactive)
REMARK    1  A    between atoms: C_4  and  N_5 
REMARK    2  A    between atoms: N_8  and  C_10 
REMARK    3  A    between atoms: C_10  and  C_11 
REMARK    4  A    between atoms: C_11  and  C_12 
REMARK    5  A    between atoms: C_12  and  N_13 
REMARK       I    between atoms: N_13  and  C_14 
REMARK    6  A    between atoms: C_14  and  C_15 
REMARK    7  A    between atoms: C_21  and  C_22 
ROOT
HETATM    1  N   UNL     1      40.432 -10.949   1.967  1.00  0.00    -0.357 N 
HETATM    2  C   UNL     1      40.520  -9.723   2.596  1.00  0.00     0.251 C 
HETATM    3  O   UNL     1      40.326  -8.677   1.976  1.00  0.00    -0.268 OA
HETATM    4  H   UNL     1      40.500 -11.808   2.499  1.00  0.00     0.162 HD
ENDROOT
BRANCH   2   5
HETATM    5  C   UNL     1      40.722  -9.723   4.074  1.00  0.00     0.034 A 
HETATM    6  C   UNL     1      40.073 -10.616   4.936  1.00  0.00     0.048 A 
HETATM    7  C   UNL     1      40.229 -10.503   6.328  1.00  0.00     0.053 A 
HETATM    8  C   UNL     1      41.045  -9.511   6.868  1.00  0.00     0.032 A 
HETATM    9  N   UNL     1      39.531 -11.401   7.135  1.00  0.00    -0.321 N 
HETATM   10  S   UNL     1      41.246  -9.253   8.602  1.00  0.00    -0.083 SA
HETATM   11  C   UNL     1      41.722  -8.645   6.001  1.00  0.00     0.022 A 
HETATM   12  C   UNL     1      40.457 -10.617   9.305  1.00  0.00     0.074 C 
HETATM   13  C   UNL     1      40.572 -10.926  10.613  1.00  0.00     0.036 C 
HETATM   14  C   UNL     1      39.569 -11.511   8.494  1.00  0.00     0.263 C 
HETATM   15  O   UNL     1      38.865 -12.379   9.013  1.00  0.00    -0.267 OA
HETATM   16  C   UNL     1      41.567  -8.749   4.616  1.00  0.00     0.018 A 
HETATM   17  H   UNL     1      38.923 -12.092   6.713  1.00  0.00     0.169 HD
BRANCH  13  18
HETATM   18  C   UNL     1      41.383 -10.204  11.600  1.00  0.00    -0.035 A 
HETATM   19  C   UNL     1      40.851  -9.096  12.268  1.00  0.00     0.011 A 
HETATM   20  C   UNL     1      41.626  -8.399  13.196  1.00  0.00     0.001 A 
HETATM   21  C   UNL     1      42.933  -8.807  13.462  1.00  0.00     0.000 A 
HETATM   22  C   UNL     1      43.465  -9.914  12.804  1.00  0.00     0.001 A 
HETATM   23  C   UNL     1      42.692 -10.613  11.875  1.00  0.00     0.011 A 
ENDBRANCH  13  18
ENDBRANCH   2   5
BRANCH   1  24
HETATM   24  C   UNL     1      40.143 -11.067   0.553  1.00  0.00     0.124 C 
BRANCH  24  25
HETATM   25  C   UNL     1      40.283 -12.500   0.041  1.00  0.00     0.047 C 
BRANCH  25  26
HETATM   26  C   UNL     1      39.513 -13.577   0.809  1.00  0.00     0.236 C 
BRANCH  26  27
HETATM   27  N   UNL     1      40.140 -14.948   0.730  1.00  0.00    -0.068 N 
HETATM   28  C   UNL     1      41.661 -14.896   0.591  1.00  0.00     0.254 C 
HETATM   29  C   UNL     1      42.328 -16.282   0.717  1.00  0.00     0.150 C 
HETATM   30  N   UNL     1      41.862 -16.933   1.949  1.00  0.00    -0.377 N 
HETATM   31  C   UNL     1      40.409 -17.174   1.941  1.00  0.00     0.150 C 
HETATM   32  C   UNL     1      39.697 -15.805   1.930  1.00  0.00     0.254 C 
HETATM   33  H   UNL     1      39.716 -15.436  -0.086  1.00  0.00     0.280 HD
BRANCH  30  34
HETATM   34  C   UNL     1      42.657 -17.919   2.546  1.00  0.00     0.036 A 
HETATM   35  C   UNL     1      42.860 -19.173   1.936  1.00  0.00     0.036 A 
HETATM   36  C   UNL     1      43.691 -20.156   2.496  1.00  0.00    -0.060 A 
HETATM   37  C   UNL     1      43.948 -21.452   1.783  1.00  0.00     0.048 C 
HETATM   38  C   UNL     1      44.333 -19.892   3.704  1.00  0.00     0.007 A 
HETATM   39  C   UNL     1      44.151 -18.665   4.333  1.00  0.00     0.009 A 
HETATM   40  C   UNL     1      43.346 -17.664   3.756  1.00  0.00    -0.035 A 
HETATM   41  C   UNL     1      43.288 -16.342   4.477  1.00  0.00     0.050 C 
ENDBRANCH  30  34
ENDBRANCH  26  27
ENDBRANCH  25  26
ENDBRANCH  24  25
ENDBRANCH   1  24
TORSDOF 7
ENDMDL
MODEL 9
REMARK VINA RESULT:      -9.2      5.426     11.479
REMARK  7 active torsions:
REMARK  status: ('A' for Active; 'I' for Inactive)
REMARK    1  A    between atoms: C_4  and  N_5 
REMARK    2  A    between atoms: N_8  and  C_10 
REMARK    3  A    between atoms: C_10  and  C_11 
REMARK    4  A    between atoms: C_11  and  C_12 
REMARK    5  A    between atoms: C_12  and  N_13 
REMARK       I    between atoms: N_13  and  C_14 
REMARK    6  A    between atoms: C_14  and  C_15 
REMARK    7  A    between atoms: C_21  and  C_22 
ROOT
HETATM    1  N   UNL     1      41.148 -12.521   2.596  1.00  0.00    -0.357 N 
HETATM    2  C   UNL     1      41.159 -13.450   1.575  1.00  0.00     0.251 C 
HETATM    3  O   UNL     1      41.888 -14.440   1.626  1.00  0.00    -0.268 OA
HETATM    4  H   UNL     1      40.481 -11.759   2.594  1.00  0.00     0.162 HD
ENDROOT
BRANCH   2   5
HETATM    5  C   UNL     1      40.159 -13.278   0.480  1.00  0.00     0.034 A 
HETATM    6  C   UNL     1      39.937 -14.241  -0.513  1.00  0.00     0.048 A 
HETATM    7  C   UNL     1      39.051 -13.981  -1.571  1.00  0.00     0.053 A 
HETATM    8  C   UNL     1      38.370 -12.768  -1.639  1.00  0.00     0.032 A 
HETATM    9  N   UNL     1      38.898 -14.967  -2.547  1.00  0.00    -0.321 N 
HETATM   10  S   UNL     1      37.292 -12.328  -2.967  1.00  0.00    -0.083 SA
HETATM   11  C   UNL     1      38.565 -11.823  -0.624  1.00  0.00     0.022 A 
HETATM   12  C   UNL     1      37.146 -13.794  -3.866  1.00  0.00     0.074 C 
HETATM   13  C   UNL     1      36.229 -13.957  -4.842  1.00  0.00     0.036 C 
HETATM   14  C   UNL     1      38.064 -14.954  -3.627  1.00  0.00     0.263 C 
HETATM   15  O   UNL     1      38.087 -15.935  -4.372  1.00  0.00    -0.267 OA
HETATM   16  C   UNL     1      39.449 -12.074   0.429  1.00  0.00     0.018 A 
HETATM   17  H   UNL     1      39.429 -15.826  -2.485  1.00  0.00     0.169 HD
BRANCH  13  18
HETATM   18  C   UNL     1      35.225 -12.968  -5.253  1.00  0.00    -0.035 A 
HETATM   19  C   UNL     1      35.490 -12.105  -6.322  1.00  0.00     0.011 A 
HETATM   20  C   UNL     1      34.542 -11.155  -6.705  1.00  0.00     0.001 A 
HETATM   21  C   UNL     1      33.328 -11.064  -6.025  1.00  0.00     0.000 A 
HETATM   22  C   UNL     1      33.058 -11.927  -4.964  1.00  0.00     0.001 A 
HETATM   23  C   UNL     1      34.003 -12.878  -4.578  1.00  0.00     0.011 A 
ENDBRANCH  13  18
ENDBRANCH   2   5
BRANCH   1  24
HETATM   24  C   UNL     1      42.010 -12.643   3.753  1.00  0.00     0.124 C 
BRANCH  24  25
HETATM   25  C   UNL     1      41.305 -13.285   4.947  1.00  0.00     0.047 C 
BRANCH  25  26
HETATM   26  C   UNL     1      42.196 -13.732   6.107  1.00  0.00     0.236 C 
BRANCH  26  27
HETATM   27  N   UNL     1      42.402 -15.226   6.177  1.00  0.00    -0.068 N 
HETATM   28  C   UNL     1      41.496 -15.993   5.215  1.00  0.00     0.254 C 
HETATM   29  C   UNL     1      41.840 -17.496   5.128  1.00  0.00     0.150 C 
HETATM   30  N   UNL     1      43.274 -17.649   4.850  1.00  0.00    -0.377 N 
HETATM   31  C   UNL     1      44.116 -17.095   5.924  1.00  0.00     0.150 C 
HETATM   32  C   UNL     1      43.889 -15.569   5.971  1.00  0.00     0.254 C 
HETATM   33  H   UNL     1      42.219 -15.518   7.160  1.00  0.00     0.280 HD
BRANCH  30  34
HETATM   34  C   UNL     1      43.732 -18.822   4.238  1.00  0.00     0.036 A 
HETATM   35  C   UNL     1      44.236 -19.900   4.992  1.00  0.00     0.036 A 
HETATM   36  C   UNL     1      44.655 -21.102   4.399  1.00  0.00    -0.060 A 
HETATM   37  C   UNL     1      45.115 -22.259   5.236  1.00  0.00     0.048 C 
HETATM   38  C   UNL     1      44.582 -21.234   3.014  1.00  0.00     0.007 A 
HETATM   39  C   UNL     1      44.091 -20.188   2.241  1.00  0.00     0.009 A 
HETATM   40  C   UNL     1      43.638 -18.995   2.836  1.00  0.00    -0.035 A 
HETATM   41  C   UNL     1      43.045 -17.962   1.914  1.00  0.00     0.050 C 
ENDBRANCH  30  34
ENDBRANCH  26  27
ENDBRANCH  25  26
ENDBRANCH  24  25
ENDBRANCH   1  24
TORSDOF 7
ENDMDL
MODEL 10
REMARK VINA RESULT:      -9.2      2.024      3.098
REMARK  7 active torsions:
REMARK  status: ('A' for Active; 'I' for Inactive)
REMARK    1  A    between atoms: C_4  and  N_5 
REMARK    2  A    between atoms: N_8  and  C_10 
REMARK    3  A    between atoms: C_10  and  C_11 
REMARK    4  A    between atoms: C_11  and  C_12 
REMARK    5  A    between atoms: C_12  and  N_13 
REMARK       I    between atoms: N_13  and  C_14 
REMARK    6  A    between atoms: C_14  and  C_15 
REMARK    7  A    between atoms: C_21  and  C_22 
ROOT
HETATM    1  N   UNL     1      39.101 -12.168   2.602  1.00  0.00    -0.357 N 
HETATM    2  C   UNL     1      40.401 -12.002   3.037  1.00  0.00     0.251 C 
HETATM    3  O   UNL     1      41.344 -12.046   2.246  1.00  0.00    -0.268 OA
HETATM    4  H   UNL     1      38.324 -12.038   3.239  1.00  0.00     0.162 HD
ENDROOT
BRANCH   2   5
HETATM    5  C   UNL     1      40.605 -11.632   4.468  1.00  0.00     0.034 A 
HETATM    6  C   UNL     1      39.841 -10.659   5.124  1.00  0.00     0.048 A 
HETATM    7  C   UNL     1      40.144 -10.286   6.444  1.00  0.00     0.053 A 
HETATM    8  C   UNL     1      41.199 -10.891   7.123  1.00  0.00     0.032 A 
HETATM    9  N   UNL     1      39.367  -9.286   7.031  1.00  0.00    -0.321 N 
HETATM   10  S   UNL     1      41.694 -10.438   8.756  1.00  0.00    -0.083 SA
HETATM   11  C   UNL     1      41.936 -11.891   6.477  1.00  0.00     0.022 A 
HETATM   12  C   UNL     1      40.441  -9.369   9.272  1.00  0.00     0.074 C 
HETATM   13  C   UNL     1      40.316  -8.966  10.553  1.00  0.00     0.036 C 
HETATM   14  C   UNL     1      39.446  -8.804   8.305  1.00  0.00     0.263 C 
HETATM   15  O   UNL     1      38.660  -7.910   8.623  1.00  0.00    -0.267 OA
HETATM   16  C   UNL     1      41.642 -12.263   5.162  1.00  0.00     0.018 A 
HETATM   17  H   UNL     1      38.626  -8.845   6.501  1.00  0.00     0.169 HD
BRANCH  13  18
HETATM   18  C   UNL     1      41.165  -9.384  11.675  1.00  0.00    -0.035 A 
HETATM   19  C   UNL     1      42.469  -8.891  11.787  1.00  0.00     0.011 A 
HETATM   20  C   UNL     1      43.284  -9.300  12.845  1.00  0.00     0.001 A 
HETATM   21  C   UNL     1      42.798 -10.198  13.794  1.00  0.00     0.000 A 
HETATM   22  C   UNL     1      41.497 -10.687  13.690  1.00  0.00     0.001 A 
HETATM   23  C   UNL     1      40.680 -10.280  12.633  1.00  0.00     0.011 A 
ENDBRANCH  13  18
ENDBRANCH   2   5
BRANCH   1  24
HETATM   24  C   UNL     1      38.783 -12.435   1.215  1.00  0.00     0.124 C 
BRANCH  24  25
HETATM   25  C   UNL     1      38.585 -13.924   0.932  1.00  0.00     0.047 C 
BRANCH  25  26
HETATM   26  C   UNL     1      39.819 -14.702   0.473  1.00  0.00     0.236 C 
BRANCH  26  27
HETATM   27  N   UNL     1      40.817 -14.968   1.574  1.00  0.00    -0.068 N 
HETATM   28  C   UNL     1      40.255 -15.862   2.679  1.00  0.00     0.254 C 
HETATM   29  C   UNL     1      41.323 -16.308   3.700  1.00  0.00     0.150 C 
HETATM   30  N   UNL     1      42.465 -16.891   2.982  1.00  0.00    -0.377 N 
HETATM   31  C   UNL     1      43.124 -15.918   2.093  1.00  0.00     0.150 C 
HETATM   32  C   UNL     1      42.124 -15.530   0.984  1.00  0.00     0.254 C 
HETATM   33  H   UNL     1      41.102 -14.045   1.963  1.00  0.00     0.280 HD
BRANCH  30  34
HETATM   34  C   UNL     1      43.299 -17.799   3.644  1.00  0.00     0.036 A 
HETATM   35  C   UNL     1      43.843 -17.513   4.911  1.00  0.00     0.036 A 
HETATM   36  C   UNL     1      44.643 -18.431   5.611  1.00  0.00    -0.060 A 
HETATM   37  C   UNL     1      45.144 -18.127   6.993  1.00  0.00     0.048 C 
HETATM   38  C   UNL     1      44.921 -19.667   5.030  1.00  0.00     0.007 A 
HETATM   39  C   UNL     1      44.400 -19.979   3.779  1.00  0.00     0.009 A 
HETATM   40  C   UNL     1      43.570 -19.074   3.091  1.00  0.00    -0.035 A 
HETATM   41  C   UNL     1      42.990 -19.547   1.783  1.00  0.00     0.050 C 
ENDBRANCH  30  34
ENDBRANCH  26  27
ENDBRANCH  25  26
ENDBRANCH  24  25
ENDBRANCH   1  24
TORSDOF 7
ENDMDL
