MODEL 1
REMARK VINA RESULT:      -9.3      0.000      0.000
REMARK  3 active torsions:
REMARK  status: ('A' for Active; 'I' for Inactive)
REMARK    1  A    between atoms: N_12  and  C_13 
REMARK    2  A    between atoms: C_13  and  C_14 
REMARK       I    between atoms: C_14  and  N_15 
REMARK    3  A    between atoms: N_15  and  C_16 
ROOT
HETATM    1  C   UNL     1      42.449 -10.489  -5.013  1.00  0.00     0.048 C 
HETATM    2  C   UNL     1      42.468 -10.556  -3.513  1.00  0.00    -0.061 A 
HETATM    3  C   UNL     1      42.167 -11.756  -2.849  1.00  0.00     0.021 A 
HETATM    4  C   UNL     1      42.194 -11.804  -1.440  1.00  0.00     0.005 A 
HETATM    5  C   UNL     1      42.524 -10.643  -0.732  1.00  0.00     0.044 A 
HETATM    6  N   UNL     1      42.485 -10.952   0.613  1.00  0.00    -0.350 N 
HETATM    7  H   UNL     1      42.687 -10.311   1.371  1.00  0.00     0.166 HD
HETATM    8  C   UNL     1      42.144 -12.265   0.770  1.00  0.00     0.116 A 
HETATM    9  C   UNL     1      41.960 -12.812  -0.474  1.00  0.00     0.028 A 
HETATM   10  C   UNL     1      41.999 -13.009   1.988  1.00  0.00     0.291 A 
HETATM   11  O   UNL     1      42.189 -12.518   3.096  1.00  0.00    -0.264 OA
HETATM   12  N   UNL     1      41.605 -14.343   1.767  1.00  0.00    -0.224 N 
HETATM   13  N   UNL     1      41.445 -14.926   0.491  1.00  0.00    -0.180 NA
HETATM   14  C   UNL     1      41.606 -14.198  -0.576  1.00  0.00     0.153 A 
HETATM   15  C   UNL     1      42.826  -9.436  -1.371  1.00  0.00     0.031 A 
HETATM   16  C   UNL     1      42.792  -9.416  -2.770  1.00  0.00     0.009 A 
ENDROOT
BRANCH  12  17
HETATM   17  C   UNL     1      41.561 -15.257   2.898  1.00  0.00     0.258 C 
BRANCH  17  18
HETATM   18  C   UNL     1      42.663 -16.310   3.109  1.00  0.00     0.244 C 
HETATM   19  N   UNL     1      42.439 -17.439   3.899  1.00  0.00    -0.320 N 
HETATM   20  C   UNL     1      41.176 -17.742   4.564  1.00  0.00     0.159 C 
HETATM   21  O   UNL     1      43.702 -16.172   2.445  1.00  0.00    -0.271 OA
BRANCH  19  22
HETATM   22  C   UNL     1      43.383 -18.514   3.879  1.00  0.00     0.043 A 
HETATM   23  C   UNL     1      44.309 -18.702   4.923  1.00  0.00    -0.035 A 
HETATM   24  C   UNL     1      44.482 -17.712   6.040  1.00  0.00     0.050 C 
HETATM   25  C   UNL     1      45.116 -19.852   4.913  1.00  0.00     0.009 A 
HETATM   26  C   UNL     1      45.029 -20.784   3.877  1.00  0.00     0.007 A 
HETATM   27  C   UNL     1      44.143 -20.582   2.818  1.00  0.00    -0.060 A 
HETATM   28  C   UNL     1      44.012 -21.591   1.717  1.00  0.00     0.048 C 
HETATM   29  C   UNL     1      43.325 -19.446   2.829  1.00  0.00     0.037 A 
ENDBRANCH  19  22
ENDBRANCH  17  18
ENDBRANCH  12  17
TORSDOF 3
ENDMDL
MODEL 2
REMARK VINA RESULT:      -9.3      7.260     10.001
REMARK  3 active torsions:
REMARK  status: ('A' for Active; 'I' for Inactive)
REMARK    1  A    between atoms: N_12  and  C_13 
REMARK    2  A    between atoms: C_13  and  C_14 
REMARK       I    between atoms: C_14  and  N_15 
REMARK    3  A    between atoms: N_15  and  C_16 
ROOT
HETATM    1  C   UNL     1      42.086  -9.516  15.856  1.00  0.00     0.048 C 
HETATM    2  C   UNL     1      42.028  -9.586  14.357  1.00  0.00    -0.061 A 
HETATM    3  C   UNL     1      42.835 -10.494  13.653  1.00  0.00     0.021 A 
HETATM    4  C   UNL     1      42.764 -10.550  12.246  1.00  0.00     0.005 A 
HETATM    5  C   UNL     1      41.882  -9.692  11.580  1.00  0.00     0.044 A 
HETATM    6  N   UNL     1      41.998  -9.946  10.227  1.00  0.00    -0.350 N 
HETATM    7  H   UNL     1      41.475  -9.482   9.494  1.00  0.00     0.166 HD
HETATM    8  C   UNL     1      42.920 -10.932  10.026  1.00  0.00     0.116 A 
HETATM    9  C   UNL     1      43.406 -11.322  11.247  1.00  0.00     0.028 A 
HETATM   10  C   UNL     1      43.345 -11.516   8.786  1.00  0.00     0.291 A 
HETATM   11  O   UNL     1      42.887 -11.179   7.699  1.00  0.00    -0.264 OA
HETATM   12  N   UNL     1      44.342 -12.496   8.959  1.00  0.00    -0.224 N 
HETATM   13  N   UNL     1      44.825 -12.928  10.212  1.00  0.00    -0.180 NA
HETATM   14  C   UNL     1      44.387 -12.367  11.302  1.00  0.00     0.153 A 
HETATM   15  C   UNL     1      41.069  -8.779  12.259  1.00  0.00     0.031 A 
HETATM   16  C   UNL     1      41.159  -8.743  13.656  1.00  0.00     0.009 A 
ENDROOT
BRANCH  12  17
HETATM   17  C   UNL     1      44.764 -13.277   7.806  1.00  0.00     0.258 C 
BRANCH  17  18
HETATM   18  C   UNL     1      44.032 -14.573   7.417  1.00  0.00     0.244 C 
HETATM   19  N   UNL     1      43.552 -14.768   6.120  1.00  0.00    -0.320 N 
HETATM   20  C   UNL     1      43.709 -13.810   5.031  1.00  0.00     0.159 C 
HETATM   21  O   UNL     1      44.005 -15.476   8.267  1.00  0.00    -0.271 OA
BRANCH  19  22
HETATM   22  C   UNL     1      43.101 -16.066   5.722  1.00  0.00     0.043 A 
HETATM   23  C   UNL     1      41.734 -16.346   5.532  1.00  0.00    -0.035 A 
HETATM   24  C   UNL     1      40.650 -15.365   5.884  1.00  0.00     0.050 C 
HETATM   25  C   UNL     1      41.364 -17.596   5.009  1.00  0.00     0.009 A 
HETATM   26  C   UNL     1      42.326 -18.562   4.705  1.00  0.00     0.007 A 
HETATM   27  C   UNL     1      43.679 -18.306   4.931  1.00  0.00    -0.060 A 
HETATM   28  C   UNL     1      44.727 -19.319   4.576  1.00  0.00     0.048 C 
HETATM   29  C   UNL     1      44.056 -17.057   5.438  1.00  0.00     0.037 A 
ENDBRANCH  19  22
ENDBRANCH  17  18
ENDBRANCH  12  17
TORSDOF 3
ENDMDL
MODEL 3
REMARK VINA RESULT:      -9.3      3.000      8.829
REMARK  3 active torsions:
REMARK  status: ('A' for Active; 'I' for Inactive)
REMARK    1  A    between atoms: N_12  and  C_13 
REMARK    2  A    between atoms: C_13  and  C_14 
REMARK       I    between atoms: C_14  and  N_15 
REMARK    3  A    between atoms: N_15  and  C_16 
ROOT
HETATM    1  C   UNL     1      44.671 -22.019   1.948  1.00  0.00     0.048 C 
HETATM    2  C   UNL     1      44.263 -20.761   2.657  1.00  0.00    -0.061 A 
HETATM    3  C   UNL     1      43.320 -19.892   2.084  1.00  0.00     0.021 A 
HETATM    4  C   UNL     1      42.944 -18.716   2.766  1.00  0.00     0.005 A 
HETATM    5  C   UNL     1      43.525 -18.443   4.008  1.00  0.00     0.044 A 
HETATM    6  N   UNL     1      42.991 -17.253   4.463  1.00  0.00    -0.350 N 
HETATM    7  H   UNL     1      43.217 -16.803   5.342  1.00  0.00     0.166 HD
HETATM    8  C   UNL     1      42.097 -16.775   3.548  1.00  0.00     0.116 A 
HETATM    9  C   UNL     1      42.048 -17.653   2.497  1.00  0.00     0.028 A 
HETATM   10  C   UNL     1      41.305 -15.581   3.615  1.00  0.00     0.291 A 
HETATM   11  O   UNL     1      41.337 -14.813   4.571  1.00  0.00    -0.264 OA
HETATM   12  N   UNL     1      40.509 -15.390   2.469  1.00  0.00    -0.224 N 
HETATM   13  N   UNL     1      40.426 -16.304   1.396  1.00  0.00    -0.180 NA
HETATM   14  C   UNL     1      41.161 -17.378   1.403  1.00  0.00     0.153 A 
HETATM   15  C   UNL     1      44.467 -19.291   4.600  1.00  0.00     0.031 A 
HETATM   16  C   UNL     1      44.823 -20.452   3.901  1.00  0.00     0.009 A 
ENDROOT
BRANCH  12  17
HETATM   17  C   UNL     1      39.545 -14.301   2.458  1.00  0.00     0.258 C 
BRANCH  17  18
HETATM   18  C   UNL     1      38.674 -14.026   1.220  1.00  0.00     0.244 C 
HETATM   19  N   UNL     1      39.183 -13.332   0.121  1.00  0.00    -0.320 N 
HETATM   20  C   UNL     1      40.551 -12.834   0.022  1.00  0.00     0.159 C 
HETATM   21  O   UNL     1      37.553 -14.558   1.196  1.00  0.00    -0.271 OA
BRANCH  19  22
HETATM   22  C   UNL     1      38.442 -13.305  -1.103  1.00  0.00     0.043 A 
HETATM   23  C   UNL     1      37.629 -12.209  -1.448  1.00  0.00    -0.035 A 
HETATM   24  C   UNL     1      37.354 -11.074  -0.502  1.00  0.00     0.050 C 
HETATM   25  C   UNL     1      37.035 -12.181  -2.722  1.00  0.00     0.009 A 
HETATM   26  C   UNL     1      37.221 -13.229  -3.626  1.00  0.00     0.007 A 
HETATM   27  C   UNL     1      37.991 -14.337  -3.273  1.00  0.00    -0.060 A 
HETATM   28  C   UNL     1      38.229 -15.454  -4.245  1.00  0.00     0.048 C 
HETATM   29  C   UNL     1      38.597 -14.366  -2.011  1.00  0.00     0.037 A 
ENDBRANCH  19  22
ENDBRANCH  17  18
ENDBRANCH  12  17
TORSDOF 3
ENDMDL
MODEL 4
REMARK VINA RESULT:      -9.0      2.925      8.930
REMARK  3 active torsions:
REMARK  status: ('A' for Active; 'I' for Inactive)
REMARK    1  A    between atoms: N_12  and  C_13 
REMARK    2  A    between atoms: C_13  and  C_14 
REMARK       I    between atoms: C_14  and  N_15 
REMARK    3  A    between atoms: N_15  and  C_16 
ROOT
HETATM    1  C   UNL     1      44.602 -22.169   2.424  1.00  0.00     0.048 C 
HETATM    2  C   UNL     1      44.341 -20.754   2.854  1.00  0.00    -0.061 A 
HETATM    3  C   UNL     1      43.722 -19.845   1.981  1.00  0.00     0.021 A 
HETATM    4  C   UNL     1      43.479 -18.522   2.403  1.00  0.00     0.005 A 
HETATM    5  C   UNL     1      43.865 -18.144   3.693  1.00  0.00     0.044 A 
HETATM    6  N   UNL     1      43.516 -16.818   3.860  1.00  0.00    -0.350 N 
HETATM    7  H   UNL     1      43.664 -16.271   4.699  1.00  0.00     0.166 HD
HETATM    8  C   UNL     1      42.926 -16.355   2.719  1.00  0.00     0.116 A 
HETATM    9  C   UNL     1      42.889 -17.380   1.808  1.00  0.00     0.028 A 
HETATM   10  C   UNL     1      42.401 -15.047   2.454  1.00  0.00     0.291 A 
HETATM   11  O   UNL     1      42.415 -14.143   3.283  1.00  0.00    -0.264 OA
HETATM   12  N   UNL     1      41.888 -14.920   1.148  1.00  0.00    -0.224 N 
HETATM   13  N   UNL     1      41.816 -15.976   0.215  1.00  0.00    -0.180 NA
HETATM   14  C   UNL     1      42.297 -17.145   0.523  1.00  0.00     0.153 A 
HETATM   15  C   UNL     1      44.484 -19.031   4.581  1.00  0.00     0.031 A 
HETATM   16  C   UNL     1      44.713 -20.339   4.137  1.00  0.00     0.009 A 
ENDROOT
BRANCH  12  17
HETATM   17  C   UNL     1      41.190 -13.696   0.786  1.00  0.00     0.258 C 
BRANCH  17  18
HETATM   18  C   UNL     1      40.016 -13.718  -0.208  1.00  0.00     0.244 C 
HETATM   19  N   UNL     1      40.198 -13.369  -1.547  1.00  0.00    -0.320 N 
HETATM   20  C   UNL     1      41.478 -12.984  -2.132  1.00  0.00     0.159 C 
HETATM   21  O   UNL     1      38.942 -14.181   0.208  1.00  0.00    -0.271 OA
BRANCH  19  22
HETATM   22  C   UNL     1      39.158 -13.633  -2.494  1.00  0.00     0.043 A 
HETATM   23  C   UNL     1      39.095 -14.849  -3.200  1.00  0.00    -0.035 A 
HETATM   24  C   UNL     1      40.187 -15.881  -3.136  1.00  0.00     0.050 C 
HETATM   25  C   UNL     1      37.977 -15.105  -4.011  1.00  0.00     0.009 A 
HETATM   26  C   UNL     1      36.952 -14.165  -4.142  1.00  0.00     0.007 A 
HETATM   27  C   UNL     1      37.029 -12.941  -3.478  1.00  0.00    -0.060 A 
HETATM   28  C   UNL     1      35.922 -11.935  -3.580  1.00  0.00     0.048 C 
HETATM   29  C   UNL     1      38.134 -12.685  -2.656  1.00  0.00     0.037 A 
ENDBRANCH  19  22
ENDBRANCH  17  18
ENDBRANCH  12  17
TORSDOF 3
ENDMDL
MODEL 5
REMARK VINA RESULT:      -8.6      3.848      5.686
REMARK  3 active torsions:
REMARK  status: ('A' for Active; 'I' for Inactive)
REMARK    1  A    between atoms: N_12  and  C_13 
REMARK    2  A    between atoms: C_13  and  C_14 
REMARK       I    between atoms: C_14  and  N_15 
REMARK    3  A    between atoms: N_15  and  C_16 
ROOT
HETATM    1  C   UNL     1      38.729  -9.810   9.286  1.00  0.00     0.048 C 
HETATM    2  C   UNL     1      39.624 -10.116   8.120  1.00  0.00    -0.061 A 
HETATM    3  C   UNL     1      39.580 -11.374   7.497  1.00  0.00     0.021 A 
HETATM    4  C   UNL     1      40.424 -11.643   6.400  1.00  0.00     0.005 A 
HETATM    5  C   UNL     1      41.291 -10.640   5.955  1.00  0.00     0.044 A 
HETATM    6  N   UNL     1      41.995 -11.148   4.880  1.00  0.00    -0.350 N 
HETATM    7  H   UNL     1      42.693 -10.647   4.343  1.00  0.00     0.166 HD
HETATM    8  C   UNL     1      41.597 -12.431   4.638  1.00  0.00     0.116 A 
HETATM    9  C   UNL     1      40.633 -12.761   5.556  1.00  0.00     0.028 A 
HETATM   10  C   UNL     1      42.051 -13.329   3.616  1.00  0.00     0.291 A 
HETATM   11  O   UNL     1      42.896 -13.017   2.784  1.00  0.00    -0.264 OA
HETATM   12  N   UNL     1      41.434 -14.593   3.688  1.00  0.00    -0.224 N 
HETATM   13  N   UNL     1      40.418 -14.932   4.606  1.00  0.00    -0.180 NA
HETATM   14  C   UNL     1      40.040 -14.066   5.501  1.00  0.00     0.153 A 
HETATM   15  C   UNL     1      41.354  -9.380   6.558  1.00  0.00     0.031 A 
HETATM   16  C   UNL     1      40.506  -9.139   7.646  1.00  0.00     0.009 A 
ENDROOT
BRANCH  12  17
HETATM   17  C   UNL     1      41.687 -15.557   2.628  1.00  0.00     0.258 C 
BRANCH  17  18
HETATM   18  C   UNL     1      42.759 -16.649   2.789  1.00  0.00     0.244 C 
HETATM   19  N   UNL     1      42.574 -17.716   3.670  1.00  0.00    -0.320 N 
HETATM   20  C   UNL     1      41.378 -17.917   4.481  1.00  0.00     0.159 C 
HETATM   21  O   UNL     1      43.726 -16.601   2.012  1.00  0.00    -0.271 OA
BRANCH  19  22
HETATM   22  C   UNL     1      43.463 -18.836   3.619  1.00  0.00     0.043 A 
HETATM   23  C   UNL     1      44.384 -19.093   4.652  1.00  0.00    -0.035 A 
HETATM   24  C   UNL     1      44.612 -18.138   5.791  1.00  0.00     0.050 C 
HETATM   25  C   UNL     1      45.133 -20.281   4.612  1.00  0.00     0.009 A 
HETATM   26  C   UNL     1      44.994 -21.184   3.556  1.00  0.00     0.007 A 
HETATM   27  C   UNL     1      44.115 -20.914   2.508  1.00  0.00    -0.060 A 
HETATM   28  C   UNL     1      43.927 -21.890   1.385  1.00  0.00     0.048 C 
HETATM   29  C   UNL     1      43.354 -19.740   2.549  1.00  0.00     0.037 A 
ENDBRANCH  19  22
ENDBRANCH  17  18
ENDBRANCH  12  17
TORSDOF 3
ENDMDL
MODEL 6
REMARK VINA RESULT:      -8.6      2.569      9.104
REMARK  3 active torsions:
REMARK  status: ('A' for Active; 'I' for Inactive)
REMARK    1  A    between atoms: N_12  and  C_13 
REMARK    2  A    between atoms: C_13  and  C_14 
REMARK       I    between atoms: C_14  and  N_15 
REMARK    3  A    between atoms: N_15  and  C_16 
ROOT
HETATM    1  C   UNL     1      45.227 -22.268   5.420  1.00  0.00     0.048 C 
HETATM    2  C   UNL     1      44.662 -21.489   4.269  1.00  0.00    -0.061 A 
HETATM    3  C   UNL     1      44.287 -20.145   4.432  1.00  0.00     0.021 A 
HETATM    4  C   UNL     1      43.762 -19.426   3.338  1.00  0.00     0.005 A 
HETATM    5  C   UNL     1      43.628 -20.075   2.106  1.00  0.00     0.044 A 
HETATM    6  N   UNL     1      43.104 -19.162   1.212  1.00  0.00    -0.350 N 
HETATM    7  H   UNL     1      42.903 -19.343   0.236  1.00  0.00     0.166 HD
HETATM    8  C   UNL     1      42.907 -17.967   1.841  1.00  0.00     0.116 A 
HETATM    9  C   UNL     1      43.303 -18.099   3.148  1.00  0.00     0.028 A 
HETATM   10  C   UNL     1      42.395 -16.744   1.294  1.00  0.00     0.291 A 
HETATM   11  O   UNL     1      42.065 -16.627   0.118  1.00  0.00    -0.264 OA
HETATM   12  N   UNL     1      42.302 -15.715   2.252  1.00  0.00    -0.224 N 
HETATM   13  N   UNL     1      42.737 -15.831   3.589  1.00  0.00    -0.180 NA
HETATM   14  C   UNL     1      43.207 -16.965   4.020  1.00  0.00     0.153 A 
HETATM   15  C   UNL     1      43.994 -21.412   1.919  1.00  0.00     0.031 A 
HETATM   16  C   UNL     1      44.511 -22.103   3.021  1.00  0.00     0.009 A 
ENDROOT
BRANCH  12  17
HETATM   17  C   UNL     1      41.938 -14.378   1.810  1.00  0.00     0.258 C 
BRANCH  17  18
HETATM   18  C   UNL     1      40.691 -14.142   0.941  1.00  0.00     0.244 C 
HETATM   19  N   UNL     1      40.789 -13.529  -0.310  1.00  0.00    -0.320 N 
HETATM   20  C   UNL     1      42.041 -13.086  -0.914  1.00  0.00     0.159 C 
HETATM   21  O   UNL     1      39.627 -14.636   1.347  1.00  0.00    -0.271 OA
BRANCH  19  22
HETATM   22  C   UNL     1      39.664 -13.546  -1.194  1.00  0.00     0.043 A 
HETATM   23  C   UNL     1      38.723 -12.499  -1.209  1.00  0.00    -0.035 A 
HETATM   24  C   UNL     1      38.737 -11.383  -0.203  1.00  0.00     0.050 C 
HETATM   25  C   UNL     1      37.719 -12.505  -2.193  1.00  0.00     0.009 A 
HETATM   26  C   UNL     1      37.632 -13.540  -3.126  1.00  0.00     0.007 A 
HETATM   27  C   UNL     1      38.537 -14.601  -3.090  1.00  0.00    -0.060 A 
HETATM   28  C   UNL     1      38.479 -15.701  -4.107  1.00  0.00     0.048 C 
HETATM   29  C   UNL     1      39.549 -14.594  -2.122  1.00  0.00     0.037 A 
ENDBRANCH  19  22
ENDBRANCH  17  18
ENDBRANCH  12  17
TORSDOF 3
ENDMDL
MODEL 7
REMARK VINA RESULT:      -8.6      2.846      8.870
REMARK  3 active torsions:
REMARK  status: ('A' for Active; 'I' for Inactive)
REMARK    1  A    between atoms: N_12  and  C_13 
REMARK    2  A    between atoms: C_13  and  C_14 
REMARK       I    between atoms: C_14  and  N_15 
REMARK    3  A    between atoms: N_15  and  C_16 
ROOT
HETATM    1  C   UNL     1      44.442 -21.963   1.792  1.00  0.00     0.048 C 
HETATM    2  C   UNL     1      44.357 -20.826   2.768  1.00  0.00    -0.061 A 
HETATM    3  C   UNL     1      43.836 -19.583   2.371  1.00  0.00     0.021 A 
HETATM    4  C   UNL     1      43.758 -18.526   3.302  1.00  0.00     0.005 A 
HETATM    5  C   UNL     1      44.204 -18.745   4.610  1.00  0.00     0.044 A 
HETATM    6  N   UNL     1      44.017 -17.572   5.314  1.00  0.00    -0.350 N 
HETATM    7  H   UNL     1      44.240 -17.429   6.291  1.00  0.00     0.166 HD
HETATM    8  C   UNL     1      43.469 -16.629   4.492  1.00  0.00     0.116 A 
HETATM    9  C   UNL     1      43.299 -17.187   3.251  1.00  0.00     0.028 A 
HETATM   10  C   UNL     1      43.098 -15.279   4.806  1.00  0.00     0.291 A 
HETATM   11  O   UNL     1      43.231 -14.794   5.924  1.00  0.00    -0.264 OA
HETATM   12  N   UNL     1      42.586 -14.582   3.694  1.00  0.00    -0.224 N 
HETATM   13  N   UNL     1      42.376 -15.157   2.422  1.00  0.00    -0.180 NA
HETATM   14  C   UNL     1      42.720 -16.394   2.206  1.00  0.00     0.153 A 
HETATM   15  C   UNL     1      44.726 -19.973   5.029  1.00  0.00     0.031 A 
HETATM   16  C   UNL     1      44.793 -21.005   4.085  1.00  0.00     0.009 A 
ENDROOT
BRANCH  12  17
HETATM   17  C   UNL     1      42.032 -13.252   3.895  1.00  0.00     0.258 C 
BRANCH  17  18
HETATM   18  C   UNL     1      40.631 -12.891   3.374  1.00  0.00     0.244 C 
HETATM   19  N   UNL     1      40.466 -12.160   2.195  1.00  0.00    -0.320 N 
HETATM   20  C   UNL     1      41.563 -11.701   1.350  1.00  0.00     0.159 C 
HETATM   21  O   UNL     1      39.666 -13.386   3.978  1.00  0.00    -0.271 OA
BRANCH  19  22
HETATM   22  C   UNL     1      39.165 -12.052   1.608  1.00  0.00     0.043 A 
HETATM   23  C   UNL     1      38.647 -13.059   0.772  1.00  0.00    -0.035 A 
HETATM   24  C   UNL     1      39.469 -14.230   0.309  1.00  0.00     0.050 C 
HETATM   25  C   UNL     1      37.315 -12.960   0.338  1.00  0.00     0.009 A 
HETATM   26  C   UNL     1      36.518 -11.873   0.701  1.00  0.00     0.007 A 
HETATM   27  C   UNL     1      37.039 -10.850   1.495  1.00  0.00    -0.060 A 
HETATM   28  C   UNL     1      36.186  -9.694   1.923  1.00  0.00     0.048 C 
HETATM   29  C   UNL     1      38.362 -10.949   1.944  1.00  0.00     0.037 A 
ENDBRANCH  19  22
ENDBRANCH  17  18
ENDBRANCH  12  17
TORSDOF 3
ENDMDL
MODEL 8
REMARK VINA RESULT:      -8.4      2.620      9.166
REMARK  3 active torsions:
REMARK  status: ('A' for Active; 'I' for Inactive)
REMARK    1  A    between atoms: N_12  and  C_13 
REMARK    2  A    between atoms: C_13  and  C_14 
REMARK       I    between atoms: C_14  and  N_15 
REMARK    3  A    between atoms: N_15  and  C_16 
ROOT
HETATM    1  C   UNL     1      45.155 -22.609   5.160  1.00  0.00     0.048 C 
HETATM    2  C   UNL     1      44.652 -21.591   4.179  1.00  0.00    -0.061 A 
HETATM    3  C   UNL     1      44.418 -20.266   4.582  1.00  0.00     0.021 A 
HETATM    4  C   UNL     1      43.951 -19.320   3.646  1.00  0.00     0.005 A 
HETATM    5  C   UNL     1      43.732 -19.730   2.326  1.00  0.00     0.044 A 
HETATM    6  N   UNL     1      43.289 -18.629   1.618  1.00  0.00    -0.350 N 
HETATM    7  H   UNL     1      43.055 -18.617   0.633  1.00  0.00     0.166 HD
HETATM    8  C   UNL     1      43.223 -17.548   2.450  1.00  0.00     0.116 A 
HETATM    9  C   UNL     1      43.625 -17.943   3.700  1.00  0.00     0.028 A 
HETATM   10  C   UNL     1      42.828 -16.205   2.137  1.00  0.00     0.291 A 
HETATM   11  O   UNL     1      42.494 -15.854   1.011  1.00  0.00    -0.264 OA
HETATM   12  N   UNL     1      42.855 -15.354   3.260  1.00  0.00    -0.224 N 
HETATM   13  N   UNL     1      43.298 -15.742   4.542  1.00  0.00    -0.180 NA
HETATM   14  C   UNL     1      43.658 -16.974   4.757  1.00  0.00     0.153 A 
HETATM   15  C   UNL     1      43.958 -21.043   1.900  1.00  0.00     0.031 A 
HETATM   16  C   UNL     1      44.421 -21.962   2.850  1.00  0.00     0.009 A 
ENDROOT
BRANCH  12  17
HETATM   17  C   UNL     1      42.621 -13.932   3.066  1.00  0.00     0.258 C 
BRANCH  17  18
HETATM   18  C   UNL     1      41.203 -13.389   2.818  1.00  0.00     0.244 C 
HETATM   19  N   UNL     1      40.930 -12.560   1.728  1.00  0.00    -0.320 N 
HETATM   20  C   UNL     1      41.916 -12.155   0.732  1.00  0.00     0.159 C 
HETATM   21  O   UNL     1      40.302 -13.825   3.551  1.00  0.00    -0.271 OA
BRANCH  19  22
HETATM   22  C   UNL     1      39.571 -12.273   1.382  1.00  0.00     0.043 A 
HETATM   23  C   UNL     1      38.822 -13.135   0.559  1.00  0.00    -0.035 A 
HETATM   24  C   UNL     1      39.431 -14.319  -0.140  1.00  0.00     0.050 C 
HETATM   25  C   UNL     1      37.455 -12.872   0.368  1.00  0.00     0.009 A 
HETATM   26  C   UNL     1      36.847 -11.762   0.958  1.00  0.00     0.007 A 
HETATM   27  C   UNL     1      37.593 -10.881   1.740  1.00  0.00    -0.060 A 
HETATM   28  C   UNL     1      36.948  -9.705   2.410  1.00  0.00     0.048 C 
HETATM   29  C   UNL     1      38.953 -11.145   1.947  1.00  0.00     0.037 A 
ENDBRANCH  19  22
ENDBRANCH  17  18
ENDBRANCH  12  17
TORSDOF 3
ENDMDL
MODEL 9
REMARK VINA RESULT:      -8.2      6.740      8.998
REMARK  3 active torsions:
REMARK  status: ('A' for Active; 'I' for Inactive)
REMARK    1  A    between atoms: N_12  and  C_13 
REMARK    2  A    between atoms: C_13  and  C_14 
REMARK       I    between atoms: C_14  and  N_15 
REMARK    3  A    between atoms: N_15  and  C_16 
ROOT
HETATM    1  C   UNL     1      40.673  -8.420  13.970  1.00  0.00     0.048 C 
HETATM    2  C   UNL     1      40.085  -8.907  12.678  1.00  0.00    -0.061 A 
HETATM    3  C   UNL     1      40.918  -9.338  11.632  1.00  0.00     0.021 A 
HETATM    4  C   UNL     1      40.349  -9.798  10.427  1.00  0.00     0.005 A 
HETATM    5  C   UNL     1      38.956  -9.816  10.302  1.00  0.00     0.044 A 
HETATM    6  N   UNL     1      38.658 -10.308   9.046  1.00  0.00    -0.350 N 
HETATM    7  H   UNL     1      37.726 -10.444   8.673  1.00  0.00     0.166 HD
HETATM    8  C   UNL     1      39.815 -10.598   8.383  1.00  0.00     0.116 A 
HETATM    9  C   UNL     1      40.869 -10.296   9.207  1.00  0.00     0.028 A 
HETATM   10  C   UNL     1      39.977 -11.139   7.065  1.00  0.00     0.291 A 
HETATM   11  O   UNL     1      39.028 -11.430   6.343  1.00  0.00    -0.264 OA
HETATM   12  N   UNL     1      41.328 -11.282   6.696  1.00  0.00    -0.224 N 
HETATM   13  N   UNL     1      42.419 -11.005   7.547  1.00  0.00    -0.180 NA
HETATM   14  C   UNL     1      42.205 -10.529   8.739  1.00  0.00     0.153 A 
HETATM   15  C   UNL     1      38.105  -9.392  11.329  1.00  0.00     0.031 A 
HETATM   16  C   UNL     1      38.696  -8.940  12.515  1.00  0.00     0.009 A 
ENDROOT
BRANCH  12  17
HETATM   17  C   UNL     1      41.646 -11.953   5.445  1.00  0.00     0.258 C 
BRANCH  17  18
HETATM   18  C   UNL     1      42.043 -13.440   5.423  1.00  0.00     0.244 C 
HETATM   19  N   UNL     1      41.334 -14.363   4.653  1.00  0.00    -0.320 N 
HETATM   20  C   UNL     1      40.200 -14.027   3.799  1.00  0.00     0.159 C 
HETATM   21  O   UNL     1      43.090 -13.747   6.015  1.00  0.00    -0.271 OA
BRANCH  19  22
HETATM   22  C   UNL     1      41.868 -15.677   4.457  1.00  0.00     0.043 A 
HETATM   23  C   UNL     1      41.465 -16.763   5.257  1.00  0.00    -0.035 A 
HETATM   24  C   UNL     1      40.582 -16.598   6.462  1.00  0.00     0.050 C 
HETATM   25  C   UNL     1      41.920 -18.051   4.929  1.00  0.00     0.009 A 
HETATM   26  C   UNL     1      42.777 -18.258   3.846  1.00  0.00     0.007 A 
HETATM   27  C   UNL     1      43.213 -17.180   3.075  1.00  0.00    -0.060 A 
HETATM   28  C   UNL     1      44.105 -17.389   1.888  1.00  0.00     0.048 C 
HETATM   29  C   UNL     1      42.753 -15.895   3.387  1.00  0.00     0.037 A 
ENDBRANCH  19  22
ENDBRANCH  17  18
ENDBRANCH  12  17
TORSDOF 3
ENDMDL
MODEL 10
REMARK VINA RESULT:      -8.2      5.177      7.777
REMARK  3 active torsions:
REMARK  status: ('A' for Active; 'I' for Inactive)
REMARK    1  A    between atoms: N_12  and  C_13 
REMARK    2  A    between atoms: C_13  and  C_14 
REMARK       I    between atoms: C_14  and  N_15 
REMARK    3  A    between atoms: N_15  and  C_16 
ROOT
HETATM    1  C   UNL     1      42.800  -8.828  12.057  1.00  0.00     0.048 C 
HETATM    2  C   UNL     1      43.299  -9.904  11.137  1.00  0.00    -0.061 A 
HETATM    3  C   UNL     1      42.647 -10.162   9.921  1.00  0.00     0.021 A 
HETATM    4  C   UNL     1      43.133 -11.173   9.065  1.00  0.00     0.005 A 
HETATM    5  C   UNL     1      44.264 -11.899   9.454  1.00  0.00     0.044 A 
HETATM    6  N   UNL     1      44.534 -12.811   8.453  1.00  0.00    -0.350 N 
HETATM    7  H   UNL     1      45.302 -13.472   8.450  1.00  0.00     0.166 HD
HETATM    8  C   UNL     1      43.613 -12.680   7.454  1.00  0.00     0.116 A 
HETATM    9  C   UNL     1      42.741 -11.681   7.803  1.00  0.00     0.028 A 
HETATM   10  C   UNL     1      43.521 -13.412   6.224  1.00  0.00     0.291 A 
HETATM   11  O   UNL     1      44.319 -14.288   5.908  1.00  0.00    -0.264 OA
HETATM   12  N   UNL     1      42.416 -13.025   5.441  1.00  0.00    -0.224 N 
HETATM   13  N   UNL     1      41.532 -11.977   5.775  1.00  0.00    -0.180 NA
HETATM   14  C   UNL     1      41.679 -11.340   6.901  1.00  0.00     0.153 A 
HETATM   15  C   UNL     1      44.930 -11.660  10.660  1.00  0.00     0.031 A 
HETATM   16  C   UNL     1      44.428 -10.652  11.491  1.00  0.00     0.009 A 
ENDROOT
BRANCH  12  17
HETATM   17  C   UNL     1      42.278 -13.577   4.102  1.00  0.00     0.258 C 
BRANCH  17  18
HETATM   18  C   UNL     1      42.848 -14.962   3.754  1.00  0.00     0.244 C 
HETATM   19  N   UNL     1      42.216 -16.131   4.183  1.00  0.00    -0.320 N 
HETATM   20  C   UNL     1      40.980 -16.162   4.958  1.00  0.00     0.159 C 
HETATM   21  O   UNL     1      43.812 -14.989   2.973  1.00  0.00    -0.271 OA
BRANCH  19  22
HETATM   22  C   UNL     1      42.622 -17.392   3.644  1.00  0.00     0.043 A 
HETATM   23  C   UNL     1      42.209 -17.815   2.367  1.00  0.00    -0.035 A 
HETATM   24  C   UNL     1      41.196 -17.061   1.551  1.00  0.00     0.050 C 
HETATM   25  C   UNL     1      42.750 -18.999   1.837  1.00  0.00     0.009 A 
HETATM   26  C   UNL     1      43.662 -19.764   2.567  1.00  0.00     0.007 A 
HETATM   27  C   UNL     1      44.043 -19.372   3.851  1.00  0.00    -0.060 A 
HETATM   28  C   UNL     1      45.048 -20.162   4.634  1.00  0.00     0.048 C 
HETATM   29  C   UNL     1      43.519 -18.185   4.380  1.00  0.00     0.037 A 
ENDBRANCH  19  22
ENDBRANCH  17  18
ENDBRANCH  12  17
TORSDOF 3
ENDMDL
