MODEL 1
REMARK VINA RESULT:      -8.1      0.000      0.000
REMARK  6 active torsions:
REMARK  status: ('A' for Active; 'I' for Inactive)
REMARK    1  A    between atoms: O_2  and  C_3 
REMARK    2  A    between atoms: C_4  and  N_5 
REMARK       I    between atoms: N_5  and  C_6 
REMARK       I    between atoms: C_6  and  N_7 
REMARK    3  A    between atoms: N_7  and  C_8 
REMARK    4  A    between atoms: C_8  and  C_9 
REMARK    5  A    between atoms: C_9  and  C_10 
REMARK    6  A    between atoms: C_10  and  N_11 
ROOT
HETATM    1  N   UNL     1      41.811 -14.920  -0.846  1.00  0.00    -0.306 N 
HETATM    2  C   UNL     1      40.838 -15.233   0.075  1.00  0.00     0.320 C 
HETATM    3  N   UNL     1      41.030 -16.497   0.596  1.00  0.00    -0.343 N 
HETATM    4  O   UNL     1      39.915 -14.510   0.420  1.00  0.00    -0.247 OA
HETATM    5  H   UNL     1      42.654 -15.475  -0.847  1.00  0.00     0.171 HD
HETATM    6  H   UNL     1      41.896 -16.955   0.360  1.00  0.00     0.164 HD
ENDROOT
BRANCH   3   7
HETATM    7  C   UNL     1      40.368 -16.941   1.809  1.00  0.00     0.126 C 
BRANCH   7   8
HETATM    8  C   UNL     1      41.258 -17.124   3.034  1.00  0.00     0.040 C 
BRANCH   8   9
HETATM    9  C   UNL     1      42.745 -17.105   2.699  1.00  0.00     0.130 C 
BRANCH   9  10
HETATM   10  N   UNL     1      43.474 -18.113   3.457  1.00  0.00    -0.356 N 
HETATM   11  C   UNL     1      43.706 -19.412   3.050  1.00  0.00     0.044 A 
HETATM   12  C   UNL     1      44.412 -20.038   4.081  1.00  0.00    -0.008 A 
HETATM   13  C   UNL     1      43.346 -20.092   1.875  1.00  0.00     0.030 A 
HETATM   14  C   UNL     1      44.778 -21.391   3.934  1.00  0.00     0.014 A 
HETATM   15  C   UNL     1      44.597 -19.077   5.112  1.00  0.00     0.031 A 
HETATM   16  C   UNL     1      44.430 -22.076   2.765  1.00  0.00     0.001 A 
HETATM   17  C   UNL     1      43.723 -21.433   1.752  1.00  0.00     0.002 A 
HETATM   18  C   UNL     1      44.013 -17.903   4.700  1.00  0.00     0.092 A 
ENDBRANCH   9  10
ENDBRANCH   8   9
ENDBRANCH   7   8
ENDBRANCH   3   7
BRANCH   1  19
HETATM   19  C   UNL     1      41.887 -13.754  -1.637  1.00  0.00     0.069 A 
HETATM   20  C   UNL     1      41.460 -13.841  -2.971  1.00  0.00     0.095 A 
HETATM   21  C   UNL     1      41.430 -12.715  -3.797  1.00  0.00     0.039 A 
HETATM   22  C   UNL     1      41.868 -11.490  -3.301  1.00  0.00     0.003 A 
HETATM   23  C   UNL     1      42.322 -11.395  -1.985  1.00  0.00     0.002 A 
HETATM   24  C   UNL     1      42.329 -12.522  -1.154  1.00  0.00     0.032 A 
BRANCH  20  25
HETATM   25  O   UNL     1      41.047 -15.045  -3.490  1.00  0.00    -0.354 OA
HETATM   26  C   UNL     1      39.634 -15.018  -3.715  1.00  0.00     0.210 C 
ENDBRANCH  20  25
ENDBRANCH   1  19
TORSDOF 6
ENDMDL
MODEL 2
REMARK VINA RESULT:      -8.1      3.931      5.211
REMARK  6 active torsions:
REMARK  status: ('A' for Active; 'I' for Inactive)
REMARK    1  A    between atoms: O_2  and  C_3 
REMARK    2  A    between atoms: C_4  and  N_5 
REMARK       I    between atoms: N_5  and  C_6 
REMARK       I    between atoms: C_6  and  N_7 
REMARK    3  A    between atoms: N_7  and  C_8 
REMARK    4  A    between atoms: C_8  and  C_9 
REMARK    5  A    between atoms: C_9  and  C_10 
REMARK    6  A    between atoms: C_10  and  N_11 
ROOT
HETATM    1  N   UNL     1      40.684 -15.857   5.676  1.00  0.00    -0.306 N 
HETATM    2  C   UNL     1      41.876 -15.984   6.350  1.00  0.00     0.320 C 
HETATM    3  N   UNL     1      41.886 -17.115   7.143  1.00  0.00    -0.343 N 
HETATM    4  O   UNL     1      42.829 -15.222   6.276  1.00  0.00    -0.247 OA
HETATM    5  H   UNL     1      40.092 -16.673   5.610  1.00  0.00     0.171 HD
HETATM    6  H   UNL     1      41.116 -17.754   7.025  1.00  0.00     0.164 HD
ENDROOT
BRANCH   3   7
HETATM    7  C   UNL     1      43.113 -17.667   7.686  1.00  0.00     0.126 C 
BRANCH   7   8
HETATM    8  C   UNL     1      43.662 -18.907   6.987  1.00  0.00     0.040 C 
BRANCH   8   9
HETATM    9  C   UNL     1      44.774 -18.588   5.996  1.00  0.00     0.130 C 
BRANCH   9  10
HETATM   10  N   UNL     1      44.338 -18.797   4.622  1.00  0.00    -0.356 N 
HETATM   11  C   UNL     1      44.358 -20.001   3.947  1.00  0.00     0.044 A 
HETATM   12  C   UNL     1      43.885 -19.749   2.656  1.00  0.00    -0.008 A 
HETATM   13  C   UNL     1      44.761 -21.284   4.352  1.00  0.00     0.030 A 
HETATM   14  C   UNL     1      43.805 -20.815   1.737  1.00  0.00     0.014 A 
HETATM   15  C   UNL     1      43.580 -18.362   2.580  1.00  0.00     0.031 A 
HETATM   16  C   UNL     1      44.199 -22.097   2.134  1.00  0.00     0.001 A 
HETATM   17  C   UNL     1      44.671 -22.325   3.424  1.00  0.00     0.002 A 
HETATM   18  C   UNL     1      43.867 -17.803   3.803  1.00  0.00     0.092 A 
ENDBRANCH   9  10
ENDBRANCH   8   9
ENDBRANCH   7   8
ENDBRANCH   3   7
BRANCH   1  19
HETATM   19  C   UNL     1      40.289 -14.788   4.846  1.00  0.00     0.069 A 
HETATM   20  C   UNL     1      40.367 -14.975   3.457  1.00  0.00     0.095 A 
HETATM   21  C   UNL     1      39.922 -13.995   2.567  1.00  0.00     0.039 A 
HETATM   22  C   UNL     1      39.427 -12.792   3.065  1.00  0.00     0.003 A 
HETATM   23  C   UNL     1      39.370 -12.581   4.443  1.00  0.00     0.002 A 
HETATM   24  C   UNL     1      39.797 -13.575   5.331  1.00  0.00     0.032 A 
BRANCH  20  25
HETATM   25  O   UNL     1      40.876 -16.144   2.943  1.00  0.00    -0.354 OA
HETATM   26  C   UNL     1      40.131 -16.529   1.782  1.00  0.00     0.210 C 
ENDBRANCH  20  25
ENDBRANCH   1  19
TORSDOF 6
ENDMDL
MODEL 3
REMARK VINA RESULT:      -7.9      7.276      9.779
REMARK  6 active torsions:
REMARK  status: ('A' for Active; 'I' for Inactive)
REMARK    1  A    between atoms: O_2  and  C_3 
REMARK    2  A    between atoms: C_4  and  N_5 
REMARK       I    between atoms: N_5  and  C_6 
REMARK       I    between atoms: C_6  and  N_7 
REMARK    3  A    between atoms: N_7  and  C_8 
REMARK    4  A    between atoms: C_8  and  C_9 
REMARK    5  A    between atoms: C_9  and  C_10 
REMARK    6  A    between atoms: C_10  and  N_11 
ROOT
HETATM    1  N   UNL     1      43.353 -11.970  10.138  1.00  0.00    -0.306 N 
HETATM    2  C   UNL     1      44.354 -12.098   9.202  1.00  0.00     0.320 C 
HETATM    3  N   UNL     1      44.347 -13.355   8.631  1.00  0.00    -0.343 N 
HETATM    4  O   UNL     1      45.156 -11.232   8.884  1.00  0.00    -0.247 OA
HETATM    5  H   UNL     1      42.602 -12.645  10.119  1.00  0.00     0.171 HD
HETATM    6  H   UNL     1      43.561 -13.946   8.850  1.00  0.00     0.164 HD
ENDROOT
BRANCH   3   7
HETATM    7  C   UNL     1      45.057 -13.647   7.399  1.00  0.00     0.126 C 
BRANCH   7   8
HETATM    8  C   UNL     1      44.233 -14.272   6.279  1.00  0.00     0.040 C 
BRANCH   8   9
HETATM    9  C   UNL     1      43.941 -15.751   6.507  1.00  0.00     0.130 C 
BRANCH   9  10
HETATM   10  N   UNL     1      43.552 -16.413   5.269  1.00  0.00    -0.356 N 
HETATM   11  C   UNL     1      43.938 -17.681   4.881  1.00  0.00     0.044 A 
HETATM   12  C   UNL     1      43.366 -17.910   3.626  1.00  0.00    -0.008 A 
HETATM   13  C   UNL     1      44.748 -18.637   5.514  1.00  0.00     0.030 A 
HETATM   14  C   UNL     1      43.606 -19.141   2.982  1.00  0.00     0.014 A 
HETATM   15  C   UNL     1      42.626 -16.748   3.278  1.00  0.00     0.031 A 
HETATM   16  C   UNL     1      44.407 -20.101   3.607  1.00  0.00     0.001 A 
HETATM   17  C   UNL     1      44.970 -19.850   4.855  1.00  0.00     0.002 A 
HETATM   18  C   UNL     1      42.756 -15.845   4.307  1.00  0.00     0.092 A 
ENDBRANCH   9  10
ENDBRANCH   8   9
ENDBRANCH   7   8
ENDBRANCH   3   7
BRANCH   1  19
HETATM   19  C   UNL     1      43.112 -10.861  10.976  1.00  0.00     0.069 A 
HETATM   20  C   UNL     1      42.156  -9.923  10.558  1.00  0.00     0.095 A 
HETATM   21  C   UNL     1      41.803  -8.839  11.365  1.00  0.00     0.039 A 
HETATM   22  C   UNL     1      42.439  -8.663  12.591  1.00  0.00     0.003 A 
HETATM   23  C   UNL     1      43.412  -9.572  13.007  1.00  0.00     0.002 A 
HETATM   24  C   UNL     1      43.746 -10.669  12.204  1.00  0.00     0.032 A 
BRANCH  20  25
HETATM   25  O   UNL     1      41.533 -10.062   9.340  1.00  0.00    -0.354 OA
HETATM   26  C   UNL     1      40.171 -10.457   9.533  1.00  0.00     0.210 C 
ENDBRANCH  20  25
ENDBRANCH   1  19
TORSDOF 6
ENDMDL
MODEL 4
REMARK VINA RESULT:      -7.9      2.458      3.773
REMARK  6 active torsions:
REMARK  status: ('A' for Active; 'I' for Inactive)
REMARK    1  A    between atoms: O_2  and  C_3 
REMARK    2  A    between atoms: C_4  and  N_5 
REMARK       I    between atoms: N_5  and  C_6 
REMARK       I    between atoms: C_6  and  N_7 
REMARK    3  A    between atoms: N_7  and  C_8 
REMARK    4  A    between atoms: C_8  and  C_9 
REMARK    5  A    between atoms: C_9  and  C_10 
REMARK    6  A    between atoms: C_10  and  N_11 
ROOT
HETATM    1  N   UNL     1      40.510 -16.369   2.755  1.00  0.00    -0.306 N 
HETATM    2  C   UNL     1      41.305 -15.987   3.810  1.00  0.00     0.320 C 
HETATM    3  N   UNL     1      40.947 -16.642   4.971  1.00  0.00    -0.343 N 
HETATM    4  O   UNL     1      42.225 -15.182   3.762  1.00  0.00    -0.247 OA
HETATM    5  H   UNL     1      39.975 -17.220   2.853  1.00  0.00     0.171 HD
HETATM    6  H   UNL     1      40.278 -17.390   4.878  1.00  0.00     0.164 HD
ENDROOT
BRANCH   3   7
HETATM    7  C   UNL     1      41.815 -16.686   6.132  1.00  0.00     0.126 C 
BRANCH   7   8
HETATM    8  C   UNL     1      42.674 -17.938   6.285  1.00  0.00     0.040 C 
BRANCH   8   9
HETATM    9  C   UNL     1      44.016 -17.832   5.571  1.00  0.00     0.130 C 
BRANCH   9  10
HETATM   10  N   UNL     1      44.044 -18.648   4.365  1.00  0.00    -0.356 N 
HETATM   11  C   UNL     1      44.287 -20.007   4.321  1.00  0.00     0.044 A 
HETATM   12  C   UNL     1      44.250 -20.380   2.974  1.00  0.00    -0.008 A 
HETATM   13  C   UNL     1      44.549 -20.935   5.342  1.00  0.00     0.030 A 
HETATM   14  C   UNL     1      44.475 -21.729   2.633  1.00  0.00     0.014 A 
HETATM   15  C   UNL     1      43.975 -19.209   2.218  1.00  0.00     0.031 A 
HETATM   16  C   UNL     1      44.732 -22.661   3.644  1.00  0.00     0.001 A 
HETATM   17  C   UNL     1      44.768 -22.267   4.978  1.00  0.00     0.002 A 
HETATM   18  C   UNL     1      43.851 -18.160   3.098  1.00  0.00     0.092 A 
ENDBRANCH   9  10
ENDBRANCH   8   9
ENDBRANCH   7   8
ENDBRANCH   3   7
BRANCH   1  19
HETATM   19  C   UNL     1      40.532 -15.850   1.444  1.00  0.00     0.069 A 
HETATM   20  C   UNL     1      39.810 -14.672   1.194  1.00  0.00     0.095 A 
HETATM   21  C   UNL     1      39.844 -14.052  -0.057  1.00  0.00     0.039 A 
HETATM   22  C   UNL     1      40.576 -14.632  -1.089  1.00  0.00     0.003 A 
HETATM   23  C   UNL     1      41.276 -15.818  -0.863  1.00  0.00     0.002 A 
HETATM   24  C   UNL     1      41.257 -16.424   0.398  1.00  0.00     0.032 A 
BRANCH  20  25
HETATM   25  O   UNL     1      39.059 -14.096   2.191  1.00  0.00    -0.354 OA
HETATM   26  C   UNL     1      38.217 -13.079   1.638  1.00  0.00     0.210 C 
ENDBRANCH  20  25
ENDBRANCH   1  19
TORSDOF 6
ENDMDL
MODEL 5
REMARK VINA RESULT:      -7.9      7.247      9.742
REMARK  6 active torsions:
REMARK  status: ('A' for Active; 'I' for Inactive)
REMARK    1  A    between atoms: O_2  and  C_3 
REMARK    2  A    between atoms: C_4  and  N_5 
REMARK       I    between atoms: N_5  and  C_6 
REMARK       I    between atoms: C_6  and  N_7 
REMARK    3  A    between atoms: N_7  and  C_8 
REMARK    4  A    between atoms: C_8  and  C_9 
REMARK    5  A    between atoms: C_9  and  C_10 
REMARK    6  A    between atoms: C_10  and  N_11 
ROOT
HETATM    1  N   UNL     1      43.336 -12.034  10.092  1.00  0.00    -0.306 N 
HETATM    2  C   UNL     1      44.347 -12.134   9.165  1.00  0.00     0.320 C 
HETATM    3  N   UNL     1      44.369 -13.384   8.580  1.00  0.00    -0.343 N 
HETATM    4  O   UNL     1      45.137 -11.250   8.864  1.00  0.00    -0.247 OA
HETATM    5  H   UNL     1      42.598 -12.722  10.058  1.00  0.00     0.171 HD
HETATM    6  H   UNL     1      43.592 -13.991   8.786  1.00  0.00     0.164 HD
ENDROOT
BRANCH   3   7
HETATM    7  C   UNL     1      45.096 -13.650   7.352  1.00  0.00     0.126 C 
BRANCH   7   8
HETATM    8  C   UNL     1      44.310 -14.337   6.240  1.00  0.00     0.040 C 
BRANCH   8   9
HETATM    9  C   UNL     1      43.506 -15.535   6.730  1.00  0.00     0.130 C 
BRANCH   9  10
HETATM   10  N   UNL     1      43.979 -16.775   6.129  1.00  0.00    -0.356 N 
HETATM   11  C   UNL     1      43.537 -17.309   4.935  1.00  0.00     0.044 A 
HETATM   12  C   UNL     1      44.227 -18.510   4.749  1.00  0.00    -0.008 A 
HETATM   13  C   UNL     1      42.584 -16.850   4.012  1.00  0.00     0.030 A 
HETATM   14  C   UNL     1      43.963 -19.279   3.598  1.00  0.00     0.014 A 
HETATM   15  C   UNL     1      45.095 -18.676   5.863  1.00  0.00     0.031 A 
HETATM   16  C   UNL     1      43.019 -18.826   2.670  1.00  0.00     0.001 A 
HETATM   17  C   UNL     1      42.340 -17.629   2.877  1.00  0.00     0.002 A 
HETATM   18  C   UNL     1      44.923 -17.594   6.694  1.00  0.00     0.092 A 
ENDBRANCH   9  10
ENDBRANCH   8   9
ENDBRANCH   7   8
ENDBRANCH   3   7
BRANCH   1  19
HETATM   19  C   UNL     1      43.066 -10.939  10.939  1.00  0.00     0.069 A 
HETATM   20  C   UNL     1      42.076 -10.030  10.537  1.00  0.00     0.095 A 
HETATM   21  C   UNL     1      41.696  -8.963  11.354  1.00  0.00     0.039 A 
HETATM   22  C   UNL     1      42.337  -8.774  12.576  1.00  0.00     0.003 A 
HETATM   23  C   UNL     1      43.343  -9.654  12.976  1.00  0.00     0.002 A 
HETATM   24  C   UNL     1      43.705 -10.734  12.163  1.00  0.00     0.032 A 
BRANCH  20  25
HETATM   25  O   UNL     1      41.447 -10.181   9.324  1.00  0.00    -0.354 OA
HETATM   26  C   UNL     1      40.096 -10.609   9.527  1.00  0.00     0.210 C 
ENDBRANCH  20  25
ENDBRANCH   1  19
TORSDOF 6
ENDMDL
MODEL 6
REMARK VINA RESULT:      -7.9      1.469      2.307
REMARK  6 active torsions:
REMARK  status: ('A' for Active; 'I' for Inactive)
REMARK    1  A    between atoms: O_2  and  C_3 
REMARK    2  A    between atoms: C_4  and  N_5 
REMARK       I    between atoms: N_5  and  C_6 
REMARK       I    between atoms: C_6  and  N_7 
REMARK    3  A    between atoms: N_7  and  C_8 
REMARK    4  A    between atoms: C_8  and  C_9 
REMARK    5  A    between atoms: C_9  and  C_10 
REMARK    6  A    between atoms: C_10  and  N_11 
ROOT
HETATM    1  N   UNL     1      42.473 -13.710  -1.431  1.00  0.00    -0.306 N 
HETATM    2  C   UNL     1      41.410 -14.315  -0.800  1.00  0.00     0.320 C 
HETATM    3  N   UNL     1      41.806 -15.465  -0.146  1.00  0.00    -0.343 N 
HETATM    4  O   UNL     1      40.256 -13.913  -0.789  1.00  0.00    -0.247 OA
HETATM    5  H   UNL     1      43.403 -13.980  -1.149  1.00  0.00     0.171 HD
HETATM    6  H   UNL     1      42.798 -15.633  -0.091  1.00  0.00     0.164 HD
ENDROOT
BRANCH   3   7
HETATM    7  C   UNL     1      40.979 -16.103   0.861  1.00  0.00     0.126 C 
BRANCH   7   8
HETATM    8  C   UNL     1      41.417 -17.494   1.309  1.00  0.00     0.040 C 
BRANCH   8   9
HETATM    9  C   UNL     1      42.921 -17.711   1.197  1.00  0.00     0.130 C 
BRANCH   9  10
HETATM   10  N   UNL     1      43.470 -18.279   2.421  1.00  0.00    -0.356 N 
HETATM   11  C   UNL     1      43.809 -19.604   2.610  1.00  0.00     0.044 A 
HETATM   12  C   UNL     1      44.266 -19.720   3.926  1.00  0.00    -0.008 A 
HETATM   13  C   UNL     1      43.741 -20.709   1.746  1.00  0.00     0.030 A 
HETATM   14  C   UNL     1      44.677 -20.984   4.396  1.00  0.00     0.014 A 
HETATM   15  C   UNL     1      44.194 -18.429   4.515  1.00  0.00     0.031 A 
HETATM   16  C   UNL     1      44.618 -22.089   3.542  1.00  0.00     0.001 A 
HETATM   17  C   UNL     1      44.156 -21.952   2.237  1.00  0.00     0.002 A 
HETATM   18  C   UNL     1      43.703 -17.562   3.567  1.00  0.00     0.092 A 
ENDBRANCH   9  10
ENDBRANCH   8   9
ENDBRANCH   7   8
ENDBRANCH   3   7
BRANCH   1  19
HETATM   19  C   UNL     1      42.429 -12.569  -2.259  1.00  0.00     0.069 A 
HETATM   20  C   UNL     1      42.796 -11.337  -1.695  1.00  0.00     0.095 A 
HETATM   21  C   UNL     1      42.854 -10.174  -2.466  1.00  0.00     0.039 A 
HETATM   22  C   UNL     1      42.504 -10.228  -3.813  1.00  0.00     0.003 A 
HETATM   23  C   UNL     1      42.110 -11.440  -4.381  1.00  0.00     0.002 A 
HETATM   24  C   UNL     1      42.075 -12.607  -3.608  1.00  0.00     0.032 A 
BRANCH  20  25
HETATM   25  O   UNL     1      43.121 -11.255  -0.361  1.00  0.00    -0.354 OA
HETATM   26  C   UNL     1      42.012 -10.732   0.377  1.00  0.00     0.210 C 
ENDBRANCH  20  25
ENDBRANCH   1  19
TORSDOF 6
ENDMDL
MODEL 7
REMARK VINA RESULT:      -7.8      5.269      7.763
REMARK  6 active torsions:
REMARK  status: ('A' for Active; 'I' for Inactive)
REMARK    1  A    between atoms: O_2  and  C_3 
REMARK    2  A    between atoms: C_4  and  N_5 
REMARK       I    between atoms: N_5  and  C_6 
REMARK       I    between atoms: C_6  and  N_7 
REMARK    3  A    between atoms: N_7  and  C_8 
REMARK    4  A    between atoms: C_8  and  C_9 
REMARK    5  A    between atoms: C_9  and  C_10 
REMARK    6  A    between atoms: C_10  and  N_11 
ROOT
HETATM    1  N   UNL     1      43.930 -13.999   7.641  1.00  0.00    -0.306 N 
HETATM    2  C   UNL     1      43.329 -14.242   6.428  1.00  0.00     0.320 C 
HETATM    3  N   UNL     1      42.409 -15.267   6.521  1.00  0.00    -0.343 N 
HETATM    4  O   UNL     1      43.548 -13.645   5.384  1.00  0.00    -0.247 OA
HETATM    5  H   UNL     1      43.482 -14.364   8.469  1.00  0.00     0.171 HD
HETATM    6  H   UNL     1      42.194 -15.597   7.449  1.00  0.00     0.164 HD
ENDROOT
BRANCH   3   7
HETATM    7  C   UNL     1      41.406 -15.500   5.499  1.00  0.00     0.126 C 
BRANCH   7   8
HETATM    8  C   UNL     1      41.558 -16.781   4.685  1.00  0.00     0.040 C 
BRANCH   8   9
HETATM    9  C   UNL     1      42.875 -16.850   3.923  1.00  0.00     0.130 C 
BRANCH   9  10
HETATM   10  N   UNL     1      43.638 -18.037   4.284  1.00  0.00    -0.356 N 
HETATM   11  C   UNL     1      43.750 -19.183   3.522  1.00  0.00     0.044 A 
HETATM   12  C   UNL     1      44.543 -20.076   4.248  1.00  0.00    -0.008 A 
HETATM   13  C   UNL     1      43.214 -19.517   2.267  1.00  0.00     0.030 A 
HETATM   14  C   UNL     1      44.818 -21.345   3.702  1.00  0.00     0.014 A 
HETATM   15  C   UNL     1      44.904 -19.430   5.462  1.00  0.00     0.031 A 
HETATM   16  C   UNL     1      44.293 -21.685   2.450  1.00  0.00     0.001 A 
HETATM   17  C   UNL     1      43.502 -20.782   1.746  1.00  0.00     0.002 A 
HETATM   18  C   UNL     1      44.335 -18.178   5.456  1.00  0.00     0.092 A 
ENDBRANCH   9  10
ENDBRANCH   8   9
ENDBRANCH   7   8
ENDBRANCH   3   7
BRANCH   1  19
HETATM   19  C   UNL     1      44.972 -13.086   7.904  1.00  0.00     0.069 A 
HETATM   20  C   UNL     1      44.758 -12.116   8.895  1.00  0.00     0.095 A 
HETATM   21  C   UNL     1      45.767 -11.225   9.268  1.00  0.00     0.039 A 
HETATM   22  C   UNL     1      46.997 -11.274   8.619  1.00  0.00     0.003 A 
HETATM   23  C   UNL     1      47.216 -12.215   7.612  1.00  0.00     0.002 A 
HETATM   24  C   UNL     1      46.208 -13.119   7.257  1.00  0.00     0.032 A 
BRANCH  20  25
HETATM   25  O   UNL     1      43.542 -12.032   9.532  1.00  0.00    -0.354 OA
HETATM   26  C   UNL     1      43.251 -10.667   9.846  1.00  0.00     0.210 C 
ENDBRANCH  20  25
ENDBRANCH   1  19
TORSDOF 6
ENDMDL
MODEL 8
REMARK VINA RESULT:      -7.8      3.560      7.480
REMARK  6 active torsions:
REMARK  status: ('A' for Active; 'I' for Inactive)
REMARK    1  A    between atoms: O_2  and  C_3 
REMARK    2  A    between atoms: C_4  and  N_5 
REMARK       I    between atoms: N_5  and  C_6 
REMARK       I    between atoms: C_6  and  N_7 
REMARK    3  A    between atoms: N_7  and  C_8 
REMARK    4  A    between atoms: C_8  and  C_9 
REMARK    5  A    between atoms: C_9  and  C_10 
REMARK    6  A    between atoms: C_10  and  N_11 
ROOT
HETATM    1  N   UNL     1      44.764 -18.994   4.956  1.00  0.00    -0.306 N 
HETATM    2  C   UNL     1      43.865 -18.366   5.786  1.00  0.00     0.320 C 
HETATM    3  N   UNL     1      44.503 -17.509   6.660  1.00  0.00    -0.343 N 
HETATM    4  O   UNL     1      42.651 -18.513   5.774  1.00  0.00    -0.247 OA
HETATM    5  H   UNL     1      45.689 -18.598   4.880  1.00  0.00     0.171 HD
HETATM    6  H   UNL     1      45.484 -17.347   6.496  1.00  0.00     0.164 HD
ENDROOT
BRANCH   3   7
HETATM    7  C   UNL     1      43.788 -16.486   7.399  1.00  0.00     0.126 C 
BRANCH   7   8
HETATM    8  C   UNL     1      43.581 -15.156   6.680  1.00  0.00     0.040 C 
BRANCH   8   9
HETATM    9  C   UNL     1      42.218 -15.049   6.008  1.00  0.00     0.130 C 
BRANCH   9  10
HETATM   10  N   UNL     1      42.343 -14.655   4.611  1.00  0.00    -0.356 N 
HETATM   11  C   UNL     1      41.746 -15.290   3.540  1.00  0.00     0.044 A 
HETATM   12  C   UNL     1      42.149 -14.608   2.389  1.00  0.00    -0.008 A 
HETATM   13  C   UNL     1      40.900 -16.410   3.482  1.00  0.00     0.030 A 
HETATM   14  C   UNL     1      41.688 -15.054   1.134  1.00  0.00     0.014 A 
HETATM   15  C   UNL     1      43.000 -13.547   2.802  1.00  0.00     0.031 A 
HETATM   16  C   UNL     1      40.840 -16.165   1.067  1.00  0.00     0.001 A 
HETATM   17  C   UNL     1      40.454 -16.832   2.226  1.00  0.00     0.002 A 
HETATM   18  C   UNL     1      43.100 -13.599   4.172  1.00  0.00     0.092 A 
ENDBRANCH   9  10
ENDBRANCH   8   9
ENDBRANCH   7   8
ENDBRANCH   3   7
BRANCH   1  19
HETATM   19  C   UNL     1      44.482 -19.991   4.000  1.00  0.00     0.069 A 
HETATM   20  C   UNL     1      43.900 -19.589   2.788  1.00  0.00     0.095 A 
HETATM   21  C   UNL     1      43.660 -20.503   1.759  1.00  0.00     0.039 A 
HETATM   22  C   UNL     1      43.970 -21.847   1.952  1.00  0.00     0.003 A 
HETATM   23  C   UNL     1      44.524 -22.266   3.162  1.00  0.00     0.002 A 
HETATM   24  C   UNL     1      44.782 -21.342   4.181  1.00  0.00     0.032 A 
BRANCH  20  25
HETATM   25  O   UNL     1      43.562 -18.272   2.585  1.00  0.00    -0.354 OA
HETATM   26  C   UNL     1      44.204 -17.782   1.403  1.00  0.00     0.210 C 
ENDBRANCH  20  25
ENDBRANCH   1  19
TORSDOF 6
ENDMDL
MODEL 9
REMARK VINA RESULT:      -7.8      8.274     11.275
REMARK  6 active torsions:
REMARK  status: ('A' for Active; 'I' for Inactive)
REMARK    1  A    between atoms: O_2  and  C_3 
REMARK    2  A    between atoms: C_4  and  N_5 
REMARK       I    between atoms: N_5  and  C_6 
REMARK       I    between atoms: C_6  and  N_7 
REMARK    3  A    between atoms: N_7  and  C_8 
REMARK    4  A    between atoms: C_8  and  C_9 
REMARK    5  A    between atoms: C_9  and  C_10 
REMARK    6  A    between atoms: C_10  and  N_11 
ROOT
HETATM    1  N   UNL     1      43.921 -14.997   7.400  1.00  0.00    -0.306 N 
HETATM    2  C   UNL     1      44.778 -13.921   7.443  1.00  0.00     0.320 C 
HETATM    3  N   UNL     1      44.456 -13.066   8.478  1.00  0.00    -0.343 N 
HETATM    4  O   UNL     1      45.718 -13.719   6.688  1.00  0.00    -0.247 OA
HETATM    5  H   UNL     1      43.367 -15.190   8.221  1.00  0.00     0.171 HD
HETATM    6  H   UNL     1      43.761 -13.391   9.131  1.00  0.00     0.164 HD
ENDROOT
BRANCH   3   7
HETATM    7  C   UNL     1      45.377 -12.053   8.957  1.00  0.00     0.126 C 
BRANCH   7   8
HETATM    8  C   UNL     1      45.128 -11.529  10.368  1.00  0.00     0.040 C 
BRANCH   8   9
HETATM    9  C   UNL     1      44.298 -10.252  10.392  1.00  0.00     0.130 C 
BRANCH   9  10
HETATM   10  N   UNL     1      43.014 -10.463  11.046  1.00  0.00    -0.356 N 
HETATM   11  C   UNL     1      42.722 -10.156  12.361  1.00  0.00     0.044 A 
HETATM   12  C   UNL     1      41.397 -10.544  12.582  1.00  0.00    -0.008 A 
HETATM   13  C   UNL     1      43.507  -9.585  13.375  1.00  0.00     0.030 A 
HETATM   14  C   UNL     1      40.833 -10.351  13.859  1.00  0.00     0.014 A 
HETATM   15  C   UNL     1      40.907 -11.089  11.364  1.00  0.00     0.031 A 
HETATM   16  C   UNL     1      41.607  -9.777  14.873  1.00  0.00     0.001 A 
HETATM   17  C   UNL     1      42.925  -9.401  14.632  1.00  0.00     0.002 A 
HETATM   18  C   UNL     1      41.921 -11.024  10.437  1.00  0.00     0.092 A 
ENDBRANCH   9  10
ENDBRANCH   8   9
ENDBRANCH   7   8
ENDBRANCH   3   7
BRANCH   1  19
HETATM   19  C   UNL     1      43.897 -16.023   6.433  1.00  0.00     0.069 A 
HETATM   20  C   UNL     1      43.252 -15.758   5.214  1.00  0.00     0.095 A 
HETATM   21  C   UNL     1      43.250 -16.693   4.176  1.00  0.00     0.039 A 
HETATM   22  C   UNL     1      43.866 -17.927   4.366  1.00  0.00     0.003 A 
HETATM   23  C   UNL     1      44.487 -18.215   5.581  1.00  0.00     0.002 A 
HETATM   24  C   UNL     1      44.505 -17.267   6.611  1.00  0.00     0.032 A 
BRANCH  20  25
HETATM   25  O   UNL     1      42.615 -14.556   5.015  1.00  0.00    -0.354 OA
HETATM   26  C   UNL     1      43.308 -13.799   4.018  1.00  0.00     0.210 C 
ENDBRANCH  20  25
ENDBRANCH   1  19
TORSDOF 6
ENDMDL
MODEL 10
REMARK VINA RESULT:      -7.8      3.167      7.506
REMARK  6 active torsions:
REMARK  status: ('A' for Active; 'I' for Inactive)
REMARK    1  A    between atoms: O_2  and  C_3 
REMARK    2  A    between atoms: C_4  and  N_5 
REMARK       I    between atoms: N_5  and  C_6 
REMARK       I    between atoms: C_6  and  N_7 
REMARK    3  A    between atoms: N_7  and  C_8 
REMARK    4  A    between atoms: C_8  and  C_9 
REMARK    5  A    between atoms: C_9  and  C_10 
REMARK    6  A    between atoms: C_10  and  N_11 
ROOT
HETATM    1  N   UNL     1      44.233 -18.919   1.974  1.00  0.00    -0.306 N 
HETATM    2  C   UNL     1      43.046 -18.277   1.704  1.00  0.00     0.320 C 
HETATM    3  N   UNL     1      43.250 -17.151   0.931  1.00  0.00    -0.343 N 
HETATM    4  O   UNL     1      41.936 -18.632   2.073  1.00  0.00    -0.247 OA
HETATM    5  H   UNL     1      45.032 -18.689   1.402  1.00  0.00     0.171 HD
HETATM    6  H   UNL     1      44.177 -17.024   0.556  1.00  0.00     0.164 HD
ENDROOT
BRANCH   3   7
HETATM    7  C   UNL     1      42.166 -16.490   0.228  1.00  0.00     0.126 C 
BRANCH   7   8
HETATM    8  C   UNL     1      41.840 -15.069   0.677  1.00  0.00     0.040 C 
BRANCH   8   9
HETATM    9  C   UNL     1      41.105 -15.019   2.011  1.00  0.00     0.130 C 
BRANCH   9  10
HETATM   10  N   UNL     1      42.027 -14.808   3.118  1.00  0.00    -0.356 N 
HETATM   11  C   UNL     1      42.022 -15.502   4.312  1.00  0.00     0.044 A 
HETATM   12  C   UNL     1      43.047 -14.965   5.097  1.00  0.00    -0.008 A 
HETATM   13  C   UNL     1      41.199 -16.541   4.775  1.00  0.00     0.030 A 
HETATM   14  C   UNL     1      43.265 -15.488   6.387  1.00  0.00     0.014 A 
HETATM   15  C   UNL     1      43.666 -13.935   4.337  1.00  0.00     0.031 A 
HETATM   16  C   UNL     1      42.454 -16.528   6.854  1.00  0.00     0.001 A 
HETATM   17  C   UNL     1      41.436 -17.045   6.058  1.00  0.00     0.002 A 
HETATM   18  C   UNL     1      43.020 -13.861   3.126  1.00  0.00     0.092 A 
ENDBRANCH   9  10
ENDBRANCH   8   9
ENDBRANCH   7   8
ENDBRANCH   3   7
BRANCH   1  19
HETATM   19  C   UNL     1      44.418 -20.048   2.797  1.00  0.00     0.069 A 
HETATM   20  C   UNL     1      44.554 -19.835   4.178  1.00  0.00     0.095 A 
HETATM   21  C   UNL     1      44.663 -20.905   5.070  1.00  0.00     0.039 A 
HETATM   22  C   UNL     1      44.676 -22.208   4.577  1.00  0.00     0.003 A 
HETATM   23  C   UNL     1      44.570 -22.433   3.205  1.00  0.00     0.002 A 
HETATM   24  C   UNL     1      44.439 -21.358   2.317  1.00  0.00     0.032 A 
BRANCH  20  25
HETATM   25  O   UNL     1      44.570 -18.557   4.684  1.00  0.00    -0.354 OA
HETATM   26  C   UNL     1      45.267 -18.538   5.934  1.00  0.00     0.210 C 
ENDBRANCH  20  25
ENDBRANCH   1  19
TORSDOF 6
ENDMDL
