MODEL 1
REMARK VINA RESULT:      -8.5      0.000      0.000
REMARK  5 active torsions:
REMARK  status: ('A' for Active; 'I' for Inactive)
REMARK    1  A    between atoms: C_2  and  C_3 
REMARK    2  A    between atoms: C_5  and  N_6 
REMARK       I    between atoms: N_6  and  C_7 
REMARK    3  A    between atoms: C_7  and  C_8 
REMARK    4  A    between atoms: C_9  and  C_10 
REMARK    5  A    between atoms: C_21  and  O_22 
ROOT
HETATM    1  N   UNL     1      41.945 -14.811  -0.896  1.00  0.00    -0.321 N 
HETATM    2  C   UNL     1      41.058 -15.205   0.076  1.00  0.00     0.245 C 
HETATM    3  O   UNL     1      39.985 -14.689   0.362  1.00  0.00    -0.268 OA
HETATM    4  H   UNL     1      42.736 -15.412  -1.106  1.00  0.00     0.169 HD
ENDROOT
BRANCH   1   5
HETATM    5  C   UNL     1      41.872 -13.677  -1.737  1.00  0.00     0.069 A 
HETATM    6  C   UNL     1      42.185 -12.380  -1.315  1.00  0.00     0.040 A 
HETATM    7  C   UNL     1      42.122 -11.278  -2.193  1.00  0.00    -0.048 A 
HETATM    8  C   UNL     1      41.722 -11.528  -3.514  1.00  0.00     0.011 A 
HETATM    9  C   UNL     1      41.406 -12.820  -3.951  1.00  0.00     0.039 A 
HETATM   10  C   UNL     1      41.483 -13.900  -3.072  1.00  0.00     0.095 A 
BRANCH   7  11
HETATM   11  C   UNL     1      42.505  -9.873  -1.690  1.00  0.00    -0.024 C 
HETATM   12  C   UNL     1      42.270  -8.844  -2.817  1.00  0.00     0.019 C 
HETATM   13  C   UNL     1      43.992  -9.846  -1.279  1.00  0.00     0.019 C 
HETATM   14  C   UNL     1      41.686  -9.404  -0.466  1.00  0.00     0.019 C 
ENDBRANCH   7  11
BRANCH  10  15
HETATM   15  O   UNL     1      41.203 -15.207  -3.399  1.00  0.00    -0.354 OA
HETATM   16  C   UNL     1      39.847 -15.522  -3.691  1.00  0.00     0.210 C 
ENDBRANCH  10  15
ENDBRANCH   1   5
BRANCH   2  17
HETATM   17  C   UNL     1      41.533 -16.421   0.786  1.00  0.00     0.077 C 
HETATM   18  C   UNL     1      42.534 -16.328   1.676  1.00  0.00     0.038 C 
BRANCH  18  19
HETATM   19  C   UNL     1      43.085 -17.483   2.389  1.00  0.00     0.075 A 
HETATM   20  N   UNL     1      43.084 -18.678   1.751  1.00  0.00    -0.245 NA
HETATM   21  C   UNL     1      43.625 -19.723   2.408  1.00  0.00     0.086 A 
HETATM   22  C   UNL     1      44.154 -19.584   3.716  1.00  0.00     0.085 A 
HETATM   23  C   UNL     1      43.673 -20.967   1.791  1.00  0.00     0.034 A 
HETATM   24  N   UNL     1      44.143 -18.397   4.352  1.00  0.00    -0.256 NA
HETATM   25  C   UNL     1      44.698 -20.697   4.345  1.00  0.00     0.034 A 
HETATM   26  C   UNL     1      43.610 -17.357   3.667  1.00  0.00     0.148 A 
HETATM   27  C   UNL     1      44.739 -21.941   3.715  1.00  0.00     0.002 A 
HETATM   28  C   UNL     1      44.227 -22.076   2.431  1.00  0.00     0.002 A 
ENDBRANCH  18  19
ENDBRANCH   2  17
TORSDOF 5
ENDMDL
MODEL 2
REMARK VINA RESULT:      -8.2      6.751      9.140
REMARK  5 active torsions:
REMARK  status: ('A' for Active; 'I' for Inactive)
REMARK    1  A    between atoms: C_2  and  C_3 
REMARK    2  A    between atoms: C_5  and  N_6 
REMARK       I    between atoms: N_6  and  C_7 
REMARK    3  A    between atoms: C_7  and  C_8 
REMARK    4  A    between atoms: C_9  and  C_10 
REMARK    5  A    between atoms: C_21  and  O_22 
ROOT
HETATM    1  N   UNL     1      43.957 -13.226   7.609  1.00  0.00    -0.321 N 
HETATM    2  C   UNL     1      43.083 -13.294   6.552  1.00  0.00     0.245 C 
HETATM    3  O   UNL     1      42.281 -12.444   6.189  1.00  0.00    -0.268 OA
HETATM    4  H   UNL     1      44.653 -13.957   7.713  1.00  0.00     0.169 HD
ENDROOT
BRANCH   1   5
HETATM    5  C   UNL     1      44.081 -12.200   8.574  1.00  0.00     0.069 A 
HETATM    6  C   UNL     1      42.992 -11.492   9.094  1.00  0.00     0.040 A 
HETATM    7  C   UNL     1      43.156 -10.491  10.074  1.00  0.00    -0.048 A 
HETATM    8  C   UNL     1      44.462 -10.222  10.508  1.00  0.00     0.011 A 
HETATM    9  C   UNL     1      45.562 -10.923   9.998  1.00  0.00     0.039 A 
HETATM   10  C   UNL     1      45.380 -11.916   9.036  1.00  0.00     0.095 A 
BRANCH   7  11
HETATM   11  C   UNL     1      41.924  -9.758  10.638  1.00  0.00    -0.024 C 
HETATM   12  C   UNL     1      42.369  -8.801  11.765  1.00  0.00     0.019 C 
HETATM   13  C   UNL     1      40.916 -10.779  11.206  1.00  0.00     0.019 C 
HETATM   14  C   UNL     1      41.169  -8.910   9.589  1.00  0.00     0.019 C 
ENDBRANCH   7  11
BRANCH  10  15
HETATM   15  O   UNL     1      46.388 -12.668   8.475  1.00  0.00    -0.354 OA
HETATM   16  C   UNL     1      47.381 -11.966   7.738  1.00  0.00     0.210 C 
ENDBRANCH  10  15
ENDBRANCH   1   5
BRANCH   2  17
HETATM   17  C   UNL     1      43.225 -14.574   5.809  1.00  0.00     0.077 C 
HETATM   18  C   UNL     1      43.774 -15.640   6.413  1.00  0.00     0.038 C 
BRANCH  18  19
HETATM   19  C   UNL     1      43.985 -16.924   5.740  1.00  0.00     0.075 A 
HETATM   20  N   UNL     1      43.486 -17.070   4.490  1.00  0.00    -0.245 NA
HETATM   21  C   UNL     1      43.717 -18.247   3.873  1.00  0.00     0.086 A 
HETATM   22  C   UNL     1      44.433 -19.291   4.511  1.00  0.00     0.085 A 
HETATM   23  C   UNL     1      43.251 -18.442   2.578  1.00  0.00     0.034 A 
HETATM   24  N   UNL     1      44.917 -19.146   5.759  1.00  0.00    -0.256 NA
HETATM   25  C   UNL     1      44.640 -20.482   3.827  1.00  0.00     0.034 A 
HETATM   26  C   UNL     1      44.688 -17.951   6.354  1.00  0.00     0.148 A 
HETATM   27  C   UNL     1      44.166 -20.667   2.527  1.00  0.00     0.002 A 
HETATM   28  C   UNL     1      43.470 -19.642   1.900  1.00  0.00     0.002 A 
ENDBRANCH  18  19
ENDBRANCH   2  17
TORSDOF 5
ENDMDL
MODEL 3
REMARK VINA RESULT:      -8.0      2.283      9.437
REMARK  5 active torsions:
REMARK  status: ('A' for Active; 'I' for Inactive)
REMARK    1  A    between atoms: C_2  and  C_3 
REMARK    2  A    between atoms: C_5  and  N_6 
REMARK       I    between atoms: N_6  and  C_7 
REMARK    3  A    between atoms: C_7  and  C_8 
REMARK    4  A    between atoms: C_9  and  C_10 
REMARK    5  A    between atoms: C_21  and  O_22 
ROOT
HETATM    1  N   UNL     1      41.921 -16.122   2.304  1.00  0.00    -0.321 N 
HETATM    2  C   UNL     1      41.391 -16.787   1.225  1.00  0.00     0.245 C 
HETATM    3  O   UNL     1      40.860 -17.890   1.214  1.00  0.00    -0.268 OA
HETATM    4  H   UNL     1      42.214 -15.157   2.185  1.00  0.00     0.169 HD
ENDROOT
BRANCH   1   5
HETATM    5  C   UNL     1      42.054 -16.582   3.634  1.00  0.00     0.069 A 
HETATM    6  C   UNL     1      43.024 -17.507   4.038  1.00  0.00     0.040 A 
HETATM    7  C   UNL     1      43.139 -17.924   5.381  1.00  0.00    -0.048 A 
HETATM    8  C   UNL     1      42.234 -17.380   6.304  1.00  0.00     0.011 A 
HETATM    9  C   UNL     1      41.259 -16.453   5.914  1.00  0.00     0.039 A 
HETATM   10  C   UNL     1      41.166 -16.045   4.584  1.00  0.00     0.095 A 
BRANCH   7  11
HETATM   11  C   UNL     1      44.241 -18.922   5.784  1.00  0.00    -0.024 C 
HETATM   12  C   UNL     1      43.679 -19.911   6.828  1.00  0.00     0.019 C 
HETATM   13  C   UNL     1      45.441 -18.167   6.393  1.00  0.00     0.019 C 
HETATM   14  C   UNL     1      44.783 -19.761   4.605  1.00  0.00     0.019 C 
ENDBRANCH   7  11
BRANCH  10  15
HETATM   15  O   UNL     1      40.253 -15.138   4.097  1.00  0.00    -0.354 OA
HETATM   16  C   UNL     1      39.871 -14.079   4.968  1.00  0.00     0.210 C 
ENDBRANCH  10  15
ENDBRANCH   1   5
BRANCH   2  17
HETATM   17  C   UNL     1      41.497 -15.980  -0.019  1.00  0.00     0.077 C 
HETATM   18  C   UNL     1      41.682 -14.653   0.060  1.00  0.00     0.038 C 
BRANCH  18  19
HETATM   19  C   UNL     1      41.759 -13.781  -1.116  1.00  0.00     0.075 A 
HETATM   20  N   UNL     1      42.205 -12.515  -0.934  1.00  0.00    -0.245 NA
HETATM   21  C   UNL     1      42.300 -11.737  -2.031  1.00  0.00     0.086 A 
HETATM   22  C   UNL     1      41.932 -12.214  -3.314  1.00  0.00     0.085 A 
HETATM   23  C   UNL     1      42.777 -10.437  -1.907  1.00  0.00     0.034 A 
HETATM   24  N   UNL     1      41.477 -13.470  -3.489  1.00  0.00    -0.256 NA
HETATM   25  C   UNL     1      42.050 -11.367  -4.408  1.00  0.00     0.034 A 
HETATM   26  C   UNL     1      41.405 -14.240  -2.377  1.00  0.00     0.148 A 
HETATM   27  C   UNL     1      42.529 -10.063  -4.270  1.00  0.00     0.002 A 
HETATM   28  C   UNL     1      42.897  -9.597  -3.015  1.00  0.00     0.002 A 
ENDBRANCH  18  19
ENDBRANCH   2  17
TORSDOF 5
ENDMDL
MODEL 4
REMARK VINA RESULT:      -8.0      7.322      9.798
REMARK  5 active torsions:
REMARK  status: ('A' for Active; 'I' for Inactive)
REMARK    1  A    between atoms: C_2  and  C_3 
REMARK    2  A    between atoms: C_5  and  N_6 
REMARK       I    between atoms: N_6  and  C_7 
REMARK    3  A    between atoms: C_7  and  C_8 
REMARK    4  A    between atoms: C_9  and  C_10 
REMARK    5  A    between atoms: C_21  and  O_22 
ROOT
HETATM    1  N   UNL     1      43.309 -12.349   7.798  1.00  0.00    -0.321 N 
HETATM    2  C   UNL     1      42.354 -11.919   6.909  1.00  0.00     0.245 C 
HETATM    3  O   UNL     1      41.709 -10.880   6.948  1.00  0.00    -0.268 OA
HETATM    4  H   UNL     1      43.852 -13.175   7.567  1.00  0.00     0.169 HD
ENDROOT
BRANCH   1   5
HETATM    5  C   UNL     1      43.715 -11.737   9.006  1.00  0.00     0.069 A 
HETATM    6  C   UNL     1      42.859 -10.982   9.816  1.00  0.00     0.040 A 
HETATM    7  C   UNL     1      43.297 -10.408  11.027  1.00  0.00    -0.048 A 
HETATM    8  C   UNL     1      44.635 -10.615  11.391  1.00  0.00     0.011 A 
HETATM    9  C   UNL     1      45.504 -11.369  10.591  1.00  0.00     0.039 A 
HETATM   10  C   UNL     1      45.051 -11.937   9.401  1.00  0.00     0.095 A 
BRANCH   7  11
HETATM   11  C   UNL     1      42.310  -9.610  11.900  1.00  0.00    -0.024 C 
HETATM   12  C   UNL     1      43.012  -9.186  13.209  1.00  0.00     0.019 C 
HETATM   13  C   UNL     1      41.082 -10.479  12.240  1.00  0.00     0.019 C 
HETATM   14  C   UNL     1      41.783  -8.322  11.227  1.00  0.00     0.019 C 
ENDBRANCH   7  11
BRANCH  10  15
HETATM   15  O   UNL     1      45.816 -12.699   8.548  1.00  0.00    -0.354 OA
HETATM   16  C   UNL     1      46.932 -12.061   7.940  1.00  0.00     0.210 C 
ENDBRANCH  10  15
ENDBRANCH   1   5
BRANCH   2  17
HETATM   17  C   UNL     1      42.176 -12.884   5.792  1.00  0.00     0.077 C 
HETATM   18  C   UNL     1      42.565 -14.160   5.942  1.00  0.00     0.038 C 
BRANCH  18  19
HETATM   19  C   UNL     1      42.460 -15.163   4.879  1.00  0.00     0.075 A 
HETATM   20  N   UNL     1      43.306 -16.219   4.923  1.00  0.00    -0.245 NA
HETATM   21  C   UNL     1      43.175 -17.149   3.956  1.00  0.00     0.086 A 
HETATM   22  C   UNL     1      42.207 -17.019   2.928  1.00  0.00     0.085 A 
HETATM   23  C   UNL     1      44.000 -18.267   3.967  1.00  0.00     0.034 A 
HETATM   24  N   UNL     1      41.375 -15.962   2.881  1.00  0.00    -0.256 NA
HETATM   25  C   UNL     1      42.118 -18.008   1.957  1.00  0.00     0.034 A 
HETATM   26  C   UNL     1      41.513 -15.048   3.871  1.00  0.00     0.148 A 
HETATM   27  C   UNL     1      42.953 -19.126   1.978  1.00  0.00     0.002 A 
HETATM   28  C   UNL     1      43.897 -19.257   2.989  1.00  0.00     0.002 A 
ENDBRANCH  18  19
ENDBRANCH   2  17
TORSDOF 5
ENDMDL
MODEL 5
REMARK VINA RESULT:      -7.9      6.964      9.035
REMARK  5 active torsions:
REMARK  status: ('A' for Active; 'I' for Inactive)
REMARK    1  A    between atoms: C_2  and  C_3 
REMARK    2  A    between atoms: C_5  and  N_6 
REMARK       I    between atoms: N_6  and  C_7 
REMARK    3  A    between atoms: C_7  and  C_8 
REMARK    4  A    between atoms: C_9  and  C_10 
REMARK    5  A    between atoms: C_21  and  O_22 
ROOT
HETATM    1  N   UNL     1      43.283 -12.673   7.615  1.00  0.00    -0.321 N 
HETATM    2  C   UNL     1      44.520 -13.239   7.812  1.00  0.00     0.245 C 
HETATM    3  O   UNL     1      45.376 -12.903   8.619  1.00  0.00    -0.268 OA
HETATM    4  H   UNL     1      42.628 -13.140   6.996  1.00  0.00     0.169 HD
ENDROOT
BRANCH   1   5
HETATM    5  C   UNL     1      42.740 -11.525   8.236  1.00  0.00     0.069 A 
HETATM    6  C   UNL     1      42.934 -11.211   9.586  1.00  0.00     0.040 A 
HETATM    7  C   UNL     1      42.394 -10.042  10.161  1.00  0.00    -0.048 A 
HETATM    8  C   UNL     1      41.642  -9.201   9.328  1.00  0.00     0.011 A 
HETATM    9  C   UNL     1      41.440  -9.502   7.975  1.00  0.00     0.039 A 
HETATM   10  C   UNL     1      41.989 -10.658   7.420  1.00  0.00     0.095 A 
BRANCH   7  11
HETATM   11  C   UNL     1      42.659  -9.724  11.645  1.00  0.00    -0.024 C 
HETATM   12  C   UNL     1      42.580  -8.197  11.863  1.00  0.00     0.019 C 
HETATM   13  C   UNL     1      44.062 -10.223  12.051  1.00  0.00     0.019 C 
HETATM   14  C   UNL     1      41.647 -10.377  12.613  1.00  0.00     0.019 C 
ENDBRANCH   7  11
BRANCH  10  15
HETATM   15  O   UNL     1      41.859 -11.042   6.105  1.00  0.00    -0.354 OA
HETATM   16  C   UNL     1      41.127 -10.173   5.250  1.00  0.00     0.210 C 
ENDBRANCH  10  15
ENDBRANCH   1   5
BRANCH   2  17
HETATM   17  C   UNL     1      44.736 -14.403   6.913  1.00  0.00     0.077 C 
HETATM   18  C   UNL     1      43.901 -15.453   6.966  1.00  0.00     0.038 C 
BRANCH  18  19
HETATM   19  C   UNL     1      44.066 -16.654   6.142  1.00  0.00     0.075 A 
HETATM   20  N   UNL     1      43.455 -16.678   4.934  1.00  0.00    -0.245 NA
HETATM   21  C   UNL     1      43.644 -17.776   4.176  1.00  0.00     0.086 A 
HETATM   22  C   UNL     1      44.431 -18.865   4.629  1.00  0.00     0.085 A 
HETATM   23  C   UNL     1      43.061 -17.845   2.915  1.00  0.00     0.034 A 
HETATM   24  N   UNL     1      45.027 -18.842   5.836  1.00  0.00    -0.256 NA
HETATM   25  C   UNL     1      44.589 -19.972   3.805  1.00  0.00     0.034 A 
HETATM   26  C   UNL     1      44.838 -17.723   6.575  1.00  0.00     0.148 A 
HETATM   27  C   UNL     1      43.998 -20.029   2.541  1.00  0.00     0.002 A 
HETATM   28  C   UNL     1      43.233 -18.960   2.094  1.00  0.00     0.002 A 
ENDBRANCH  18  19
ENDBRANCH   2  17
TORSDOF 5
ENDMDL
MODEL 6
REMARK VINA RESULT:      -7.9      6.961     10.590
REMARK  5 active torsions:
REMARK  status: ('A' for Active; 'I' for Inactive)
REMARK    1  A    between atoms: C_2  and  C_3 
REMARK    2  A    between atoms: C_5  and  N_6 
REMARK       I    between atoms: N_6  and  C_7 
REMARK    3  A    between atoms: C_7  and  C_8 
REMARK    4  A    between atoms: C_9  and  C_10 
REMARK    5  A    between atoms: C_21  and  O_22 
ROOT
HETATM    1  N   UNL     1      43.021 -15.182   5.946  1.00  0.00    -0.321 N 
HETATM    2  C   UNL     1      43.442 -13.932   5.564  1.00  0.00     0.245 C 
HETATM    3  O   UNL     1      44.133 -13.638   4.597  1.00  0.00    -0.268 OA
HETATM    4  H   UNL     1      42.345 -15.259   6.699  1.00  0.00     0.169 HD
ENDROOT
BRANCH   1   5
HETATM    5  C   UNL     1      43.351 -16.429   5.367  1.00  0.00     0.069 A 
HETATM    6  C   UNL     1      43.050 -16.770   4.043  1.00  0.00     0.040 A 
HETATM    7  C   UNL     1      43.418 -18.016   3.495  1.00  0.00    -0.048 A 
HETATM    8  C   UNL     1      44.095 -18.914   4.333  1.00  0.00     0.011 A 
HETATM    9  C   UNL     1      44.403 -18.587   5.660  1.00  0.00     0.039 A 
HETATM   10  C   UNL     1      44.040 -17.346   6.182  1.00  0.00     0.095 A 
BRANCH   7  11
HETATM   11  C   UNL     1      43.092 -18.335   2.024  1.00  0.00    -0.024 C 
HETATM   12  C   UNL     1      41.630 -17.935   1.725  1.00  0.00     0.019 C 
HETATM   13  C   UNL     1      43.269 -19.845   1.758  1.00  0.00     0.019 C 
HETATM   14  C   UNL     1      43.987 -17.587   1.010  1.00  0.00     0.019 C 
ENDBRANCH   7  11
BRANCH  10  15
HETATM   15  O   UNL     1      44.300 -16.922   7.465  1.00  0.00    -0.354 OA
HETATM   16  C   UNL     1      43.535 -17.515   8.507  1.00  0.00     0.210 C 
ENDBRANCH  10  15
ENDBRANCH   1   5
BRANCH   2  17
HETATM   17  C   UNL     1      42.922 -12.880   6.477  1.00  0.00     0.077 C 
HETATM   18  C   UNL     1      43.625 -12.535   7.567  1.00  0.00     0.038 C 
BRANCH  18  19
HETATM   19  C   UNL     1      43.165 -11.536   8.537  1.00  0.00     0.075 A 
HETATM   20  N   UNL     1      43.716 -11.559   9.774  1.00  0.00    -0.245 NA
HETATM   21  C   UNL     1      43.306 -10.613  10.643  1.00  0.00     0.086 A 
HETATM   22  C   UNL     1      42.329  -9.650  10.286  1.00  0.00     0.085 A 
HETATM   23  C   UNL     1      43.857 -10.573  11.918  1.00  0.00     0.034 A 
HETATM   24  N   UNL     1      41.775  -9.639   9.058  1.00  0.00    -0.256 NA
HETATM   25  C   UNL     1      41.943  -8.700  11.223  1.00  0.00     0.034 A 
HETATM   26  C   UNL     1      42.213 -10.587   8.196  1.00  0.00     0.148 A 
HETATM   27  C   UNL     1      42.503  -8.671  12.501  1.00  0.00     0.002 A 
HETATM   28  C   UNL     1      43.466  -9.609  12.850  1.00  0.00     0.002 A 
ENDBRANCH  18  19
ENDBRANCH   2  17
TORSDOF 5
ENDMDL
MODEL 7
REMARK VINA RESULT:      -7.9      1.578      2.183
REMARK  5 active torsions:
REMARK  status: ('A' for Active; 'I' for Inactive)
REMARK    1  A    between atoms: C_2  and  C_3 
REMARK    2  A    between atoms: C_5  and  N_6 
REMARK       I    between atoms: N_6  and  C_7 
REMARK    3  A    between atoms: C_7  and  C_8 
REMARK    4  A    between atoms: C_9  and  C_10 
REMARK    5  A    between atoms: C_21  and  O_22 
ROOT
HETATM    1  N   UNL     1      41.200 -14.616   0.519  1.00  0.00    -0.321 N 
HETATM    2  C   UNL     1      41.406 -15.881   0.023  1.00  0.00     0.245 C 
HETATM    3  O   UNL     1      41.330 -16.249  -1.142  1.00  0.00    -0.268 OA
HETATM    4  H   UNL     1      41.425 -14.432   1.492  1.00  0.00     0.169 HD
ENDROOT
BRANCH   1   5
HETATM    5  C   UNL     1      40.774 -13.463  -0.180  1.00  0.00     0.069 A 
HETATM    6  C   UNL     1      41.639 -12.630  -0.898  1.00  0.00     0.040 A 
HETATM    7  C   UNL     1      41.169 -11.502  -1.603  1.00  0.00    -0.048 A 
HETATM    8  C   UNL     1      39.793 -11.237  -1.550  1.00  0.00     0.011 A 
HETATM    9  C   UNL     1      38.915 -12.062  -0.836  1.00  0.00     0.039 A 
HETATM   10  C   UNL     1      39.396 -13.179  -0.153  1.00  0.00     0.095 A 
BRANCH   7  11
HETATM   11  C   UNL     1      42.155 -10.631  -2.404  1.00  0.00    -0.024 C 
HETATM   12  C   UNL     1      42.493 -11.334  -3.737  1.00  0.00     0.019 C 
HETATM   13  C   UNL     1      43.453 -10.423  -1.596  1.00  0.00     0.019 C 
HETATM   14  C   UNL     1      41.607  -9.229  -2.753  1.00  0.00     0.019 C 
ENDBRANCH   7  11
BRANCH  10  15
HETATM   15  O   UNL     1      38.621 -14.056   0.571  1.00  0.00    -0.354 OA
HETATM   16  C   UNL     1      37.229 -13.774   0.648  1.00  0.00     0.210 C 
ENDBRANCH  10  15
ENDBRANCH   1   5
BRANCH   2  17
HETATM   17  C   UNL     1      41.788 -16.832   1.099  1.00  0.00     0.077 C 
HETATM   18  C   UNL     1      43.055 -17.267   1.189  1.00  0.00     0.038 C 
BRANCH  18  19
HETATM   19  C   UNL     1      43.505 -18.233   2.195  1.00  0.00     0.075 A 
HETATM   20  N   UNL     1      43.598 -19.532   1.824  1.00  0.00    -0.245 NA
HETATM   21  C   UNL     1      44.045 -20.402   2.752  1.00  0.00     0.086 A 
HETATM   22  C   UNL     1      44.383 -19.981   4.062  1.00  0.00     0.085 A 
HETATM   23  C   UNL     1      44.185 -21.744   2.418  1.00  0.00     0.034 A 
HETATM   24  N   UNL     1      44.278 -18.690   4.431  1.00  0.00    -0.256 NA
HETATM   25  C   UNL     1      44.836 -20.923   4.977  1.00  0.00     0.034 A 
HETATM   26  C   UNL     1      43.843 -17.830   3.479  1.00  0.00     0.148 A 
HETATM   27  C   UNL     1      44.972 -22.268   4.630  1.00  0.00     0.002 A 
HETATM   28  C   UNL     1      44.647 -22.680   3.344  1.00  0.00     0.002 A 
ENDBRANCH  18  19
ENDBRANCH   2  17
TORSDOF 5
ENDMDL
MODEL 8
REMARK VINA RESULT:      -7.8      8.165     10.348
REMARK  5 active torsions:
REMARK  status: ('A' for Active; 'I' for Inactive)
REMARK    1  A    between atoms: C_2  and  C_3 
REMARK    2  A    between atoms: C_5  and  N_6 
REMARK       I    between atoms: N_6  and  C_7 
REMARK    3  A    between atoms: C_7  and  C_8 
REMARK    4  A    between atoms: C_9  and  C_10 
REMARK    5  A    between atoms: C_21  and  O_22 
ROOT
HETATM    1  N   UNL     1      43.092 -11.750   8.965  1.00  0.00    -0.321 N 
HETATM    2  C   UNL     1      44.407 -11.981   8.640  1.00  0.00     0.245 C 
HETATM    3  O   UNL     1      45.383 -11.310   8.950  1.00  0.00    -0.268 OA
HETATM    4  H   UNL     1      42.404 -12.463   8.745  1.00  0.00     0.169 HD
ENDROOT
BRANCH   1   5
HETATM    5  C   UNL     1      42.545 -10.646   9.660  1.00  0.00     0.069 A 
HETATM    6  C   UNL     1      42.563 -10.525  11.054  1.00  0.00     0.040 A 
HETATM    7  C   UNL     1      42.028  -9.395  11.707  1.00  0.00    -0.048 A 
HETATM    8  C   UNL     1      41.464  -8.393  10.905  1.00  0.00     0.011 A 
HETATM    9  C   UNL     1      41.440  -8.501   9.508  1.00  0.00     0.039 A 
HETATM   10  C   UNL     1      41.982  -9.620   8.878  1.00  0.00     0.095 A 
BRANCH   7  11
HETATM   11  C   UNL     1      42.096  -9.292  13.243  1.00  0.00    -0.024 C 
HETATM   12  C   UNL     1      43.575  -9.272  13.689  1.00  0.00     0.019 C 
HETATM   13  C   UNL     1      41.387 -10.502  13.886  1.00  0.00     0.019 C 
HETATM   14  C   UNL     1      41.430  -8.019  13.813  1.00  0.00     0.019 C 
ENDBRANCH   7  11
BRANCH  10  15
HETATM   15  O   UNL     1      42.017  -9.822   7.517  1.00  0.00    -0.354 OA
HETATM   16  C   UNL     1      40.770  -9.821   6.834  1.00  0.00     0.210 C 
ENDBRANCH  10  15
ENDBRANCH   1   5
BRANCH   2  17
HETATM   17  C   UNL     1      44.561 -13.227   7.844  1.00  0.00     0.077 C 
HETATM   18  C   UNL     1      43.633 -13.556   6.932  1.00  0.00     0.038 C 
BRANCH  18  19
HETATM   19  C   UNL     1      43.690 -14.784   6.134  1.00  0.00     0.075 A 
HETATM   20  N   UNL     1      44.178 -15.898   6.728  1.00  0.00    -0.245 NA
HETATM   21  C   UNL     1      44.193 -17.027   5.990  1.00  0.00     0.086 A 
HETATM   22  C   UNL     1      43.737 -17.043   4.648  1.00  0.00     0.085 A 
HETATM   23  C   UNL     1      44.659 -18.207   6.557  1.00  0.00     0.034 A 
HETATM   24  N   UNL     1      43.264 -15.929   4.057  1.00  0.00    -0.256 NA
HETATM   25  C   UNL     1      43.777 -18.235   3.936  1.00  0.00     0.034 A 
HETATM   26  C   UNL     1      43.242 -14.811   4.821  1.00  0.00     0.148 A 
HETATM   27  C   UNL     1      44.249 -19.414   4.516  1.00  0.00     0.002 A 
HETATM   28  C   UNL     1      44.689 -19.400   5.833  1.00  0.00     0.002 A 
ENDBRANCH  18  19
ENDBRANCH   2  17
TORSDOF 5
ENDMDL
MODEL 9
REMARK VINA RESULT:      -7.6      4.321      5.515
REMARK  5 active torsions:
REMARK  status: ('A' for Active; 'I' for Inactive)
REMARK    1  A    between atoms: C_2  and  C_3 
REMARK    2  A    between atoms: C_5  and  N_6 
REMARK       I    between atoms: N_6  and  C_7 
REMARK    3  A    between atoms: C_7  and  C_8 
REMARK    4  A    between atoms: C_9  and  C_10 
REMARK    5  A    between atoms: C_21  and  O_22 
ROOT
HETATM    1  N   UNL     1      41.225 -14.117   3.868  1.00  0.00    -0.321 N 
HETATM    2  C   UNL     1      42.446 -14.179   3.241  1.00  0.00     0.245 C 
HETATM    3  O   UNL     1      43.134 -13.246   2.848  1.00  0.00    -0.268 OA
HETATM    4  H   UNL     1      40.832 -14.970   4.252  1.00  0.00     0.169 HD
ENDROOT
BRANCH   1   5
HETATM    5  C   UNL     1      40.438 -12.973   4.134  1.00  0.00     0.069 A 
HETATM    6  C   UNL     1      40.564 -12.201   5.294  1.00  0.00     0.040 A 
HETATM    7  C   UNL     1      39.775 -11.051   5.510  1.00  0.00    -0.048 A 
HETATM    8  C   UNL     1      38.845 -10.712   4.516  1.00  0.00     0.011 A 
HETATM    9  C   UNL     1      38.709 -11.475   3.350  1.00  0.00     0.039 A 
HETATM   10  C   UNL     1      39.504 -12.603   3.148  1.00  0.00     0.095 A 
BRANCH   7  11
HETATM   11  C   UNL     1      39.970 -10.215   6.789  1.00  0.00    -0.024 C 
HETATM   12  C   UNL     1      41.426  -9.705   6.850  1.00  0.00     0.019 C 
HETATM   13  C   UNL     1      39.681 -11.080   8.034  1.00  0.00     0.019 C 
HETATM   14  C   UNL     1      39.047  -8.978   6.871  1.00  0.00     0.019 C 
ENDBRANCH   7  11
BRANCH  10  15
HETATM   15  O   UNL     1      39.456 -13.416   2.039  1.00  0.00    -0.354 OA
HETATM   16  C   UNL     1      38.245 -13.418   1.293  1.00  0.00     0.210 C 
ENDBRANCH  10  15
ENDBRANCH   1   5
BRANCH   2  17
HETATM   17  C   UNL     1      42.913 -15.583   3.095  1.00  0.00     0.077 C 
HETATM   18  C   UNL     1      43.019 -16.368   4.179  1.00  0.00     0.038 C 
BRANCH  18  19
HETATM   19  C   UNL     1      43.506 -17.750   4.126  1.00  0.00     0.075 A 
HETATM   20  N   UNL     1      43.216 -18.479   3.023  1.00  0.00    -0.245 NA
HETATM   21  C   UNL     1      43.700 -19.736   2.977  1.00  0.00     0.086 A 
HETATM   22  C   UNL     1      44.462 -20.278   4.042  1.00  0.00     0.085 A 
HETATM   23  C   UNL     1      43.454 -20.522   1.856  1.00  0.00     0.034 A 
HETATM   24  N   UNL     1      44.738 -19.554   5.143  1.00  0.00    -0.256 NA
HETATM   25  C   UNL     1      44.933 -21.581   3.939  1.00  0.00     0.034 A 
HETATM   26  C   UNL     1      44.257 -18.288   5.162  1.00  0.00     0.148 A 
HETATM   27  C   UNL     1      44.679 -22.360   2.809  1.00  0.00     0.002 A 
HETATM   28  C   UNL     1      43.939 -21.827   1.762  1.00  0.00     0.002 A 
ENDBRANCH  18  19
ENDBRANCH   2  17
TORSDOF 5
ENDMDL
MODEL 10
REMARK VINA RESULT:      -7.4      5.832      8.205
REMARK  5 active torsions:
REMARK  status: ('A' for Active; 'I' for Inactive)
REMARK    1  A    between atoms: C_2  and  C_3 
REMARK    2  A    between atoms: C_5  and  N_6 
REMARK       I    between atoms: N_6  and  C_7 
REMARK    3  A    between atoms: C_7  and  C_8 
REMARK    4  A    between atoms: C_9  and  C_10 
REMARK    5  A    between atoms: C_21  and  O_22 
ROOT
HETATM    1  N   UNL     1      43.136 -13.695   6.391  1.00  0.00    -0.321 N 
HETATM    2  C   UNL     1      43.728 -14.891   6.720  1.00  0.00     0.245 C 
HETATM    3  O   UNL     1      44.141 -15.243   7.817  1.00  0.00    -0.268 OA
HETATM    4  H   UNL     1      42.727 -13.593   5.468  1.00  0.00     0.169 HD
ENDROOT
BRANCH   1   5
HETATM    5  C   UNL     1      42.940 -12.563   7.214  1.00  0.00     0.069 A 
HETATM    6  C   UNL     1      43.651 -12.334   8.397  1.00  0.00     0.040 A 
HETATM    7  C   UNL     1      43.442 -11.178   9.178  1.00  0.00    -0.048 A 
HETATM    8  C   UNL     1      42.481 -10.262   8.728  1.00  0.00     0.011 A 
HETATM    9  C   UNL     1      41.762 -10.477   7.545  1.00  0.00     0.039 A 
HETATM   10  C   UNL     1      41.988 -11.620   6.781  1.00  0.00     0.095 A 
BRANCH   7  11
HETATM   11  C   UNL     1      44.270 -10.956  10.458  1.00  0.00    -0.024 C 
HETATM   12  C   UNL     1      44.258 -12.246  11.307  1.00  0.00     0.019 C 
HETATM   13  C   UNL     1      43.668  -9.799  11.283  1.00  0.00     0.019 C 
HETATM   14  C   UNL     1      45.750 -10.600  10.189  1.00  0.00     0.019 C 
ENDBRANCH   7  11
BRANCH  10  15
HETATM   15  O   UNL     1      41.344 -11.924   5.603  1.00  0.00    -0.354 OA
HETATM   16  C   UNL     1      41.157 -10.859   4.678  1.00  0.00     0.210 C 
ENDBRANCH  10  15
ENDBRANCH   1   5
BRANCH   2  17
HETATM   17  C   UNL     1      43.802 -15.803   5.549  1.00  0.00     0.077 C 
HETATM   18  C   UNL     1      43.754 -17.132   5.732  1.00  0.00     0.038 C 
BRANCH  18  19
HETATM   19  C   UNL     1      43.860 -18.099   4.636  1.00  0.00     0.075 A 
HETATM   20  N   UNL     1      44.229 -19.364   4.946  1.00  0.00    -0.245 NA
HETATM   21  C   UNL     1      44.289 -20.249   3.930  1.00  0.00     0.086 A 
HETATM   22  C   UNL     1      43.998 -19.869   2.596  1.00  0.00     0.085 A 
HETATM   23  C   UNL     1      44.637 -21.568   4.194  1.00  0.00     0.034 A 
HETATM   24  N   UNL     1      43.643 -18.606   2.290  1.00  0.00    -0.256 NA
HETATM   25  C   UNL     1      44.079 -20.823   1.590  1.00  0.00     0.034 A 
HETATM   26  C   UNL     1      43.573 -17.737   3.327  1.00  0.00     0.148 A 
HETATM   27  C   UNL     1      44.431 -22.145   1.867  1.00  0.00     0.002 A 
HETATM   28  C   UNL     1      44.709 -22.520   3.175  1.00  0.00     0.002 A 
ENDBRANCH  18  19
ENDBRANCH   2  17
TORSDOF 5
ENDMDL
