MODEL 1
REMARK VINA RESULT:      -9.0      0.000      0.000
REMARK  10 active torsions:
REMARK  status: ('A' for Active; 'I' for Inactive)
REMARK    1  A    between atoms: C_2  and  O_3 
REMARK    2  A    between atoms: O_3  and  C_4 
REMARK    3  A    between atoms: C_9  and  C_10 
REMARK    4  A    between atoms: C_10  and  O_11 
REMARK    5  A    between atoms: O_11  and  C_12 
REMARK    6  A    between atoms: C_12  and  C_13 
REMARK       I    between atoms: C_13  and  N_14 
REMARK    7  A    between atoms: N_14  and  C_15 
REMARK    8  A    between atoms: C_16  and  C_17 
REMARK       I    between atoms: C_17  and  N_18 
REMARK    9  A    between atoms: N_18  and  C_19 
REMARK   10  A    between atoms: C_19  and  C_20 
ROOT
HETATM    1  C   UNL     1      42.612 -13.594   5.273  1.00  0.00     0.050 A 
HETATM    2  C   UNL     1      42.561 -14.870   4.673  1.00  0.00     0.058 A 
HETATM    3  C   UNL     1      42.206 -15.014   3.322  1.00  0.00     0.019 A 
HETATM    4  C   UNL     1      41.859 -13.898   2.566  1.00  0.00     0.001 A 
HETATM    5  C   UNL     1      41.863 -12.640   3.158  1.00  0.00     0.002 A 
HETATM    6  C   UNL     1      42.237 -12.488   4.498  1.00  0.00     0.030 A 
ENDROOT
BRANCH   1   7
HETATM    7  N   UNL     1      43.112 -13.454   6.594  1.00  0.00    -0.324 N 
HETATM    8  C   UNL     1      44.434 -13.521   7.002  1.00  0.00     0.246 C 
HETATM    9  O   UNL     1      45.414 -13.509   6.261  1.00  0.00    -0.271 OA
HETATM   10  H   UNL     1      42.405 -13.425   7.327  1.00  0.00     0.169 HD
BRANCH   8  11
HETATM   11  C   UNL     1      44.604 -13.609   8.525  1.00  0.00     0.282 C 
BRANCH  11  12
HETATM   12  O   UNL     1      45.714 -12.839   8.985  1.00  0.00    -0.308 OA
BRANCH  12  13
HETATM   13  C   UNL     1      45.421 -11.545   9.248  1.00  0.00     0.298 C 
HETATM   14  O   UNL     1      46.120 -10.593   8.930  1.00  0.00    -0.259 OA
BRANCH  13  15
HETATM   15  C   UNL     1      44.183 -11.389  10.042  1.00  0.00     0.092 A 
HETATM   16  C   UNL     1      42.958 -10.964   9.534  1.00  0.00     0.180 A 
HETATM   17  N   UNL     1      41.849 -10.816  10.306  1.00  0.00    -0.236 NA
HETATM   18  C   UNL     1      41.965 -11.084  11.624  1.00  0.00     0.119 A 
HETATM   19  C   UNL     1      43.140 -11.497  12.223  1.00  0.00     0.020 A 
HETATM   20  C   UNL     1      44.265 -11.649  11.418  1.00  0.00     0.023 A 
BRANCH  16  21
HETATM   21  O   UNL     1      42.862 -10.632   8.200  1.00  0.00    -0.334 OA
BRANCH  21  22
HETATM   22  C   UNL     1      41.537 -10.332   7.761  1.00  0.00     0.173 C 
HETATM   23  C   UNL     1      41.470  -8.847   7.456  1.00  0.00     0.034 C 
ENDBRANCH  21  22
ENDBRANCH  16  21
ENDBRANCH  13  15
ENDBRANCH  12  13
ENDBRANCH  11  12
ENDBRANCH   8  11
ENDBRANCH   1   7
BRANCH   2  24
HETATM   24  C   UNL     1      42.801 -16.131   5.423  1.00  0.00     0.254 C 
HETATM   25  N   UNL     1      43.656 -17.023   4.812  1.00  0.00    -0.349 N 
HETATM   26  H   UNL     1      44.054 -16.786   3.911  1.00  0.00     0.163 HD
HETATM   27  O   UNL     1      42.301 -16.305   6.526  1.00  0.00    -0.268 OA
BRANCH  25  28
HETATM   28  C   UNL     1      43.986 -18.312   5.395  1.00  0.00     0.114 C 
HETATM   29  C   UNL     1      45.266 -18.198   6.226  1.00  0.00     0.037 C 
BRANCH  28  30
HETATM   30  C   UNL     1      44.047 -19.364   4.302  1.00  0.00    -0.036 A 
HETATM   31  C   UNL     1      44.636 -20.625   4.486  1.00  0.00     0.009 A 
HETATM   32  C   UNL     1      44.669 -21.555   3.442  1.00  0.00     0.001 A 
HETATM   33  C   UNL     1      44.127 -21.234   2.199  1.00  0.00     0.000 A 
HETATM   34  C   UNL     1      43.557 -19.982   1.993  1.00  0.00     0.001 A 
HETATM   35  C   UNL     1      43.524 -19.053   3.034  1.00  0.00     0.009 A 
ENDBRANCH  28  30
ENDBRANCH  25  28
ENDBRANCH   2  24
TORSDOF 10
ENDMDL
MODEL 2
REMARK VINA RESULT:      -8.8      1.489      2.109
REMARK  10 active torsions:
REMARK  status: ('A' for Active; 'I' for Inactive)
REMARK    1  A    between atoms: C_2  and  O_3 
REMARK    2  A    between atoms: O_3  and  C_4 
REMARK    3  A    between atoms: C_9  and  C_10 
REMARK    4  A    between atoms: C_10  and  O_11 
REMARK    5  A    between atoms: O_11  and  C_12 
REMARK    6  A    between atoms: C_12  and  C_13 
REMARK       I    between atoms: C_13  and  N_14 
REMARK    7  A    between atoms: N_14  and  C_15 
REMARK    8  A    between atoms: C_16  and  C_17 
REMARK       I    between atoms: C_17  and  N_18 
REMARK    9  A    between atoms: N_18  and  C_19 
REMARK   10  A    between atoms: C_19  and  C_20 
ROOT
HETATM    1  C   UNL     1      42.008 -13.729   5.342  1.00  0.00     0.050 A 
HETATM    2  C   UNL     1      41.889 -14.390   4.101  1.00  0.00     0.058 A 
HETATM    3  C   UNL     1      40.634 -14.549   3.491  1.00  0.00     0.019 A 
HETATM    4  C   UNL     1      39.483 -14.091   4.126  1.00  0.00     0.001 A 
HETATM    5  C   UNL     1      39.584 -13.477   5.370  1.00  0.00     0.002 A 
HETATM    6  C   UNL     1      40.834 -13.296   5.972  1.00  0.00     0.030 A 
ENDROOT
BRANCH   1   7
HETATM    7  N   UNL     1      43.296 -13.449   5.872  1.00  0.00    -0.324 N 
HETATM    8  C   UNL     1      44.035 -14.236   6.739  1.00  0.00     0.246 C 
HETATM    9  O   UNL     1      43.790 -15.404   7.033  1.00  0.00    -0.271 OA
HETATM   10  H   UNL     1      43.648 -12.512   5.687  1.00  0.00     0.169 HD
BRANCH   8  11
HETATM   11  C   UNL     1      45.253 -13.517   7.335  1.00  0.00     0.282 C 
BRANCH  11  12
HETATM   12  O   UNL     1      45.020 -13.092   8.677  1.00  0.00    -0.308 OA
BRANCH  12  13
HETATM   13  C   UNL     1      45.320 -11.794   8.908  1.00  0.00     0.298 C 
HETATM   14  O   UNL     1      46.325 -11.228   8.502  1.00  0.00    -0.259 OA
BRANCH  13  15
HETATM   15  C   UNL     1      44.333 -11.126   9.783  1.00  0.00     0.092 A 
HETATM   16  C   UNL     1      43.076 -10.686   9.376  1.00  0.00     0.180 A 
HETATM   17  N   UNL     1      42.207 -10.057  10.211  1.00  0.00    -0.236 NA
HETATM   18  C   UNL     1      42.604  -9.848  11.484  1.00  0.00     0.119 A 
HETATM   19  C   UNL     1      43.836 -10.234  11.977  1.00  0.00     0.020 A 
HETATM   20  C   UNL     1      44.712 -10.881  11.111  1.00  0.00     0.023 A 
BRANCH  16  21
HETATM   21  O   UNL     1      42.700 -10.847   8.060  1.00  0.00    -0.334 OA
BRANCH  21  22
HETATM   22  C   UNL     1      41.488 -10.181   7.708  1.00  0.00     0.173 C 
HETATM   23  C   UNL     1      41.638  -9.655   6.291  1.00  0.00     0.034 C 
ENDBRANCH  21  22
ENDBRANCH  16  21
ENDBRANCH  13  15
ENDBRANCH  12  13
ENDBRANCH  11  12
ENDBRANCH   8  11
ENDBRANCH   1   7
BRANCH   2  24
HETATM   24  C   UNL     1      43.040 -15.016   3.399  1.00  0.00     0.254 C 
HETATM   25  N   UNL     1      42.893 -16.357   3.111  1.00  0.00    -0.349 N 
HETATM   26  H   UNL     1      42.044 -16.830   3.393  1.00  0.00     0.163 HD
HETATM   27  O   UNL     1      44.007 -14.344   3.067  1.00  0.00    -0.268 OA
BRANCH  25  28
HETATM   28  C   UNL     1      43.927 -17.129   2.447  1.00  0.00     0.114 C 
HETATM   29  C   UNL     1      43.556 -17.347   0.978  1.00  0.00     0.037 C 
BRANCH  28  30
HETATM   30  C   UNL     1      44.181 -18.412   3.220  1.00  0.00    -0.036 A 
HETATM   31  C   UNL     1      44.375 -19.655   2.597  1.00  0.00     0.009 A 
HETATM   32  C   UNL     1      44.599 -20.805   3.359  1.00  0.00     0.001 A 
HETATM   33  C   UNL     1      44.620 -20.733   4.750  1.00  0.00     0.000 A 
HETATM   34  C   UNL     1      44.409 -19.513   5.384  1.00  0.00     0.001 A 
HETATM   35  C   UNL     1      44.184 -18.364   4.625  1.00  0.00     0.009 A 
ENDBRANCH  28  30
ENDBRANCH  25  28
ENDBRANCH   2  24
TORSDOF 10
ENDMDL
MODEL 3
REMARK VINA RESULT:      -8.3      4.573      8.534
REMARK  10 active torsions:
REMARK  status: ('A' for Active; 'I' for Inactive)
REMARK    1  A    between atoms: C_2  and  O_3 
REMARK    2  A    between atoms: O_3  and  C_4 
REMARK    3  A    between atoms: C_9  and  C_10 
REMARK    4  A    between atoms: C_10  and  O_11 
REMARK    5  A    between atoms: O_11  and  C_12 
REMARK    6  A    between atoms: C_12  and  C_13 
REMARK       I    between atoms: C_13  and  N_14 
REMARK    7  A    between atoms: N_14  and  C_15 
REMARK    8  A    between atoms: C_16  and  C_17 
REMARK       I    between atoms: C_17  and  N_18 
REMARK    9  A    between atoms: N_18  and  C_19 
REMARK   10  A    between atoms: C_19  and  C_20 
ROOT
HETATM    1  C   UNL     1      44.161 -19.656   2.917  1.00  0.00     0.050 A 
HETATM    2  C   UNL     1      44.524 -19.836   4.268  1.00  0.00     0.058 A 
HETATM    3  C   UNL     1      44.774 -21.120   4.779  1.00  0.00     0.019 A 
HETATM    4  C   UNL     1      44.626 -22.239   3.965  1.00  0.00     0.001 A 
HETATM    5  C   UNL     1      44.226 -22.078   2.643  1.00  0.00     0.002 A 
HETATM    6  C   UNL     1      43.997 -20.799   2.123  1.00  0.00     0.030 A 
ENDROOT
BRANCH   1   7
HETATM    7  N   UNL     1      44.055 -18.345   2.382  1.00  0.00    -0.324 N 
HETATM    8  C   UNL     1      42.911 -17.572   2.276  1.00  0.00     0.246 C 
HETATM    9  O   UNL     1      41.832 -17.811   2.814  1.00  0.00    -0.271 OA
HETATM   10  H   UNL     1      44.892 -17.995   1.918  1.00  0.00     0.169 HD
BRANCH   8  11
HETATM   11  C   UNL     1      43.091 -16.325   1.400  1.00  0.00     0.282 C 
BRANCH  11  12
HETATM   12  O   UNL     1      41.901 -15.998   0.684  1.00  0.00    -0.308 OA
BRANCH  12  13
HETATM   13  C   UNL     1      41.605 -14.678   0.673  1.00  0.00     0.298 C 
HETATM   14  O   UNL     1      42.396 -13.784   0.940  1.00  0.00    -0.259 OA
BRANCH  13  15
HETATM   15  C   UNL     1      40.181 -14.414   0.375  1.00  0.00     0.092 A 
HETATM   16  C   UNL     1      39.696 -13.941  -0.842  1.00  0.00     0.180 A 
HETATM   17  N   UNL     1      38.378 -13.692  -1.066  1.00  0.00    -0.236 NA
HETATM   18  C   UNL     1      37.520 -13.907  -0.046  1.00  0.00     0.119 A 
HETATM   19  C   UNL     1      37.907 -14.360   1.201  1.00  0.00     0.020 A 
HETATM   20  C   UNL     1      39.259 -14.615   1.412  1.00  0.00     0.023 A 
BRANCH  16  21
HETATM   21  O   UNL     1      40.584 -13.664  -1.858  1.00  0.00    -0.334 OA
BRANCH  21  22
HETATM   22  C   UNL     1      40.286 -14.312  -3.094  1.00  0.00     0.173 C 
HETATM   23  C   UNL     1      40.834 -15.727  -3.024  1.00  0.00     0.034 C 
ENDBRANCH  21  22
ENDBRANCH  16  21
ENDBRANCH  13  15
ENDBRANCH  12  13
ENDBRANCH  11  12
ENDBRANCH   8  11
ENDBRANCH   1   7
BRANCH   2  24
HETATM   24  C   UNL     1      44.597 -18.719   5.247  1.00  0.00     0.254 C 
HETATM   25  N   UNL     1      43.408 -18.056   5.469  1.00  0.00    -0.349 N 
HETATM   26  H   UNL     1      42.580 -18.347   4.964  1.00  0.00     0.163 HD
HETATM   27  O   UNL     1      45.642 -18.472   5.834  1.00  0.00    -0.268 OA
BRANCH  25  28
HETATM   28  C   UNL     1      43.303 -16.929   6.378  1.00  0.00     0.114 C 
HETATM   29  C   UNL     1      42.808 -17.403   7.746  1.00  0.00     0.037 C 
BRANCH  28  30
HETATM   30  C   UNL     1      42.444 -15.846   5.749  1.00  0.00    -0.036 A 
HETATM   31  C   UNL     1      42.957 -14.871   4.879  1.00  0.00     0.009 A 
HETATM   32  C   UNL     1      42.121 -13.894   4.331  1.00  0.00     0.001 A 
HETATM   33  C   UNL     1      40.766 -13.869   4.654  1.00  0.00     0.000 A 
HETATM   34  C   UNL     1      40.244 -14.815   5.531  1.00  0.00     0.001 A 
HETATM   35  C   UNL     1      41.078 -15.791   6.078  1.00  0.00     0.009 A 
ENDBRANCH  28  30
ENDBRANCH  25  28
ENDBRANCH   2  24
TORSDOF 10
ENDMDL
MODEL 4
REMARK VINA RESULT:      -8.2      1.884      3.161
REMARK  10 active torsions:
REMARK  status: ('A' for Active; 'I' for Inactive)
REMARK    1  A    between atoms: C_2  and  O_3 
REMARK    2  A    between atoms: O_3  and  C_4 
REMARK    3  A    between atoms: C_9  and  C_10 
REMARK    4  A    between atoms: C_10  and  O_11 
REMARK    5  A    between atoms: O_11  and  C_12 
REMARK    6  A    between atoms: C_12  and  C_13 
REMARK       I    between atoms: C_13  and  N_14 
REMARK    7  A    between atoms: N_14  and  C_15 
REMARK    8  A    between atoms: C_16  and  C_17 
REMARK       I    between atoms: C_17  and  N_18 
REMARK    9  A    between atoms: N_18  and  C_19 
REMARK   10  A    between atoms: C_19  and  C_20 
ROOT
HETATM    1  C   UNL     1      40.195 -13.521   3.591  1.00  0.00     0.050 A 
HETATM    2  C   UNL     1      40.291 -14.922   3.454  1.00  0.00     0.058 A 
HETATM    3  C   UNL     1      39.703 -15.577   2.359  1.00  0.00     0.019 A 
HETATM    4  C   UNL     1      38.981 -14.853   1.414  1.00  0.00     0.001 A 
HETATM    5  C   UNL     1      38.844 -13.478   1.563  1.00  0.00     0.002 A 
HETATM    6  C   UNL     1      39.446 -12.817   2.640  1.00  0.00     0.030 A 
ENDROOT
BRANCH   1   7
HETATM    7  N   UNL     1      40.917 -12.861   4.621  1.00  0.00    -0.324 N 
HETATM    8  C   UNL     1      40.403 -12.299   5.777  1.00  0.00     0.246 C 
HETATM    9  O   UNL     1      39.261 -12.456   6.205  1.00  0.00    -0.271 OA
HETATM   10  H   UNL     1      41.898 -12.680   4.418  1.00  0.00     0.169 HD
BRANCH   8  11
HETATM   11  C   UNL     1      41.410 -11.423   6.535  1.00  0.00     0.282 C 
BRANCH  11  12
HETATM   12  O   UNL     1      40.987 -11.157   7.872  1.00  0.00    -0.308 OA
BRANCH  12  13
HETATM   13  C   UNL     1      41.718 -10.212   8.507  1.00  0.00     0.298 C 
HETATM   14  O   UNL     1      41.948  -9.095   8.065  1.00  0.00    -0.259 OA
BRANCH  13  15
HETATM   15  C   UNL     1      42.291 -10.694   9.782  1.00  0.00     0.092 A 
HETATM   16  C   UNL     1      43.595 -11.154   9.947  1.00  0.00     0.180 A 
HETATM   17  N   UNL     1      44.074 -11.607  11.136  1.00  0.00    -0.236 NA
HETATM   18  C   UNL     1      43.228 -11.616  12.188  1.00  0.00     0.119 A 
HETATM   19  C   UNL     1      41.914 -11.194  12.120  1.00  0.00     0.020 A 
HETATM   20  C   UNL     1      41.441 -10.729  10.897  1.00  0.00     0.023 A 
BRANCH  16  21
HETATM   21  O   UNL     1      44.435 -11.201   8.856  1.00  0.00    -0.334 OA
BRANCH  21  22
HETATM   22  C   UNL     1      45.336 -12.308   8.853  1.00  0.00     0.173 C 
HETATM   23  C   UNL     1      44.807 -13.340   7.874  1.00  0.00     0.034 C 
ENDBRANCH  21  22
ENDBRANCH  16  21
ENDBRANCH  13  15
ENDBRANCH  12  13
ENDBRANCH  11  12
ENDBRANCH   8  11
ENDBRANCH   1   7
BRANCH   2  24
HETATM   24  C   UNL     1      40.939 -15.796   4.467  1.00  0.00     0.254 C 
HETATM   25  N   UNL     1      42.028 -16.510   4.014  1.00  0.00    -0.349 N 
HETATM   26  H   UNL     1      42.312 -16.414   3.047  1.00  0.00     0.163 HD
HETATM   27  O   UNL     1      40.540 -15.811   5.624  1.00  0.00    -0.268 OA
BRANCH  25  28
HETATM   28  C   UNL     1      42.767 -17.427   4.864  1.00  0.00     0.114 C 
HETATM   29  C   UNL     1      43.821 -16.662   5.667  1.00  0.00     0.037 C 
BRANCH  28  30
HETATM   30  C   UNL     1      43.328 -18.561   4.023  1.00  0.00    -0.036 A 
HETATM   31  C   UNL     1      42.891 -18.833   2.718  1.00  0.00     0.009 A 
HETATM   32  C   UNL     1      43.439 -19.894   1.990  1.00  0.00     0.001 A 
HETATM   33  C   UNL     1      44.420 -20.702   2.560  1.00  0.00     0.000 A 
HETATM   34  C   UNL     1      44.851 -20.459   3.861  1.00  0.00     0.001 A 
HETATM   35  C   UNL     1      44.304 -19.401   4.588  1.00  0.00     0.009 A 
ENDBRANCH  28  30
ENDBRANCH  25  28
ENDBRANCH   2  24
TORSDOF 10
ENDMDL
MODEL 5
REMARK VINA RESULT:      -8.2      2.702      7.704
REMARK  10 active torsions:
REMARK  status: ('A' for Active; 'I' for Inactive)
REMARK    1  A    between atoms: C_2  and  O_3 
REMARK    2  A    between atoms: O_3  and  C_4 
REMARK    3  A    between atoms: C_9  and  C_10 
REMARK    4  A    between atoms: C_10  and  O_11 
REMARK    5  A    between atoms: O_11  and  C_12 
REMARK    6  A    between atoms: C_12  and  C_13 
REMARK       I    between atoms: C_13  and  N_14 
REMARK    7  A    between atoms: N_14  and  C_15 
REMARK    8  A    between atoms: C_16  and  C_17 
REMARK       I    between atoms: C_17  and  N_18 
REMARK    9  A    between atoms: N_18  and  C_19 
REMARK   10  A    between atoms: C_19  and  C_20 
ROOT
HETATM    1  C   UNL     1      40.874 -13.725   3.394  1.00  0.00     0.050 A 
HETATM    2  C   UNL     1      41.590 -13.227   4.503  1.00  0.00     0.058 A 
HETATM    3  C   UNL     1      41.051 -12.210   5.307  1.00  0.00     0.019 A 
HETATM    4  C   UNL     1      39.817 -11.649   4.994  1.00  0.00     0.001 A 
HETATM    5  C   UNL     1      39.121 -12.102   3.878  1.00  0.00     0.002 A 
HETATM    6  C   UNL     1      39.644 -13.131   3.086  1.00  0.00     0.030 A 
ENDROOT
BRANCH   1   7
HETATM    7  N   UNL     1      41.367 -14.850   2.682  1.00  0.00    -0.324 N 
HETATM    8  C   UNL     1      41.817 -14.883   1.373  1.00  0.00     0.246 C 
HETATM    9  O   UNL     1      42.058 -13.901   0.673  1.00  0.00    -0.271 OA
HETATM   10  H   UNL     1      41.258 -15.747   3.153  1.00  0.00     0.169 HD
BRANCH   8  11
HETATM   11  C   UNL     1      42.014 -16.303   0.825  1.00  0.00     0.282 C 
BRANCH  11  12
HETATM   12  O   UNL     1      42.227 -17.254   1.867  1.00  0.00    -0.308 OA
BRANCH  12  13
HETATM   13  C   UNL     1      43.527 -17.552   2.090  1.00  0.00     0.298 C 
HETATM   14  O   UNL     1      44.455 -17.202   1.374  1.00  0.00    -0.259 OA
BRANCH  13  15
HETATM   15  C   UNL     1      43.720 -18.426   3.267  1.00  0.00     0.092 A 
HETATM   16  C   UNL     1      43.158 -18.207   4.522  1.00  0.00     0.180 A 
HETATM   17  N   UNL     1      43.379 -19.027   5.584  1.00  0.00    -0.236 NA
HETATM   18  C   UNL     1      44.192 -20.088   5.396  1.00  0.00     0.119 A 
HETATM   19  C   UNL     1      44.808 -20.379   4.193  1.00  0.00     0.020 A 
HETATM   20  C   UNL     1      44.567 -19.532   3.115  1.00  0.00     0.023 A 
BRANCH  16  21
HETATM   21  O   UNL     1      42.379 -17.089   4.725  1.00  0.00    -0.334 OA
BRANCH  21  22
HETATM   22  C   UNL     1      41.027 -17.370   5.087  1.00  0.00     0.173 C 
HETATM   23  C   UNL     1      40.648 -16.449   6.233  1.00  0.00     0.034 C 
ENDBRANCH  21  22
ENDBRANCH  16  21
ENDBRANCH  13  15
ENDBRANCH  12  13
ENDBRANCH  11  12
ENDBRANCH   8  11
ENDBRANCH   1   7
BRANCH   2  24
HETATM   24  C   UNL     1      42.964 -13.677   4.853  1.00  0.00     0.254 C 
HETATM   25  N   UNL     1      43.103 -14.208   6.117  1.00  0.00    -0.349 N 
HETATM   26  H   UNL     1      42.293 -14.252   6.724  1.00  0.00     0.163 HD
HETATM   27  O   UNL     1      43.868 -13.616   4.030  1.00  0.00    -0.268 OA
BRANCH  25  28
HETATM   28  C   UNL     1      44.378 -14.678   6.630  1.00  0.00     0.114 C 
HETATM   29  C   UNL     1      44.177 -15.966   7.431  1.00  0.00     0.037 C 
BRANCH  28  30
HETATM   30  C   UNL     1      45.056 -13.563   7.406  1.00  0.00    -0.036 A 
HETATM   31  C   UNL     1      46.342 -13.090   7.100  1.00  0.00     0.009 A 
HETATM   32  C   UNL     1      46.921 -12.063   7.852  1.00  0.00     0.001 A 
HETATM   33  C   UNL     1      46.231 -11.505   8.926  1.00  0.00     0.000 A 
HETATM   34  C   UNL     1      44.964 -11.976   9.257  1.00  0.00     0.001 A 
HETATM   35  C   UNL     1      44.385 -13.001   8.507  1.00  0.00     0.009 A 
ENDBRANCH  28  30
ENDBRANCH  25  28
ENDBRANCH   2  24
TORSDOF 10
ENDMDL
MODEL 6
REMARK VINA RESULT:      -8.2      4.766      8.433
REMARK  10 active torsions:
REMARK  status: ('A' for Active; 'I' for Inactive)
REMARK    1  A    between atoms: C_2  and  O_3 
REMARK    2  A    between atoms: O_3  and  C_4 
REMARK    3  A    between atoms: C_9  and  C_10 
REMARK    4  A    between atoms: C_10  and  O_11 
REMARK    5  A    between atoms: O_11  and  C_12 
REMARK    6  A    between atoms: C_12  and  C_13 
REMARK       I    between atoms: C_13  and  N_14 
REMARK    7  A    between atoms: N_14  and  C_15 
REMARK    8  A    between atoms: C_16  and  C_17 
REMARK       I    between atoms: C_17  and  N_18 
REMARK    9  A    between atoms: N_18  and  C_19 
REMARK   10  A    between atoms: C_19  and  C_20 
ROOT
HETATM    1  C   UNL     1      41.012 -15.256   3.747  1.00  0.00     0.050 A 
HETATM    2  C   UNL     1      41.410 -16.587   3.994  1.00  0.00     0.058 A 
HETATM    3  C   UNL     1      41.203 -17.177   5.251  1.00  0.00     0.019 A 
HETATM    4  C   UNL     1      40.638 -16.438   6.287  1.00  0.00     0.001 A 
HETATM    5  C   UNL     1      40.282 -15.112   6.069  1.00  0.00     0.002 A 
HETATM    6  C   UNL     1      40.466 -14.526   4.811  1.00  0.00     0.030 A 
ENDROOT
BRANCH   1   7
HETATM    7  N   UNL     1      41.095 -14.725   2.433  1.00  0.00    -0.324 N 
HETATM    8  C   UNL     1      42.024 -13.819   1.951  1.00  0.00     0.246 C 
HETATM    9  O   UNL     1      43.056 -13.477   2.525  1.00  0.00    -0.271 OA
HETATM   10  H   UNL     1      40.309 -14.948   1.823  1.00  0.00     0.169 HD
BRANCH   8  11
HETATM   11  C   UNL     1      41.664 -13.241   0.576  1.00  0.00     0.282 C 
BRANCH  11  12
HETATM   12  O   UNL     1      41.499 -14.263  -0.407  1.00  0.00    -0.308 OA
BRANCH  12  13
HETATM   13  C   UNL     1      41.380 -13.801  -1.673  1.00  0.00     0.298 C 
HETATM   14  O   UNL     1      42.132 -12.987  -2.192  1.00  0.00    -0.259 OA
BRANCH  13  15
HETATM   15  C   UNL     1      40.183 -14.328  -2.364  1.00  0.00     0.092 A 
HETATM   16  C   UNL     1      38.881 -13.880  -2.154  1.00  0.00     0.180 A 
HETATM   17  N   UNL     1      37.806 -14.408  -2.798  1.00  0.00    -0.236 NA
HETATM   18  C   UNL     1      38.031 -15.418  -3.665  1.00  0.00     0.119 A 
HETATM   19  C   UNL     1      39.283 -15.940  -3.928  1.00  0.00     0.020 A 
HETATM   20  C   UNL     1      40.373 -15.385  -3.264  1.00  0.00     0.023 A 
BRANCH  16  21
HETATM   21  O   UNL     1      38.650 -12.892  -1.222  1.00  0.00    -0.334 OA
BRANCH  21  22
HETATM   22  C   UNL     1      37.533 -13.136  -0.368  1.00  0.00     0.173 C 
HETATM   23  C   UNL     1      37.996 -14.047   0.756  1.00  0.00     0.034 C 
ENDBRANCH  21  22
ENDBRANCH  16  21
ENDBRANCH  13  15
ENDBRANCH  12  13
ENDBRANCH  11  12
ENDBRANCH   8  11
ENDBRANCH   1   7
BRANCH   2  24
HETATM   24  C   UNL     1      42.124 -17.421   2.991  1.00  0.00     0.254 C 
HETATM   25  N   UNL     1      43.492 -17.485   3.150  1.00  0.00    -0.349 N 
HETATM   26  H   UNL     1      43.925 -16.969   3.907  1.00  0.00     0.163 HD
HETATM   27  O   UNL     1      41.502 -18.037   2.136  1.00  0.00    -0.268 OA
BRANCH  25  28
HETATM   28  C   UNL     1      44.347 -18.237   2.249  1.00  0.00     0.114 C 
HETATM   29  C   UNL     1      43.905 -18.017   0.801  1.00  0.00     0.037 C 
BRANCH  28  30
HETATM   30  C   UNL     1      44.375 -19.695   2.674  1.00  0.00    -0.036 A 
HETATM   31  C   UNL     1      43.995 -20.747   1.826  1.00  0.00     0.009 A 
HETATM   32  C   UNL     1      44.036 -22.072   2.271  1.00  0.00     0.001 A 
HETATM   33  C   UNL     1      44.444 -22.362   3.571  1.00  0.00     0.000 A 
HETATM   34  C   UNL     1      44.804 -21.331   4.432  1.00  0.00     0.001 A 
HETATM   35  C   UNL     1      44.764 -20.008   3.989  1.00  0.00     0.009 A 
ENDBRANCH  28  30
ENDBRANCH  25  28
ENDBRANCH   2  24
TORSDOF 10
ENDMDL
MODEL 7
REMARK VINA RESULT:      -8.1      4.595      9.283
REMARK  10 active torsions:
REMARK  status: ('A' for Active; 'I' for Inactive)
REMARK    1  A    between atoms: C_2  and  O_3 
REMARK    2  A    between atoms: O_3  and  C_4 
REMARK    3  A    between atoms: C_9  and  C_10 
REMARK    4  A    between atoms: C_10  and  O_11 
REMARK    5  A    between atoms: O_11  and  C_12 
REMARK    6  A    between atoms: C_12  and  C_13 
REMARK       I    between atoms: C_13  and  N_14 
REMARK    7  A    between atoms: N_14  and  C_15 
REMARK    8  A    between atoms: C_16  and  C_17 
REMARK       I    between atoms: C_17  and  N_18 
REMARK    9  A    between atoms: N_18  and  C_19 
REMARK   10  A    between atoms: C_19  and  C_20 
ROOT
HETATM    1  C   UNL     1      43.091 -19.441   2.435  1.00  0.00     0.050 A 
HETATM    2  C   UNL     1      43.470 -19.174   3.767  1.00  0.00     0.058 A 
HETATM    3  C   UNL     1      44.366 -20.021   4.442  1.00  0.00     0.019 A 
HETATM    4  C   UNL     1      44.860 -21.160   3.814  1.00  0.00     0.001 A 
HETATM    5  C   UNL     1      44.459 -21.457   2.516  1.00  0.00     0.002 A 
HETATM    6  C   UNL     1      43.584 -20.605   1.832  1.00  0.00     0.030 A 
ENDROOT
BRANCH   1   7
HETATM    7  N   UNL     1      42.302 -18.499   1.723  1.00  0.00    -0.324 N 
HETATM    8  C   UNL     1      42.714 -17.283   1.203  1.00  0.00     0.246 C 
HETATM    9  O   UNL     1      43.879 -16.908   1.093  1.00  0.00    -0.271 OA
HETATM   10  H   UNL     1      41.302 -18.693   1.706  1.00  0.00     0.169 HD
BRANCH   8  11
HETATM   11  C   UNL     1      41.555 -16.388   0.742  1.00  0.00     0.282 C 
BRANCH  11  12
HETATM   12  O   UNL     1      41.544 -16.214  -0.674  1.00  0.00    -0.308 OA
BRANCH  12  13
HETATM   13  C   UNL     1      41.220 -14.964  -1.077  1.00  0.00     0.298 C 
HETATM   14  O   UNL     1      41.750 -13.940  -0.668  1.00  0.00    -0.259 OA
BRANCH  13  15
HETATM   15  C   UNL     1      40.087 -14.946  -2.026  1.00  0.00     0.092 A 
HETATM   16  C   UNL     1      38.921 -14.201  -1.861  1.00  0.00     0.180 A 
HETATM   17  N   UNL     1      37.893 -14.230  -2.750  1.00  0.00    -0.236 NA
HETATM   18  C   UNL     1      38.022 -15.032  -3.828  1.00  0.00     0.119 A 
HETATM   19  C   UNL     1      39.133 -15.818  -4.071  1.00  0.00     0.020 A 
HETATM   20  C   UNL     1      40.177 -15.774  -3.154  1.00  0.00     0.023 A 
BRANCH  16  21
HETATM   21  O   UNL     1      38.769 -13.432  -0.728  1.00  0.00    -0.334 OA
BRANCH  21  22
HETATM   22  C   UNL     1      37.771 -13.907   0.177  1.00  0.00     0.173 C 
HETATM   23  C   UNL     1      38.477 -14.489   1.388  1.00  0.00     0.034 C 
ENDBRANCH  21  22
ENDBRANCH  16  21
ENDBRANCH  13  15
ENDBRANCH  12  13
ENDBRANCH  11  12
ENDBRANCH   8  11
ENDBRANCH   1   7
BRANCH   2  24
HETATM   24  C   UNL     1      42.911 -18.050   4.563  1.00  0.00     0.254 C 
HETATM   25  N   UNL     1      43.832 -17.115   4.986  1.00  0.00    -0.349 N 
HETATM   26  H   UNL     1      44.808 -17.245   4.750  1.00  0.00     0.163 HD
HETATM   27  O   UNL     1      41.705 -17.965   4.759  1.00  0.00    -0.268 OA
BRANCH  25  28
HETATM   28  C   UNL     1      43.461 -15.964   5.789  1.00  0.00     0.114 C 
HETATM   29  C   UNL     1      42.665 -16.415   7.016  1.00  0.00     0.037 C 
BRANCH  28  30
HETATM   30  C   UNL     1      42.739 -14.948   4.920  1.00  0.00    -0.036 A 
HETATM   31  C   UNL     1      41.456 -14.462   5.218  1.00  0.00     0.009 A 
HETATM   32  C   UNL     1      40.835 -13.531   4.380  1.00  0.00     0.001 A 
HETATM   33  C   UNL     1      41.480 -13.084   3.229  1.00  0.00     0.000 A 
HETATM   34  C   UNL     1      42.744 -13.571   2.908  1.00  0.00     0.001 A 
HETATM   35  C   UNL     1      43.364 -14.500   3.743  1.00  0.00     0.009 A 
ENDBRANCH  28  30
ENDBRANCH  25  28
ENDBRANCH   2  24
TORSDOF 10
ENDMDL
MODEL 8
REMARK VINA RESULT:      -8.1      4.782      8.885
REMARK  10 active torsions:
REMARK  status: ('A' for Active; 'I' for Inactive)
REMARK    1  A    between atoms: C_2  and  O_3 
REMARK    2  A    between atoms: O_3  and  C_4 
REMARK    3  A    between atoms: C_9  and  C_10 
REMARK    4  A    between atoms: C_10  and  O_11 
REMARK    5  A    between atoms: O_11  and  C_12 
REMARK    6  A    between atoms: C_12  and  C_13 
REMARK       I    between atoms: C_13  and  N_14 
REMARK    7  A    between atoms: N_14  and  C_15 
REMARK    8  A    between atoms: C_16  and  C_17 
REMARK       I    between atoms: C_17  and  N_18 
REMARK    9  A    between atoms: N_18  and  C_19 
REMARK   10  A    between atoms: C_19  and  C_20 
ROOT
HETATM    1  C   UNL     1      40.001 -14.275   3.163  1.00  0.00     0.050 A 
HETATM    2  C   UNL     1      40.209 -13.654   1.913  1.00  0.00     0.058 A 
HETATM    3  C   UNL     1      39.983 -12.278   1.749  1.00  0.00     0.019 A 
HETATM    4  C   UNL     1      39.511 -11.513   2.812  1.00  0.00     0.001 A 
HETATM    5  C   UNL     1      39.261 -12.123   4.037  1.00  0.00     0.002 A 
HETATM    6  C   UNL     1      39.505 -13.490   4.212  1.00  0.00     0.030 A 
ENDROOT
BRANCH   1   7
HETATM    7  N   UNL     1      40.373 -15.633   3.348  1.00  0.00    -0.324 N 
HETATM    8  C   UNL     1      41.563 -16.113   3.868  1.00  0.00     0.246 C 
HETATM    9  O   UNL     1      42.415 -15.443   4.447  1.00  0.00    -0.271 OA
HETATM   10  H   UNL     1      39.740 -16.317   2.938  1.00  0.00     0.169 HD
BRANCH   8  11
HETATM   11  C   UNL     1      41.755 -17.623   3.670  1.00  0.00     0.282 C 
BRANCH  11  12
HETATM   12  O   UNL     1      42.189 -17.939   2.348  1.00  0.00    -0.308 OA
BRANCH  12  13
HETATM   13  C   UNL     1      43.514 -18.190   2.244  1.00  0.00     0.298 C 
HETATM   14  O   UNL     1      44.343 -17.397   1.821  1.00  0.00    -0.259 OA
BRANCH  13  15
HETATM   15  C   UNL     1      43.864 -19.575   2.626  1.00  0.00     0.092 A 
HETATM   16  C   UNL     1      44.470 -19.941   3.826  1.00  0.00     0.180 A 
HETATM   17  N   UNL     1      44.794 -21.226   4.128  1.00  0.00    -0.236 NA
HETATM   18  C   UNL     1      44.519 -22.173   3.207  1.00  0.00     0.119 A 
HETATM   19  C   UNL     1      43.934 -21.906   1.983  1.00  0.00     0.020 A 
HETATM   20  C   UNL     1      43.605 -20.586   1.691  1.00  0.00     0.023 A 
BRANCH  16  21
HETATM   21  O   UNL     1      44.805 -18.962   4.737  1.00  0.00    -0.334 OA
BRANCH  21  22
HETATM   22  C   UNL     1      44.419 -19.251   6.080  1.00  0.00     0.173 C 
HETATM   23  C   UNL     1      44.957 -18.144   6.969  1.00  0.00     0.034 C 
ENDBRANCH  21  22
ENDBRANCH  16  21
ENDBRANCH  13  15
ENDBRANCH  12  13
ENDBRANCH  11  12
ENDBRANCH   8  11
ENDBRANCH   1   7
BRANCH   2  24
HETATM   24  C   UNL     1      40.601 -14.401   0.689  1.00  0.00     0.254 C 
HETATM   25  N   UNL     1      40.995 -13.618  -0.375  1.00  0.00    -0.349 N 
HETATM   26  H   UNL     1      40.987 -12.611  -0.275  1.00  0.00     0.163 HD
HETATM   27  O   UNL     1      40.614 -15.625   0.684  1.00  0.00    -0.268 OA
BRANCH  25  28
HETATM   28  C   UNL     1      41.391 -14.183  -1.653  1.00  0.00     0.114 C 
HETATM   29  C   UNL     1      42.323 -13.215  -2.387  1.00  0.00     0.037 C 
BRANCH  28  30
HETATM   30  C   UNL     1      40.154 -14.572  -2.443  1.00  0.00    -0.036 A 
HETATM   31  C   UNL     1      38.953 -13.849  -2.389  1.00  0.00     0.009 A 
HETATM   32  C   UNL     1      37.842 -14.255  -3.134  1.00  0.00     0.001 A 
HETATM   33  C   UNL     1      37.911 -15.396  -3.931  1.00  0.00     0.000 A 
HETATM   34  C   UNL     1      39.088 -16.137  -3.981  1.00  0.00     0.001 A 
HETATM   35  C   UNL     1      40.197 -15.732  -3.238  1.00  0.00     0.009 A 
ENDBRANCH  28  30
ENDBRANCH  25  28
ENDBRANCH   2  24
TORSDOF 10
ENDMDL
MODEL 9
REMARK VINA RESULT:      -8.0      4.652      9.214
REMARK  10 active torsions:
REMARK  status: ('A' for Active; 'I' for Inactive)
REMARK    1  A    between atoms: C_2  and  O_3 
REMARK    2  A    between atoms: O_3  and  C_4 
REMARK    3  A    between atoms: C_9  and  C_10 
REMARK    4  A    between atoms: C_10  and  O_11 
REMARK    5  A    between atoms: O_11  and  C_12 
REMARK    6  A    between atoms: C_12  and  C_13 
REMARK       I    between atoms: C_13  and  N_14 
REMARK    7  A    between atoms: N_14  and  C_15 
REMARK    8  A    between atoms: C_16  and  C_17 
REMARK       I    between atoms: C_17  and  N_18 
REMARK    9  A    between atoms: N_18  and  C_19 
REMARK   10  A    between atoms: C_19  and  C_20 
ROOT
HETATM    1  C   UNL     1      43.167 -19.615   2.468  1.00  0.00     0.050 A 
HETATM    2  C   UNL     1      43.510 -19.298   3.799  1.00  0.00     0.058 A 
HETATM    3  C   UNL     1      44.396 -20.112   4.524  1.00  0.00     0.019 A 
HETATM    4  C   UNL     1      44.915 -21.268   3.950  1.00  0.00     0.001 A 
HETATM    5  C   UNL     1      44.549 -21.613   2.653  1.00  0.00     0.002 A 
HETATM    6  C   UNL     1      43.684 -20.794   1.918  1.00  0.00     0.030 A 
ENDROOT
BRANCH   1   7
HETATM    7  N   UNL     1      42.388 -18.705   1.704  1.00  0.00    -0.324 N 
HETATM    8  C   UNL     1      42.795 -17.492   1.175  1.00  0.00     0.246 C 
HETATM    9  O   UNL     1      43.955 -17.093   1.104  1.00  0.00    -0.271 OA
HETATM   10  H   UNL     1      41.394 -18.921   1.650  1.00  0.00     0.169 HD
BRANCH   8  11
HETATM   11  C   UNL     1      41.638 -16.632   0.648  1.00  0.00     0.282 C 
BRANCH  11  12
HETATM   12  O   UNL     1      42.101 -15.532  -0.134  1.00  0.00    -0.308 OA
BRANCH  12  13
HETATM   13  C   UNL     1      41.139 -14.639  -0.460  1.00  0.00     0.298 C 
HETATM   14  O   UNL     1      39.981 -14.688  -0.069  1.00  0.00    -0.259 OA
BRANCH  13  15
HETATM   15  C   UNL     1      41.610 -13.616  -1.418  1.00  0.00     0.092 A 
HETATM   16  C   UNL     1      41.559 -13.739  -2.804  1.00  0.00     0.180 A 
HETATM   17  N   UNL     1      42.023 -12.780  -3.649  1.00  0.00    -0.236 NA
HETATM   18  C   UNL     1      42.564 -11.672  -3.100  1.00  0.00     0.119 A 
HETATM   19  C   UNL     1      42.672 -11.466  -1.737  1.00  0.00     0.020 A 
HETATM   20  C   UNL     1      42.188 -12.455  -0.887  1.00  0.00     0.023 A 
BRANCH  16  21
HETATM   21  O   UNL     1      41.063 -14.899  -3.359  1.00  0.00    -0.334 OA
BRANCH  21  22
HETATM   22  C   UNL     1      39.699 -14.817  -3.773  1.00  0.00     0.173 C 
HETATM   23  C   UNL     1      39.182 -16.233  -3.960  1.00  0.00     0.034 C 
ENDBRANCH  21  22
ENDBRANCH  16  21
ENDBRANCH  13  15
ENDBRANCH  12  13
ENDBRANCH  11  12
ENDBRANCH   8  11
ENDBRANCH   1   7
BRANCH   2  24
HETATM   24  C   UNL     1      42.921 -18.152   4.541  1.00  0.00     0.254 C 
HETATM   25  N   UNL     1      43.826 -17.207   4.974  1.00  0.00    -0.349 N 
HETATM   26  H   UNL     1      44.811 -17.343   4.782  1.00  0.00     0.163 HD
HETATM   27  O   UNL     1      41.709 -18.061   4.686  1.00  0.00    -0.268 OA
BRANCH  25  28
HETATM   28  C   UNL     1      43.426 -16.033   5.731  1.00  0.00     0.114 C 
HETATM   29  C   UNL     1      42.553 -16.448   6.917  1.00  0.00     0.037 C 
BRANCH  28  30
HETATM   30  C   UNL     1      42.771 -15.027   4.800  1.00  0.00    -0.036 A 
HETATM   31  C   UNL     1      43.354 -14.609   3.594  1.00  0.00     0.009 A 
HETATM   32  C   UNL     1      42.709 -13.675   2.777  1.00  0.00     0.001 A 
HETATM   33  C   UNL     1      41.481 -13.138   3.159  1.00  0.00     0.000 A 
HETATM   34  C   UNL     1      40.899 -13.527   4.362  1.00  0.00     0.001 A 
HETATM   35  C   UNL     1      41.542 -14.458   5.178  1.00  0.00     0.009 A 
ENDBRANCH  28  30
ENDBRANCH  25  28
ENDBRANCH   2  24
TORSDOF 10
ENDMDL
MODEL 10
REMARK VINA RESULT:      -7.9      4.382      8.719
REMARK  10 active torsions:
REMARK  status: ('A' for Active; 'I' for Inactive)
REMARK    1  A    between atoms: C_2  and  O_3 
REMARK    2  A    between atoms: O_3  and  C_4 
REMARK    3  A    between atoms: C_9  and  C_10 
REMARK    4  A    between atoms: C_10  and  O_11 
REMARK    5  A    between atoms: O_11  and  C_12 
REMARK    6  A    between atoms: C_12  and  C_13 
REMARK       I    between atoms: C_13  and  N_14 
REMARK    7  A    between atoms: N_14  and  C_15 
REMARK    8  A    between atoms: C_16  and  C_17 
REMARK       I    between atoms: C_17  and  N_18 
REMARK    9  A    between atoms: N_18  and  C_19 
REMARK   10  A    between atoms: C_19  and  C_20 
ROOT
HETATM    1  C   UNL     1      40.765 -14.265   4.159  1.00  0.00     0.050 A 
HETATM    2  C   UNL     1      41.225 -13.013   3.699  1.00  0.00     0.058 A 
HETATM    3  C   UNL     1      40.830 -11.826   4.336  1.00  0.00     0.019 A 
HETATM    4  C   UNL     1      39.943 -11.867   5.408  1.00  0.00     0.001 A 
HETATM    5  C   UNL     1      39.449 -13.092   5.842  1.00  0.00     0.002 A 
HETATM    6  C   UNL     1      39.856 -14.280   5.225  1.00  0.00     0.030 A 
ENDROOT
BRANCH   1   7
HETATM    7  N   UNL     1      41.288 -15.460   3.597  1.00  0.00    -0.324 N 
HETATM    8  C   UNL     1      40.760 -16.195   2.549  1.00  0.00     0.246 C 
HETATM    9  O   UNL     1      39.862 -15.826   1.795  1.00  0.00    -0.271 OA
HETATM   10  H   UNL     1      42.064 -15.877   4.107  1.00  0.00     0.169 HD
BRANCH   8  11
HETATM   11  C   UNL     1      41.410 -17.574   2.377  1.00  0.00     0.282 C 
BRANCH  11  12
HETATM   12  O   UNL     1      42.538 -17.746   3.234  1.00  0.00    -0.308 OA
BRANCH  12  13
HETATM   13  C   UNL     1      43.659 -18.158   2.600  1.00  0.00     0.298 C 
HETATM   14  O   UNL     1      44.338 -17.461   1.857  1.00  0.00    -0.259 OA
BRANCH  13  15
HETATM   15  C   UNL     1      43.954 -19.588   2.833  1.00  0.00     0.092 A 
HETATM   16  C   UNL     1      44.585 -20.098   3.965  1.00  0.00     0.180 A 
HETATM   17  N   UNL     1      44.855 -21.420   4.129  1.00  0.00    -0.236 NA
HETATM   18  C   UNL     1      44.499 -22.258   3.133  1.00  0.00     0.119 A 
HETATM   19  C   UNL     1      43.883 -21.846   1.966  1.00  0.00     0.020 A 
HETATM   20  C   UNL     1      43.610 -20.490   1.816  1.00  0.00     0.023 A 
BRANCH  16  21
HETATM   21  O   UNL     1      45.002 -19.230   4.951  1.00  0.00    -0.334 OA
BRANCH  21  22
HETATM   22  C   UNL     1      44.212 -19.264   6.139  1.00  0.00     0.173 C 
HETATM   23  C   UNL     1      44.111 -17.846   6.674  1.00  0.00     0.034 C 
ENDBRANCH  21  22
ENDBRANCH  16  21
ENDBRANCH  13  15
ENDBRANCH  12  13
ENDBRANCH  11  12
ENDBRANCH   8  11
ENDBRANCH   1   7
BRANCH   2  24
HETATM   24  C   UNL     1      42.080 -12.854   2.494  1.00  0.00     0.254 C 
HETATM   25  N   UNL     1      41.532 -12.094   1.482  1.00  0.00    -0.349 N 
HETATM   26  H   UNL     1      40.604 -11.708   1.604  1.00  0.00     0.163 HD
HETATM   27  O   UNL     1      43.207 -13.330   2.463  1.00  0.00    -0.268 OA
BRANCH  25  28
HETATM   28  C   UNL     1      42.223 -11.853   0.227  1.00  0.00     0.114 C 
HETATM   29  C   UNL     1      42.189 -10.361  -0.111  1.00  0.00     0.037 C 
BRANCH  28  30
HETATM   30  C   UNL     1      41.641 -12.748  -0.854  1.00  0.00    -0.036 A 
HETATM   31  C   UNL     1      40.427 -13.436  -0.705  1.00  0.00     0.009 A 
HETATM   32  C   UNL     1      39.940 -14.251  -1.732  1.00  0.00     0.001 A 
HETATM   33  C   UNL     1      40.664 -14.400  -2.913  1.00  0.00     0.000 A 
HETATM   34  C   UNL     1      41.879 -13.741  -3.069  1.00  0.00     0.001 A 
HETATM   35  C   UNL     1      42.366 -12.928  -2.045  1.00  0.00     0.009 A 
ENDBRANCH  28  30
ENDBRANCH  25  28
ENDBRANCH   2  24
TORSDOF 10
ENDMDL
