MODEL 1
REMARK VINA RESULT:      -8.6      0.000      0.000
REMARK  11 active torsions:
REMARK  status: ('A' for Active; 'I' for Inactive)
REMARK    1  A    between atoms: C_3  and  N_4 
REMARK    2  A    between atoms: N_4  and  C_5 
REMARK    3  A    between atoms: C_7  and  C_8 
REMARK    4  A    between atoms: C_18  and  N_19 
REMARK       I    between atoms: N_19  and  C_20 
REMARK    5  A    between atoms: C_20  and  C_21 
REMARK    6  A    between atoms: C_22  and  C_23 
REMARK    7  A    between atoms: C_26  and  O_27 
REMARK    8  A    between atoms: O_27  and  C_28 
REMARK    9  A    between atoms: C_28  and  C_29 
REMARK   10  A    between atoms: C_29  and  C_30 
REMARK   11  A    between atoms: C_30  and  N_31 
ROOT
HETATM    1  C   UNL     1      43.957 -19.501   3.073  1.00  0.00     0.050 C 
HETATM    2  C   UNL     1      43.958 -18.336   4.026  1.00  0.00    -0.035 A 
HETATM    3  C   UNL     1      43.544 -17.046   3.626  1.00  0.00     0.057 A 
HETATM    4  C   UNL     1      43.522 -16.024   4.591  1.00  0.00     0.060 A 
HETATM    5  C   UNL     1      43.894 -16.249   5.917  1.00  0.00     0.037 A 
HETATM    6  C   UNL     1      44.292 -17.531   6.297  1.00  0.00     0.030 A 
HETATM    7  C   UNL     1      44.327 -18.564   5.361  1.00  0.00     0.011 A 
ENDROOT
BRANCH   5   8
HETATM    8  N   UNL     1      43.861 -15.258   6.921  1.00  0.00    -0.324 N 
HETATM    9  C   UNL     1      44.581 -14.082   6.963  1.00  0.00     0.245 C 
HETATM   10  O   UNL     1      45.469 -13.718   6.204  1.00  0.00    -0.268 OA
HETATM   11  H   UNL     1      43.228 -15.446   7.685  1.00  0.00     0.169 HD
BRANCH   9  12
HETATM   12  C   UNL     1      44.166 -13.240   8.116  1.00  0.00     0.075 C 
HETATM   13  C   UNL     1      45.063 -12.831   9.024  1.00  0.00     0.017 C 
BRANCH  13  14
HETATM   14  C   UNL     1      44.622 -11.991  10.133  1.00  0.00    -0.036 A 
HETATM   15  C   UNL     1      44.126 -12.575  11.301  1.00  0.00     0.014 A 
HETATM   16  C   UNL     1      43.599 -11.775  12.318  1.00  0.00     0.037 A 
HETATM   17  C   UNL     1      43.548 -10.392  12.156  1.00  0.00     0.068 A 
HETATM   18  C   UNL     1      44.093  -9.802  11.015  1.00  0.00     0.037 A 
HETATM   19  C   UNL     1      44.622 -10.599  10.001  1.00  0.00     0.014 A 
BRANCH  17  20
HETATM   20  O   UNL     1      43.057  -9.531  13.095  1.00  0.00    -0.351 OA
BRANCH  20  21
HETATM   21  C   UNL     1      41.983  -8.691  12.671  1.00  0.00     0.177 C 
BRANCH  21  22
HETATM   22  C   UNL     1      40.697  -9.260  13.265  1.00  0.00     0.054 C 
BRANCH  22  23
HETATM   23  C   UNL     1      39.640  -9.439  12.179  1.00  0.00     0.236 C 
BRANCH  23  24
HETATM   24  N   UNL     1      39.580 -10.875  11.697  1.00  0.00    -0.079 N 
HETATM   25  H   UNL     1      38.593 -11.115  11.534  1.00  0.00     0.278 HD
HETATM   26  C   UNL     1      40.320 -11.098  10.403  1.00  0.00     0.269 C 
HETATM   27  C   UNL     1      40.080 -11.816  12.764  1.00  0.00     0.269 C 
ENDBRANCH  23  24
ENDBRANCH  22  23
ENDBRANCH  21  22
ENDBRANCH  20  21
ENDBRANCH  17  20
ENDBRANCH  13  14
ENDBRANCH   9  12
ENDBRANCH   5   8
BRANCH   3  28
HETATM   28  N   UNL     1      43.085 -16.832   2.313  1.00  0.00    -0.188 N 
HETATM   29  H   UNL     1      43.767 -16.933   1.578  1.00  0.00     0.184 HD
BRANCH  28  30
HETATM   30  C   UNL     1      41.992 -16.124   1.818  1.00  0.00     0.727 A 
HETATM   31  N   UNL     1      42.051 -15.484   0.640  1.00  0.00    -0.062 NA
HETATM   32  C   UNL     1      40.967 -14.815   0.191  1.00  0.00     0.089 A 
HETATM   33  C   UNL     1      39.810 -14.777   0.943  1.00  0.00     0.053 A 
HETATM   34  C   UNL     1      39.842 -15.433   2.151  1.00  0.00     0.139 A 
HETATM   35  N   UNL     1      40.913 -16.098   2.612  1.00  0.00    -0.075 NA
BRANCH  32  36
HETATM   36  C   UNL     1      41.128 -14.146  -1.121  1.00  0.00     0.011 A 
HETATM   37  C   UNL     1      40.297 -14.457  -2.207  1.00  0.00     0.130 A 
HETATM   38  N   UNL     1      40.382 -13.911  -3.453  1.00  0.00    -0.272 NA
HETATM   39  C   UNL     1      41.344 -12.991  -3.642  1.00  0.00     0.116 A 
HETATM   40  C   UNL     1      42.220 -12.592  -2.652  1.00  0.00     0.020 A 
HETATM   41  C   UNL     1      42.109 -13.176  -1.388  1.00  0.00     0.017 A 
ENDBRANCH  32  36
ENDBRANCH  28  30
ENDBRANCH   3  28
TORSDOF 11
ENDMDL
MODEL 2
REMARK VINA RESULT:      -8.3      1.815      2.762
REMARK  11 active torsions:
REMARK  status: ('A' for Active; 'I' for Inactive)
REMARK    1  A    between atoms: C_3  and  N_4 
REMARK    2  A    between atoms: N_4  and  C_5 
REMARK    3  A    between atoms: C_7  and  C_8 
REMARK    4  A    between atoms: C_18  and  N_19 
REMARK       I    between atoms: N_19  and  C_20 
REMARK    5  A    between atoms: C_20  and  C_21 
REMARK    6  A    between atoms: C_22  and  C_23 
REMARK    7  A    between atoms: C_26  and  O_27 
REMARK    8  A    between atoms: O_27  and  C_28 
REMARK    9  A    between atoms: C_28  and  C_29 
REMARK   10  A    between atoms: C_29  and  C_30 
REMARK   11  A    between atoms: C_30  and  N_31 
ROOT
HETATM    1  C   UNL     1      44.391 -19.932   3.699  1.00  0.00     0.050 C 
HETATM    2  C   UNL     1      44.203 -18.683   4.518  1.00  0.00    -0.035 A 
HETATM    3  C   UNL     1      43.284 -17.679   4.145  1.00  0.00     0.057 A 
HETATM    4  C   UNL     1      43.128 -16.568   4.994  1.00  0.00     0.060 A 
HETATM    5  C   UNL     1      43.851 -16.436   6.181  1.00  0.00     0.037 A 
HETATM    6  C   UNL     1      44.750 -17.442   6.538  1.00  0.00     0.030 A 
HETATM    7  C   UNL     1      44.927 -18.553   5.715  1.00  0.00     0.011 A 
ENDROOT
BRANCH   5   8
HETATM    8  N   UNL     1      43.706 -15.352   7.072  1.00  0.00    -0.324 N 
HETATM    9  C   UNL     1      44.501 -14.228   7.163  1.00  0.00     0.245 C 
HETATM   10  O   UNL     1      45.547 -13.999   6.573  1.00  0.00    -0.268 OA
HETATM   11  H   UNL     1      42.922 -15.422   7.705  1.00  0.00     0.169 HD
BRANCH   9  12
HETATM   12  C   UNL     1      43.940 -13.252   8.134  1.00  0.00     0.075 C 
HETATM   13  C   UNL     1      44.746 -12.431   8.824  1.00  0.00     0.017 C 
BRANCH  13  14
HETATM   14  C   UNL     1      44.159 -11.474   9.755  1.00  0.00    -0.036 A 
HETATM   15  C   UNL     1      43.032 -10.736   9.384  1.00  0.00     0.014 A 
HETATM   16  C   UNL     1      42.535  -9.740  10.229  1.00  0.00     0.037 A 
HETATM   17  C   UNL     1      43.181  -9.467  11.434  1.00  0.00     0.068 A 
HETATM   18  C   UNL     1      44.273 -10.238  11.831  1.00  0.00     0.037 A 
HETATM   19  C   UNL     1      44.768 -11.235  10.992  1.00  0.00     0.014 A 
BRANCH  17  20
HETATM   20  O   UNL     1      42.766  -8.518  12.323  1.00  0.00    -0.351 OA
BRANCH  20  21
HETATM   21  C   UNL     1      41.842  -7.551  11.819  1.00  0.00     0.177 C 
BRANCH  21  22
HETATM   22  C   UNL     1      40.782  -7.330  12.896  1.00  0.00     0.054 C 
BRANCH  22  23
HETATM   23  C   UNL     1      40.286  -8.666  13.440  1.00  0.00     0.236 C 
BRANCH  23  24
HETATM   24  N   UNL     1      39.698  -9.527  12.340  1.00  0.00    -0.079 N 
HETATM   25  H   UNL     1      40.135  -9.250  11.451  1.00  0.00     0.278 HD
HETATM   26  C   UNL     1      39.960 -10.998  12.533  1.00  0.00     0.269 C 
HETATM   27  C   UNL     1      38.220  -9.265  12.190  1.00  0.00     0.269 C 
ENDBRANCH  23  24
ENDBRANCH  22  23
ENDBRANCH  21  22
ENDBRANCH  20  21
ENDBRANCH  17  20
ENDBRANCH  13  14
ENDBRANCH   9  12
ENDBRANCH   5   8
BRANCH   3  28
HETATM   28  N   UNL     1      42.489 -17.846   2.996  1.00  0.00    -0.188 N 
HETATM   29  H   UNL     1      42.564 -18.734   2.525  1.00  0.00     0.184 HD
BRANCH  28  30
HETATM   30  C   UNL     1      41.911 -16.922   2.128  1.00  0.00     0.727 A 
HETATM   31  N   UNL     1      41.231 -15.861   2.592  1.00  0.00    -0.062 NA
HETATM   32  C   UNL     1      40.693 -14.983   1.718  1.00  0.00     0.089 A 
HETATM   33  C   UNL     1      40.827 -15.181   0.358  1.00  0.00     0.053 A 
HETATM   34  C   UNL     1      41.512 -16.307  -0.033  1.00  0.00     0.139 A 
HETATM   35  N   UNL     1      42.048 -17.190   0.823  1.00  0.00    -0.075 NA
BRANCH  32  36
HETATM   36  C   UNL     1      39.967 -13.842   2.325  1.00  0.00     0.011 A 
HETATM   37  C   UNL     1      39.032 -13.099   1.593  1.00  0.00     0.130 A 
HETATM   38  N   UNL     1      38.333 -12.025   2.057  1.00  0.00    -0.272 NA
HETATM   39  C   UNL     1      38.564 -11.663   3.332  1.00  0.00     0.116 A 
HETATM   40  C   UNL     1      39.454 -12.319   4.159  1.00  0.00     0.020 A 
HETATM   41  C   UNL     1      40.158 -13.412   3.648  1.00  0.00     0.017 A 
ENDBRANCH  32  36
ENDBRANCH  28  30
ENDBRANCH   3  28
TORSDOF 11
ENDMDL
MODEL 3
REMARK VINA RESULT:      -8.2      4.997     10.402
REMARK  11 active torsions:
REMARK  status: ('A' for Active; 'I' for Inactive)
REMARK    1  A    between atoms: C_3  and  N_4 
REMARK    2  A    between atoms: N_4  and  C_5 
REMARK    3  A    between atoms: C_7  and  C_8 
REMARK    4  A    between atoms: C_18  and  N_19 
REMARK       I    between atoms: N_19  and  C_20 
REMARK    5  A    between atoms: C_20  and  C_21 
REMARK    6  A    between atoms: C_22  and  C_23 
REMARK    7  A    between atoms: C_26  and  O_27 
REMARK    8  A    between atoms: O_27  and  C_28 
REMARK    9  A    between atoms: C_28  and  C_29 
REMARK   10  A    between atoms: C_29  and  C_30 
REMARK   11  A    between atoms: C_30  and  N_31 
ROOT
HETATM    1  C   UNL     1      45.109 -22.636   4.817  1.00  0.00     0.050 C 
HETATM    2  C   UNL     1      44.557 -21.541   3.943  1.00  0.00    -0.035 A 
HETATM    3  C   UNL     1      44.319 -20.241   4.439  1.00  0.00     0.057 A 
HETATM    4  C   UNL     1      43.855 -19.260   3.544  1.00  0.00     0.060 A 
HETATM    5  C   UNL     1      43.627 -19.537   2.195  1.00  0.00     0.037 A 
HETATM    6  C   UNL     1      43.875 -20.825   1.720  1.00  0.00     0.030 A 
HETATM    7  C   UNL     1      44.333 -21.818   2.584  1.00  0.00     0.011 A 
ENDROOT
BRANCH   5   8
HETATM    8  N   UNL     1      43.187 -18.576   1.260  1.00  0.00    -0.324 N 
HETATM    9  C   UNL     1      42.177 -17.650   1.421  1.00  0.00     0.245 C 
HETATM   10  O   UNL     1      41.392 -17.550   2.353  1.00  0.00    -0.268 OA
HETATM   11  H   UNL     1      43.684 -18.578   0.380  1.00  0.00     0.169 HD
BRANCH   9  12
HETATM   12  C   UNL     1      42.109 -16.724   0.259  1.00  0.00     0.075 C 
HETATM   13  C   UNL     1      41.345 -15.623   0.304  1.00  0.00     0.017 C 
BRANCH  13  14
HETATM   14  C   UNL     1      41.316 -14.729  -0.848  1.00  0.00    -0.036 A 
HETATM   15  C   UNL     1      40.928 -15.212  -2.100  1.00  0.00     0.014 A 
HETATM   16  C   UNL     1      41.006 -14.389  -3.227  1.00  0.00     0.037 A 
HETATM   17  C   UNL     1      41.495 -13.089  -3.102  1.00  0.00     0.068 A 
HETATM   18  C   UNL     1      41.831 -12.586  -1.845  1.00  0.00     0.037 A 
HETATM   19  C   UNL     1      41.750 -13.406  -0.720  1.00  0.00     0.014 A 
BRANCH  17  20
HETATM   20  O   UNL     1      41.603 -12.212  -4.143  1.00  0.00    -0.351 OA
BRANCH  20  21
HETATM   21  C   UNL     1      40.927 -10.964  -3.981  1.00  0.00     0.177 C 
BRANCH  21  22
HETATM   22  C   UNL     1      39.441 -11.215  -4.227  1.00  0.00     0.054 C 
BRANCH  22  23
HETATM   23  C   UNL     1      38.619 -10.787  -3.015  1.00  0.00     0.236 C 
BRANCH  23  24
HETATM   24  N   UNL     1      37.703 -11.902  -2.548  1.00  0.00    -0.079 N 
HETATM   25  H   UNL     1      36.763 -11.506  -2.415  1.00  0.00     0.278 HD
HETATM   26  C   UNL     1      37.583 -13.027  -3.543  1.00  0.00     0.269 C 
HETATM   27  C   UNL     1      38.142 -12.426  -1.204  1.00  0.00     0.269 C 
ENDBRANCH  23  24
ENDBRANCH  22  23
ENDBRANCH  21  22
ENDBRANCH  20  21
ENDBRANCH  17  20
ENDBRANCH  13  14
ENDBRANCH   9  12
ENDBRANCH   5   8
BRANCH   3  28
HETATM   28  N   UNL     1      44.628 -19.932   5.777  1.00  0.00    -0.188 N 
HETATM   29  H   UNL     1      45.003 -20.683   6.335  1.00  0.00     0.184 HD
BRANCH  28  30
HETATM   30  C   UNL     1      44.169 -18.926   6.625  1.00  0.00     0.727 A 
HETATM   31  N   UNL     1      43.502 -17.863   6.147  1.00  0.00    -0.062 NA
HETATM   32  C   UNL     1      43.065 -16.913   7.002  1.00  0.00     0.089 A 
HETATM   33  C   UNL     1      43.313 -17.026   8.355  1.00  0.00     0.053 A 
HETATM   34  C   UNL     1      44.027 -18.130   8.758  1.00  0.00     0.139 A 
HETATM   35  N   UNL     1      44.471 -19.079   7.920  1.00  0.00    -0.075 NA
BRANCH  32  36
HETATM   36  C   UNL     1      42.336 -15.782   6.381  1.00  0.00     0.011 A 
HETATM   37  C   UNL     1      42.993 -14.596   6.027  1.00  0.00     0.130 A 
HETATM   38  N   UNL     1      42.405 -13.499   5.472  1.00  0.00    -0.272 NA
HETATM   39  C   UNL     1      41.083 -13.576   5.242  1.00  0.00     0.116 A 
HETATM   40  C   UNL     1      40.323 -14.692   5.538  1.00  0.00     0.020 A 
HETATM   41  C   UNL     1      40.958 -15.797   6.112  1.00  0.00     0.017 A 
ENDBRANCH  32  36
ENDBRANCH  28  30
ENDBRANCH   3  28
TORSDOF 11
ENDMDL
MODEL 4
REMARK VINA RESULT:      -8.1      5.091     10.340
REMARK  11 active torsions:
REMARK  status: ('A' for Active; 'I' for Inactive)
REMARK    1  A    between atoms: C_3  and  N_4 
REMARK    2  A    between atoms: N_4  and  C_5 
REMARK    3  A    between atoms: C_7  and  C_8 
REMARK    4  A    between atoms: C_18  and  N_19 
REMARK       I    between atoms: N_19  and  C_20 
REMARK    5  A    between atoms: C_20  and  C_21 
REMARK    6  A    between atoms: C_22  and  C_23 
REMARK    7  A    between atoms: C_26  and  O_27 
REMARK    8  A    between atoms: O_27  and  C_28 
REMARK    9  A    between atoms: C_28  and  C_29 
REMARK   10  A    between atoms: C_29  and  C_30 
REMARK   11  A    between atoms: C_30  and  N_31 
ROOT
HETATM    1  C   UNL     1      44.958 -22.652   4.708  1.00  0.00     0.050 C 
HETATM    2  C   UNL     1      44.499 -21.496   3.860  1.00  0.00    -0.035 A 
HETATM    3  C   UNL     1      44.277 -20.213   4.407  1.00  0.00     0.057 A 
HETATM    4  C   UNL     1      43.902 -19.174   3.537  1.00  0.00     0.060 A 
HETATM    5  C   UNL     1      43.745 -19.376   2.165  1.00  0.00     0.037 A 
HETATM    6  C   UNL     1      43.976 -20.648   1.640  1.00  0.00     0.030 A 
HETATM    7  C   UNL     1      44.346 -21.699   2.479  1.00  0.00     0.011 A 
ENDROOT
BRANCH   5   8
HETATM    8  N   UNL     1      43.396 -18.355   1.256  1.00  0.00    -0.324 N 
HETATM    9  C   UNL     1      42.264 -17.567   1.273  1.00  0.00     0.245 C 
HETATM   10  O   UNL     1      41.290 -17.669   2.006  1.00  0.00    -0.268 OA
HETATM   11  H   UNL     1      44.066 -18.193   0.517  1.00  0.00     0.169 HD
BRANCH   9  12
HETATM   12  C   UNL     1      42.327 -16.513   0.226  1.00  0.00     0.075 C 
HETATM   13  C   UNL     1      41.208 -15.932  -0.229  1.00  0.00     0.017 C 
BRANCH  13  14
HETATM   14  C   UNL     1      41.311 -14.889  -1.245  1.00  0.00    -0.036 A 
HETATM   15  C   UNL     1      40.798 -15.106  -2.526  1.00  0.00     0.014 A 
HETATM   16  C   UNL     1      40.993 -14.156  -3.532  1.00  0.00     0.037 A 
HETATM   17  C   UNL     1      41.722 -12.998  -3.260  1.00  0.00     0.068 A 
HETATM   18  C   UNL     1      42.187 -12.754  -1.968  1.00  0.00     0.037 A 
HETATM   19  C   UNL     1      41.990 -13.699  -0.963  1.00  0.00     0.014 A 
BRANCH  17  20
HETATM   20  O   UNL     1      41.958 -12.014  -4.175  1.00  0.00    -0.351 OA
BRANCH  20  21
HETATM   21  C   UNL     1      41.327 -10.759  -3.920  1.00  0.00     0.177 C 
BRANCH  21  22
HETATM   22  C   UNL     1      42.428  -9.706  -3.820  1.00  0.00     0.054 C 
BRANCH  22  23
HETATM   23  C   UNL     1      42.225  -8.836  -2.583  1.00  0.00     0.236 C 
BRANCH  23  24
HETATM   24  N   UNL     1      43.291  -9.103  -1.539  1.00  0.00    -0.079 N 
HETATM   25  H   UNL     1      43.896  -9.858  -1.888  1.00  0.00     0.278 HD
HETATM   26  C   UNL     1      44.170  -7.908  -1.270  1.00  0.00     0.269 C 
HETATM   27  C   UNL     1      42.672  -9.606  -0.259  1.00  0.00     0.269 C 
ENDBRANCH  23  24
ENDBRANCH  22  23
ENDBRANCH  21  22
ENDBRANCH  20  21
ENDBRANCH  17  20
ENDBRANCH  13  14
ENDBRANCH   9  12
ENDBRANCH   5   8
BRANCH   3  28
HETATM   28  N   UNL     1      44.516 -19.981   5.774  1.00  0.00    -0.188 N 
HETATM   29  H   UNL     1      44.772 -20.785   6.326  1.00  0.00     0.184 HD
BRANCH  28  30
HETATM   30  C   UNL     1      44.099 -18.962   6.627  1.00  0.00     0.727 A 
HETATM   31  N   UNL     1      43.428 -17.896   6.162  1.00  0.00    -0.062 NA
HETATM   32  C   UNL     1      43.033 -16.933   7.022  1.00  0.00     0.089 A 
HETATM   33  C   UNL     1      43.327 -17.035   8.367  1.00  0.00     0.053 A 
HETATM   34  C   UNL     1      44.042 -18.142   8.756  1.00  0.00     0.139 A 
HETATM   35  N   UNL     1      44.446 -19.105   7.912  1.00  0.00    -0.075 NA
BRANCH  32  36
HETATM   36  C   UNL     1      42.294 -15.800   6.416  1.00  0.00     0.011 A 
HETATM   37  C   UNL     1      42.947 -14.614   6.051  1.00  0.00     0.130 A 
HETATM   38  N   UNL     1      42.351 -13.515   5.508  1.00  0.00    -0.272 NA
HETATM   39  C   UNL     1      41.024 -13.590   5.302  1.00  0.00     0.116 A 
HETATM   40  C   UNL     1      40.269 -14.705   5.611  1.00  0.00     0.020 A 
HETATM   41  C   UNL     1      40.911 -15.812   6.172  1.00  0.00     0.017 A 
ENDBRANCH  32  36
ENDBRANCH  28  30
ENDBRANCH   3  28
TORSDOF 11
ENDMDL
MODEL 5
REMARK VINA RESULT:      -8.0      2.975      9.652
REMARK  11 active torsions:
REMARK  status: ('A' for Active; 'I' for Inactive)
REMARK    1  A    between atoms: C_3  and  N_4 
REMARK    2  A    between atoms: N_4  and  C_5 
REMARK    3  A    between atoms: C_7  and  C_8 
REMARK    4  A    between atoms: C_18  and  N_19 
REMARK       I    between atoms: N_19  and  C_20 
REMARK    5  A    between atoms: C_20  and  C_21 
REMARK    6  A    between atoms: C_22  and  C_23 
REMARK    7  A    between atoms: C_26  and  O_27 
REMARK    8  A    between atoms: O_27  and  C_28 
REMARK    9  A    between atoms: C_28  and  C_29 
REMARK   10  A    between atoms: C_29  and  C_30 
REMARK   11  A    between atoms: C_30  and  N_31 
ROOT
HETATM    1  C   UNL     1      43.246  -8.770  12.345  1.00  0.00     0.050 C 
HETATM    2  C   UNL     1      43.348  -9.863  11.313  1.00  0.00    -0.035 A 
HETATM    3  C   UNL     1      42.561  -9.855  10.142  1.00  0.00     0.057 A 
HETATM    4  C   UNL     1      42.755 -10.883   9.202  1.00  0.00     0.060 A 
HETATM    5  C   UNL     1      43.695 -11.897   9.396  1.00  0.00     0.037 A 
HETATM    6  C   UNL     1      44.469 -11.884  10.556  1.00  0.00     0.030 A 
HETATM    7  C   UNL     1      44.297 -10.879  11.507  1.00  0.00     0.011 A 
ENDROOT
BRANCH   5   8
HETATM    8  N   UNL     1      43.939 -12.930   8.467  1.00  0.00    -0.324 N 
HETATM    9  C   UNL     1      45.133 -13.236   7.847  1.00  0.00     0.245 C 
HETATM   10  O   UNL     1      46.183 -12.611   7.891  1.00  0.00    -0.268 OA
HETATM   11  H   UNL     1      43.137 -13.504   8.246  1.00  0.00     0.169 HD
BRANCH   9  12
HETATM   12  C   UNL     1      45.015 -14.480   7.041  1.00  0.00     0.075 C 
HETATM   13  C   UNL     1      44.053 -15.377   7.301  1.00  0.00     0.017 C 
BRANCH  13  14
HETATM   14  C   UNL     1      43.957 -16.578   6.478  1.00  0.00    -0.036 A 
HETATM   15  C   UNL     1      45.015 -17.490   6.444  1.00  0.00     0.014 A 
HETATM   16  C   UNL     1      44.974 -18.582   5.572  1.00  0.00     0.037 A 
HETATM   17  C   UNL     1      43.884 -18.746   4.718  1.00  0.00     0.068 A 
HETATM   18  C   UNL     1      42.803 -17.868   4.789  1.00  0.00     0.037 A 
HETATM   19  C   UNL     1      42.841 -16.780   5.660  1.00  0.00     0.014 A 
BRANCH  17  20
HETATM   20  O   UNL     1      43.755 -19.782   3.839  1.00  0.00    -0.351 OA
BRANCH  20  21
HETATM   21  C   UNL     1      44.469 -19.650   2.608  1.00  0.00     0.177 C 
BRANCH  21  22
HETATM   22  C   UNL     1      43.522 -19.005   1.599  1.00  0.00     0.054 C 
BRANCH  22  23
HETATM   23  C   UNL     1      43.988 -17.593   1.255  1.00  0.00     0.236 C 
BRANCH  23  24
HETATM   24  N   UNL     1      42.813 -16.672   0.992  1.00  0.00    -0.079 N 
HETATM   25  H   UNL     1      42.914 -16.289   0.043  1.00  0.00     0.278 HD
HETATM   26  C   UNL     1      41.482 -17.377   1.055  1.00  0.00     0.269 C 
HETATM   27  C   UNL     1      42.836 -15.496   1.935  1.00  0.00     0.269 C 
ENDBRANCH  23  24
ENDBRANCH  22  23
ENDBRANCH  21  22
ENDBRANCH  20  21
ENDBRANCH  17  20
ENDBRANCH  13  14
ENDBRANCH   9  12
ENDBRANCH   5   8
BRANCH   3  28
HETATM   28  N   UNL     1      41.674  -8.790   9.898  1.00  0.00    -0.188 N 
HETATM   29  H   UNL     1      41.520  -8.151  10.662  1.00  0.00     0.184 HD
BRANCH  28  30
HETATM   30  C   UNL     1      40.649  -8.634   8.966  1.00  0.00     0.727 A 
HETATM   31  N   UNL     1      40.494  -9.498   7.950  1.00  0.00    -0.062 NA
HETATM   32  C   UNL     1      39.483  -9.316   7.072  1.00  0.00     0.089 A 
HETATM   33  C   UNL     1      38.625  -8.244   7.209  1.00  0.00     0.053 A 
HETATM   34  C   UNL     1      38.871  -7.392   8.259  1.00  0.00     0.139 A 
HETATM   35  N   UNL     1      39.873  -7.556   9.136  1.00  0.00    -0.075 NA
BRANCH  32  36
HETATM   36  C   UNL     1      39.391 -10.324   5.989  1.00  0.00     0.011 A 
HETATM   37  C   UNL     1      39.922 -11.612   6.142  1.00  0.00     0.130 A 
HETATM   38  N   UNL     1      39.903 -12.595   5.199  1.00  0.00    -0.272 NA
HETATM   39  C   UNL     1      39.313 -12.294   4.028  1.00  0.00     0.116 A 
HETATM   40  C   UNL     1      38.745 -11.065   3.757  1.00  0.00     0.020 A 
HETATM   41  C   UNL     1      38.788 -10.077   4.744  1.00  0.00     0.017 A 
ENDBRANCH  32  36
ENDBRANCH  28  30
ENDBRANCH   3  28
TORSDOF 11
ENDMDL
MODEL 6
REMARK VINA RESULT:      -7.9      4.975     11.151
REMARK  11 active torsions:
REMARK  status: ('A' for Active; 'I' for Inactive)
REMARK    1  A    between atoms: C_3  and  N_4 
REMARK    2  A    between atoms: N_4  and  C_5 
REMARK    3  A    between atoms: C_7  and  C_8 
REMARK    4  A    between atoms: C_18  and  N_19 
REMARK       I    between atoms: N_19  and  C_20 
REMARK    5  A    between atoms: C_20  and  C_21 
REMARK    6  A    between atoms: C_22  and  C_23 
REMARK    7  A    between atoms: C_26  and  O_27 
REMARK    8  A    between atoms: O_27  and  C_28 
REMARK    9  A    between atoms: C_28  and  C_29 
REMARK   10  A    between atoms: C_29  and  C_30 
REMARK   11  A    between atoms: C_30  and  N_31 
ROOT
HETATM    1  C   UNL     1      45.108 -22.559   4.822  1.00  0.00     0.050 C 
HETATM    2  C   UNL     1      44.544 -21.482   3.934  1.00  0.00    -0.035 A 
HETATM    3  C   UNL     1      44.333 -20.166   4.401  1.00  0.00     0.057 A 
HETATM    4  C   UNL     1      43.854 -19.205   3.493  1.00  0.00     0.060 A 
HETATM    5  C   UNL     1      43.586 -19.515   2.159  1.00  0.00     0.037 A 
HETATM    6  C   UNL     1      43.808 -20.818   1.712  1.00  0.00     0.030 A 
HETATM    7  C   UNL     1      44.279 -21.793   2.590  1.00  0.00     0.011 A 
ENDROOT
BRANCH   5   8
HETATM    8  N   UNL     1      43.131 -18.575   1.211  1.00  0.00    -0.324 N 
HETATM    9  C   UNL     1      42.138 -17.631   1.375  1.00  0.00     0.245 C 
HETATM   10  O   UNL     1      41.383 -17.494   2.327  1.00  0.00    -0.268 OA
HETATM   11  H   UNL     1      43.600 -18.609   0.317  1.00  0.00     0.169 HD
BRANCH   9  12
HETATM   12  C   UNL     1      42.047 -16.737   0.190  1.00  0.00     0.075 C 
HETATM   13  C   UNL     1      41.368 -15.582   0.254  1.00  0.00     0.017 C 
BRANCH  13  14
HETATM   14  C   UNL     1      41.314 -14.722  -0.924  1.00  0.00    -0.036 A 
HETATM   15  C   UNL     1      40.948 -15.254  -2.163  1.00  0.00     0.014 A 
HETATM   16  C   UNL     1      41.003 -14.461  -3.312  1.00  0.00     0.037 A 
HETATM   17  C   UNL     1      41.448 -13.142  -3.224  1.00  0.00     0.068 A 
HETATM   18  C   UNL     1      41.762 -12.593  -1.980  1.00  0.00     0.037 A 
HETATM   19  C   UNL     1      41.704 -13.383  -0.833  1.00  0.00     0.014 A 
BRANCH  17  20
HETATM   20  O   UNL     1      41.531 -12.293  -4.288  1.00  0.00    -0.351 OA
BRANCH  20  21
HETATM   21  C   UNL     1      40.968 -10.994  -4.096  1.00  0.00     0.177 C 
BRANCH  21  22
HETATM   22  C   UNL     1      41.507 -10.094  -5.206  1.00  0.00     0.054 C 
BRANCH  22  23
HETATM   23  C   UNL     1      40.366  -9.343  -5.886  1.00  0.00     0.236 C 
BRANCH  23  24
HETATM   24  N   UNL     1      39.548 -10.263  -6.771  1.00  0.00    -0.079 N 
HETATM   25  H   UNL     1      39.696 -11.229  -6.448  1.00  0.00     0.278 HD
HETATM   26  C   UNL     1      38.068  -9.986  -6.707  1.00  0.00     0.269 C 
HETATM   27  C   UNL     1      40.038 -10.208  -8.196  1.00  0.00     0.269 C 
ENDBRANCH  23  24
ENDBRANCH  22  23
ENDBRANCH  21  22
ENDBRANCH  20  21
ENDBRANCH  17  20
ENDBRANCH  13  14
ENDBRANCH   9  12
ENDBRANCH   5   8
BRANCH   3  28
HETATM   28  N   UNL     1      44.682 -19.825   5.721  1.00  0.00    -0.188 N 
HETATM   29  H   UNL     1      45.119 -20.549   6.270  1.00  0.00     0.184 HD
BRANCH  28  30
HETATM   30  C   UNL     1      44.207 -18.834   6.578  1.00  0.00     0.727 A 
HETATM   31  N   UNL     1      43.584 -17.744   6.103  1.00  0.00    -0.062 NA
HETATM   32  C   UNL     1      43.130 -16.809   6.967  1.00  0.00     0.089 A 
HETATM   33  C   UNL     1      43.317 -16.966   8.325  1.00  0.00     0.053 A 
HETATM   34  C   UNL     1      43.989 -18.096   8.726  1.00  0.00     0.139 A 
HETATM   35  N   UNL     1      44.450 -19.031   7.880  1.00  0.00    -0.075 NA
BRANCH  32  36
HETATM   36  C   UNL     1      42.452 -15.645   6.349  1.00  0.00     0.011 A 
HETATM   37  C   UNL     1      43.135 -14.445   6.107  1.00  0.00     0.130 A 
HETATM   38  N   UNL     1      42.593 -13.319   5.565  1.00  0.00    -0.272 NA
HETATM   39  C   UNL     1      41.292 -13.380   5.228  1.00  0.00     0.116 A 
HETATM   40  C   UNL     1      40.512 -14.506   5.407  1.00  0.00     0.020 A 
HETATM   41  C   UNL     1      41.099 -15.641   5.972  1.00  0.00     0.017 A 
ENDBRANCH  32  36
ENDBRANCH  28  30
ENDBRANCH   3  28
TORSDOF 11
ENDMDL
MODEL 7
REMARK VINA RESULT:      -7.8      3.650     12.098
REMARK  11 active torsions:
REMARK  status: ('A' for Active; 'I' for Inactive)
REMARK    1  A    between atoms: C_3  and  N_4 
REMARK    2  A    between atoms: N_4  and  C_5 
REMARK    3  A    between atoms: C_7  and  C_8 
REMARK    4  A    between atoms: C_18  and  N_19 
REMARK       I    between atoms: N_19  and  C_20 
REMARK    5  A    between atoms: C_20  and  C_21 
REMARK    6  A    between atoms: C_22  and  C_23 
REMARK    7  A    between atoms: C_26  and  O_27 
REMARK    8  A    between atoms: O_27  and  C_28 
REMARK    9  A    between atoms: C_28  and  C_29 
REMARK   10  A    between atoms: C_29  and  C_30 
REMARK   11  A    between atoms: C_30  and  N_31 
ROOT
HETATM    1  C   UNL     1      43.678 -17.162   8.041  1.00  0.00     0.050 C 
HETATM    2  C   UNL     1      42.906 -16.457   6.958  1.00  0.00    -0.035 A 
HETATM    3  C   UNL     1      43.423 -15.324   6.292  1.00  0.00     0.057 A 
HETATM    4  C   UNL     1      42.663 -14.756   5.254  1.00  0.00     0.060 A 
HETATM    5  C   UNL     1      41.427 -15.279   4.869  1.00  0.00     0.037 A 
HETATM    6  C   UNL     1      40.936 -16.404   5.532  1.00  0.00     0.030 A 
HETATM    7  C   UNL     1      41.665 -16.986   6.568  1.00  0.00     0.011 A 
ENDROOT
BRANCH   5   8
HETATM    8  N   UNL     1      40.647 -14.756   3.817  1.00  0.00    -0.324 N 
HETATM    9  C   UNL     1      39.939 -13.572   3.805  1.00  0.00     0.245 C 
HETATM   10  O   UNL     1      39.754 -12.799   4.734  1.00  0.00    -0.268 OA
HETATM   11  H   UNL     1      40.620 -15.325   2.982  1.00  0.00     0.169 HD
BRANCH   9  12
HETATM   12  C   UNL     1      39.357 -13.308   2.462  1.00  0.00     0.075 C 
HETATM   13  C   UNL     1      39.867 -13.891   1.368  1.00  0.00     0.017 C 
BRANCH  13  14
HETATM   14  C   UNL     1      39.259 -13.622   0.069  1.00  0.00    -0.036 A 
HETATM   15  C   UNL     1      38.237 -12.677  -0.043  1.00  0.00     0.014 A 
HETATM   16  C   UNL     1      37.576 -12.498  -1.262  1.00  0.00     0.037 A 
HETATM   17  C   UNL     1      37.924 -13.282  -2.361  1.00  0.00     0.068 A 
HETATM   18  C   UNL     1      38.980 -14.187  -2.266  1.00  0.00     0.037 A 
HETATM   19  C   UNL     1      39.643 -14.364  -1.052  1.00  0.00     0.014 A 
BRANCH  17  20
HETATM   20  O   UNL     1      37.339 -13.174  -3.589  1.00  0.00    -0.351 OA
BRANCH  20  21
HETATM   21  C   UNL     1      36.907 -14.399  -4.185  1.00  0.00     0.177 C 
BRANCH  21  22
HETATM   22  C   UNL     1      35.631 -14.100  -4.968  1.00  0.00     0.054 C 
BRANCH  22  23
HETATM   23  C   UNL     1      35.420 -12.594  -5.090  1.00  0.00     0.236 C 
BRANCH  23  24
HETATM   24  N   UNL     1      36.223 -12.015  -6.238  1.00  0.00    -0.079 N 
HETATM   25  H   UNL     1      37.090 -12.561  -6.326  1.00  0.00     0.278 HD
HETATM   26  C   UNL     1      35.505 -12.089  -7.561  1.00  0.00     0.269 C 
HETATM   27  C   UNL     1      36.638 -10.597  -5.937  1.00  0.00     0.269 C 
ENDBRANCH  23  24
ENDBRANCH  22  23
ENDBRANCH  21  22
ENDBRANCH  20  21
ENDBRANCH  17  20
ENDBRANCH  13  14
ENDBRANCH   9  12
ENDBRANCH   5   8
BRANCH   3  28
HETATM   28  N   UNL     1      44.706 -14.844   6.615  1.00  0.00    -0.188 N 
HETATM   29  H   UNL     1      45.459 -15.512   6.568  1.00  0.00     0.184 HD
BRANCH  28  30
HETATM   30  C   UNL     1      45.122 -13.748   7.369  1.00  0.00     0.727 A 
HETATM   31  N   UNL     1      44.360 -13.255   8.359  1.00  0.00    -0.062 NA
HETATM   32  C   UNL     1      44.802 -12.197   9.073  1.00  0.00     0.089 A 
HETATM   33  C   UNL     1      46.021 -11.618   8.780  1.00  0.00     0.053 A 
HETATM   34  C   UNL     1      46.724 -12.165   7.733  1.00  0.00     0.139 A 
HETATM   35  N   UNL     1      46.296 -13.213   7.012  1.00  0.00    -0.075 NA
BRANCH  32  36
HETATM   36  C   UNL     1      43.895 -11.727  10.146  1.00  0.00     0.011 A 
HETATM   37  C   UNL     1      42.804 -10.892   9.868  1.00  0.00     0.130 A 
HETATM   38  N   UNL     1      41.930 -10.396  10.788  1.00  0.00    -0.272 NA
HETATM   39  C   UNL     1      42.138 -10.751  12.068  1.00  0.00     0.116 A 
HETATM   40  C   UNL     1      43.171 -11.574  12.471  1.00  0.00     0.020 A 
HETATM   41  C   UNL     1      44.053 -12.061  11.502  1.00  0.00     0.017 A 
ENDBRANCH  32  36
ENDBRANCH  28  30
ENDBRANCH   3  28
TORSDOF 11
ENDMDL
MODEL 8
REMARK VINA RESULT:      -7.6      2.388      6.098
REMARK  11 active torsions:
REMARK  status: ('A' for Active; 'I' for Inactive)
REMARK    1  A    between atoms: C_3  and  N_4 
REMARK    2  A    between atoms: N_4  and  C_5 
REMARK    3  A    between atoms: C_7  and  C_8 
REMARK    4  A    between atoms: C_18  and  N_19 
REMARK       I    between atoms: N_19  and  C_20 
REMARK    5  A    between atoms: C_20  and  C_21 
REMARK    6  A    between atoms: C_22  and  C_23 
REMARK    7  A    between atoms: C_26  and  O_27 
REMARK    8  A    between atoms: O_27  and  C_28 
REMARK    9  A    between atoms: C_28  and  C_29 
REMARK   10  A    between atoms: C_29  and  C_30 
REMARK   11  A    between atoms: C_30  and  N_31 
ROOT
HETATM    1  C   UNL     1      40.990 -15.242  -1.277  1.00  0.00     0.050 C 
HETATM    2  C   UNL     1      40.734 -14.739   0.119  1.00  0.00    -0.035 A 
HETATM    3  C   UNL     1      41.528 -15.143   1.213  1.00  0.00     0.057 A 
HETATM    4  C   UNL     1      41.258 -14.585   2.475  1.00  0.00     0.060 A 
HETATM    5  C   UNL     1      40.237 -13.653   2.670  1.00  0.00     0.037 A 
HETATM    6  C   UNL     1      39.467 -13.259   1.576  1.00  0.00     0.030 A 
HETATM    7  C   UNL     1      39.710 -13.798   0.313  1.00  0.00     0.011 A 
ENDROOT
BRANCH   5   8
HETATM    8  N   UNL     1      39.951 -13.050   3.913  1.00  0.00    -0.324 N 
HETATM    9  C   UNL     1      39.816 -13.674   5.137  1.00  0.00     0.245 C 
HETATM   10  O   UNL     1      39.805 -14.874   5.370  1.00  0.00    -0.268 OA
HETATM   11  H   UNL     1      39.840 -12.047   3.885  1.00  0.00     0.169 HD
BRANCH   9  12
HETATM   12  C   UNL     1      39.651 -12.679   6.230  1.00  0.00     0.075 C 
HETATM   13  C   UNL     1      40.667 -11.881   6.589  1.00  0.00     0.017 C 
BRANCH  13  14
HETATM   14  C   UNL     1      40.462 -10.905   7.655  1.00  0.00    -0.036 A 
HETATM   15  C   UNL     1      39.303 -10.950   8.433  1.00  0.00     0.014 A 
HETATM   16  C   UNL     1      39.052  -9.952   9.378  1.00  0.00     0.037 A 
HETATM   17  C   UNL     1      39.950  -8.896   9.526  1.00  0.00     0.068 A 
HETATM   18  C   UNL     1      41.134  -8.877   8.789  1.00  0.00     0.037 A 
HETATM   19  C   UNL     1      41.388  -9.874   7.849  1.00  0.00     0.014 A 
BRANCH  17  20
HETATM   20  O   UNL     1      39.791  -7.880  10.424  1.00  0.00    -0.351 OA
BRANCH  20  21
HETATM   21  C   UNL     1      40.935  -7.566  11.221  1.00  0.00     0.177 C 
BRANCH  21  22
HETATM   22  C   UNL     1      40.882  -8.451  12.464  1.00  0.00     0.054 C 
BRANCH  22  23
HETATM   23  C   UNL     1      42.192  -9.216  12.631  1.00  0.00     0.236 C 
BRANCH  23  24
HETATM   24  N   UNL     1      41.979 -10.711  12.498  1.00  0.00    -0.079 N 
HETATM   25  H   UNL     1      42.481 -11.174  13.266  1.00  0.00     0.278 HD
HETATM   26  C   UNL     1      40.530 -11.115  12.596  1.00  0.00     0.269 C 
HETATM   27  C   UNL     1      42.587 -11.224  11.217  1.00  0.00     0.269 C 
ENDBRANCH  23  24
ENDBRANCH  22  23
ENDBRANCH  21  22
ENDBRANCH  20  21
ENDBRANCH  17  20
ENDBRANCH  13  14
ENDBRANCH   9  12
ENDBRANCH   5   8
BRANCH   3  28
HETATM   28  N   UNL     1      42.614 -16.015   1.009  1.00  0.00    -0.188 N 
HETATM   29  H   UNL     1      42.935 -16.115   0.059  1.00  0.00     0.184 HD
BRANCH  28  30
HETATM   30  C   UNL     1      43.101 -17.080   1.765  1.00  0.00     0.727 A 
HETATM   31  N   UNL     1      43.107 -17.036   3.107  1.00  0.00    -0.062 NA
HETATM   32  C   UNL     1      43.579 -18.092   3.804  1.00  0.00     0.089 A 
HETATM   33  C   UNL     1      44.064 -19.203   3.143  1.00  0.00     0.053 A 
HETATM   34  C   UNL     1      44.049 -19.155   1.770  1.00  0.00     0.139 A 
HETATM   35  N   UNL     1      43.588 -18.111   1.064  1.00  0.00    -0.075 NA
BRANCH  32  36
HETATM   36  C   UNL     1      43.540 -17.952   5.279  1.00  0.00     0.011 A 
HETATM   37  C   UNL     1      43.200 -16.737   5.889  1.00  0.00     0.130 A 
HETATM   38  N   UNL     1      43.157 -16.508   7.231  1.00  0.00    -0.272 NA
HETATM   39  C   UNL     1      43.460 -17.547   8.029  1.00  0.00     0.116 A 
HETATM   40  C   UNL     1      43.803 -18.797   7.552  1.00  0.00     0.020 A 
HETATM   41  C   UNL     1      43.843 -18.995   6.170  1.00  0.00     0.017 A 
ENDBRANCH  32  36
ENDBRANCH  28  30
ENDBRANCH   3  28
TORSDOF 11
ENDMDL
MODEL 9
REMARK VINA RESULT:      -7.5      4.567     11.503
REMARK  11 active torsions:
REMARK  status: ('A' for Active; 'I' for Inactive)
REMARK    1  A    between atoms: C_3  and  N_4 
REMARK    2  A    between atoms: N_4  and  C_5 
REMARK    3  A    between atoms: C_7  and  C_8 
REMARK    4  A    between atoms: C_18  and  N_19 
REMARK       I    between atoms: N_19  and  C_20 
REMARK    5  A    between atoms: C_20  and  C_21 
REMARK    6  A    between atoms: C_22  and  C_23 
REMARK    7  A    between atoms: C_26  and  O_27 
REMARK    8  A    between atoms: O_27  and  C_28 
REMARK    9  A    between atoms: C_28  and  C_29 
REMARK   10  A    between atoms: C_29  and  C_30 
REMARK   11  A    between atoms: C_30  and  N_31 
ROOT
HETATM    1  C   UNL     1      44.701 -19.920   5.144  1.00  0.00     0.050 C 
HETATM    2  C   UNL     1      44.125 -19.065   4.047  1.00  0.00    -0.035 A 
HETATM    3  C   UNL     1      43.674 -17.749   4.287  1.00  0.00     0.057 A 
HETATM    4  C   UNL     1      43.200 -16.997   3.197  1.00  0.00     0.060 A 
HETATM    5  C   UNL     1      43.166 -17.513   1.900  1.00  0.00     0.037 A 
HETATM    6  C   UNL     1      43.622 -18.812   1.680  1.00  0.00     0.030 A 
HETATM    7  C   UNL     1      44.095 -19.583   2.741  1.00  0.00     0.011 A 
ENDROOT
BRANCH   5   8
HETATM    8  N   UNL     1      42.723 -16.783   0.777  1.00  0.00    -0.324 N 
HETATM    9  C   UNL     1      41.426 -16.439   0.458  1.00  0.00     0.245 C 
HETATM   10  O   UNL     1      40.397 -16.789   1.018  1.00  0.00    -0.268 OA
HETATM   11  H   UNL     1      43.455 -16.483   0.148  1.00  0.00     0.169 HD
BRANCH   9  12
HETATM   12  C   UNL     1      41.384 -15.551  -0.734  1.00  0.00     0.075 C 
HETATM   13  C   UNL     1      41.677 -14.247  -0.628  1.00  0.00     0.017 C 
BRANCH  13  14
HETATM   14  C   UNL     1      41.643 -13.410  -1.823  1.00  0.00    -0.036 A 
HETATM   15  C   UNL     1      42.627 -12.439  -2.026  1.00  0.00     0.014 A 
HETATM   16  C   UNL     1      42.535 -11.561  -3.110  1.00  0.00     0.037 A 
HETATM   17  C   UNL     1      41.446 -11.642  -3.976  1.00  0.00     0.068 A 
HETATM   18  C   UNL     1      40.492 -12.645  -3.807  1.00  0.00     0.037 A 
HETATM   19  C   UNL     1      40.584 -13.523  -2.729  1.00  0.00     0.014 A 
BRANCH  17  20
HETATM   20  O   UNL     1      41.274 -10.833  -5.062  1.00  0.00    -0.351 OA
BRANCH  20  21
HETATM   21  C   UNL     1      42.402 -10.038  -5.433  1.00  0.00     0.177 C 
BRANCH  21  22
HETATM   22  C   UNL     1      41.969  -9.149  -6.597  1.00  0.00     0.054 C 
BRANCH  22  23
HETATM   23  C   UNL     1      42.970  -8.015  -6.803  1.00  0.00     0.236 C 
BRANCH  23  24
HETATM   24  N   UNL     1      44.003  -8.374  -7.853  1.00  0.00    -0.079 N 
HETATM   25  H   UNL     1      44.418  -9.279  -7.594  1.00  0.00     0.278 HD
HETATM   26  C   UNL     1      43.418  -8.524  -9.234  1.00  0.00     0.269 C 
HETATM   27  C   UNL     1      45.129  -7.371  -7.859  1.00  0.00     0.269 C 
ENDBRANCH  23  24
ENDBRANCH  22  23
ENDBRANCH  21  22
ENDBRANCH  20  21
ENDBRANCH  17  20
ENDBRANCH  13  14
ENDBRANCH   9  12
ENDBRANCH   5   8
BRANCH   3  28
HETATM   28  N   UNL     1      43.787 -17.192   5.574  1.00  0.00    -0.188 N 
HETATM   29  H   UNL     1      43.592 -17.809   6.348  1.00  0.00     0.184 HD
BRANCH  28  30
HETATM   30  C   UNL     1      43.724 -15.874   6.021  1.00  0.00     0.727 A 
HETATM   31  N   UNL     1      42.705 -15.070   5.677  1.00  0.00    -0.062 NA
HETATM   32  C   UNL     1      42.676 -13.800   6.137  1.00  0.00     0.089 A 
HETATM   33  C   UNL     1      43.691 -13.328   6.945  1.00  0.00     0.053 A 
HETATM   34  C   UNL     1      44.710 -14.206   7.226  1.00  0.00     0.139 A 
HETATM   35  N   UNL     1      44.756 -15.468   6.772  1.00  0.00    -0.075 NA
BRANCH  32  36
HETATM   36  C   UNL     1      41.511 -12.992   5.707  1.00  0.00     0.011 A 
HETATM   37  C   UNL     1      41.669 -11.835   4.932  1.00  0.00     0.130 A 
HETATM   38  N   UNL     1      40.663 -11.020   4.508  1.00  0.00    -0.272 NA
HETATM   39  C   UNL     1      39.415 -11.371   4.863  1.00  0.00     0.116 A 
HETATM   40  C   UNL     1      39.125 -12.491   5.617  1.00  0.00     0.020 A 
HETATM   41  C   UNL     1      40.181 -13.302   6.041  1.00  0.00     0.017 A 
ENDBRANCH  32  36
ENDBRANCH  28  30
ENDBRANCH   3  28
TORSDOF 11
ENDMDL
MODEL 10
REMARK VINA RESULT:      -7.5      1.791      2.668
REMARK  11 active torsions:
REMARK  status: ('A' for Active; 'I' for Inactive)
REMARK    1  A    between atoms: C_3  and  N_4 
REMARK    2  A    between atoms: N_4  and  C_5 
REMARK    3  A    between atoms: C_7  and  C_8 
REMARK    4  A    between atoms: C_18  and  N_19 
REMARK       I    between atoms: N_19  and  C_20 
REMARK    5  A    between atoms: C_20  and  C_21 
REMARK    6  A    between atoms: C_22  and  C_23 
REMARK    7  A    between atoms: C_26  and  O_27 
REMARK    8  A    between atoms: O_27  and  C_28 
REMARK    9  A    between atoms: C_28  and  C_29 
REMARK   10  A    between atoms: C_29  and  C_30 
REMARK   11  A    between atoms: C_30  and  N_31 
ROOT
HETATM    1  C   UNL     1      41.735 -17.720   1.362  1.00  0.00     0.050 C 
HETATM    2  C   UNL     1      41.985 -16.814   2.539  1.00  0.00    -0.035 A 
HETATM    3  C   UNL     1      41.316 -15.579   2.683  1.00  0.00     0.057 A 
HETATM    4  C   UNL     1      41.565 -14.817   3.838  1.00  0.00     0.060 A 
HETATM    5  C   UNL     1      42.445 -15.246   4.834  1.00  0.00     0.037 A 
HETATM    6  C   UNL     1      43.091 -16.473   4.679  1.00  0.00     0.030 A 
HETATM    7  C   UNL     1      42.866 -17.248   3.542  1.00  0.00     0.011 A 
ENDROOT
BRANCH   5   8
HETATM    8  N   UNL     1      42.702 -14.525   6.019  1.00  0.00    -0.324 N 
HETATM    9  C   UNL     1      43.831 -13.796   6.329  1.00  0.00     0.245 C 
HETATM   10  O   UNL     1      44.874 -13.721   5.695  1.00  0.00    -0.268 OA
HETATM   11  H   UNL     1      41.961 -14.553   6.705  1.00  0.00     0.169 HD
BRANCH   9  12
HETATM   12  C   UNL     1      43.664 -13.069   7.616  1.00  0.00     0.075 C 
HETATM   13  C   UNL     1      44.712 -12.858   8.425  1.00  0.00     0.017 C 
BRANCH  13  14
HETATM   14  C   UNL     1      44.513 -12.126   9.671  1.00  0.00    -0.036 A 
HETATM   15  C   UNL     1      44.245 -12.817  10.855  1.00  0.00     0.014 A 
HETATM   16  C   UNL     1      43.944 -12.117  12.026  1.00  0.00     0.037 A 
HETATM   17  C   UNL     1      43.887 -10.724  12.005  1.00  0.00     0.068 A 
HETATM   18  C   UNL     1      44.207 -10.029  10.838  1.00  0.00     0.037 A 
HETATM   19  C   UNL     1      44.512 -10.727   9.670  1.00  0.00     0.014 A 
BRANCH  17  20
HETATM   20  O   UNL     1      43.607  -9.956  13.097  1.00  0.00    -0.351 OA
BRANCH  20  21
HETATM   21  C   UNL     1      42.539 -10.416  13.928  1.00  0.00     0.177 C 
BRANCH  21  22
HETATM   22  C   UNL     1      41.982  -9.203  14.669  1.00  0.00     0.054 C 
BRANCH  22  23
HETATM   23  C   UNL     1      40.718  -8.693  13.983  1.00  0.00     0.236 C 
BRANCH  23  24
HETATM   24  N   UNL     1      40.717  -9.029  12.505  1.00  0.00    -0.079 N 
HETATM   25  H   UNL     1      41.442  -9.740  12.340  1.00  0.00     0.278 HD
HETATM   26  C   UNL     1      39.407  -9.600  12.027  1.00  0.00     0.269 C 
HETATM   27  C   UNL     1      41.103  -7.825  11.683  1.00  0.00     0.269 C 
ENDBRANCH  23  24
ENDBRANCH  22  23
ENDBRANCH  21  22
ENDBRANCH  20  21
ENDBRANCH  17  20
ENDBRANCH  13  14
ENDBRANCH   9  12
ENDBRANCH   5   8
BRANCH   3  28
HETATM   28  N   UNL     1      40.363 -15.180   1.727  1.00  0.00    -0.188 N 
HETATM   29  H   UNL     1      39.544 -15.760   1.643  1.00  0.00     0.184 HD
BRANCH  28  30
HETATM   30  C   UNL     1      40.471 -14.384   0.588  1.00  0.00     0.727 A 
HETATM   31  N   UNL     1      39.550 -14.436  -0.387  1.00  0.00    -0.062 NA
HETATM   32  C   UNL     1      39.686 -13.642  -1.472  1.00  0.00     0.089 A 
HETATM   33  C   UNL     1      40.770 -12.795  -1.584  1.00  0.00     0.053 A 
HETATM   34  C   UNL     1      41.682 -12.825  -0.556  1.00  0.00     0.139 A 
HETATM   35  N   UNL     1      41.563 -13.611   0.525  1.00  0.00    -0.075 NA
BRANCH  32  36
HETATM   36  C   UNL     1      38.617 -13.766  -2.490  1.00  0.00     0.011 A 
HETATM   37  C   UNL     1      38.261 -15.010  -3.029  1.00  0.00     0.130 A 
HETATM   38  N   UNL     1      37.309 -15.220  -3.981  1.00  0.00    -0.272 NA
HETATM   39  C   UNL     1      36.656 -14.133  -4.428  1.00  0.00     0.116 A 
HETATM   40  C   UNL     1      36.907 -12.853  -3.972  1.00  0.00     0.020 A 
HETATM   41  C   UNL     1      37.895 -12.674  -3.000  1.00  0.00     0.017 A 
ENDBRANCH  32  36
ENDBRANCH  28  30
ENDBRANCH   3  28
TORSDOF 11
ENDMDL
