MODEL 1
REMARK VINA RESULT:     -10.0      0.000      0.000
REMARK  8 active torsions:
REMARK  status: ('A' for Active; 'I' for Inactive)
REMARK    1  A    between atoms: C_4  and  C_5 
REMARK    2  A    between atoms: C_5  and  N_6 
REMARK    3  A    between atoms: C_5  and  C_31 
REMARK       I    between atoms: N_6  and  C_7 
REMARK    4  A    between atoms: N_6  and  C_21 
REMARK    5  A    between atoms: C_7  and  C_8 
REMARK    6  A    between atoms: C_11  and  C_12 
REMARK    7  A    between atoms: C_21  and  C_22 
REMARK       I    between atoms: C_31  and  N_32 
REMARK    8  A    between atoms: N_32  and  C_33 
ROOT
HETATM    1  N   UNL     1      40.872 -15.138   2.425  1.00  0.00    -0.323 N 
HETATM    2  C   UNL     1      40.861 -16.451   1.951  1.00  0.00     0.271 C 
HETATM    3  O   UNL     1      39.800 -17.034   1.725  1.00  0.00    -0.266 OA
ENDROOT
BRANCH   1   4
HETATM    4  C   UNL     1      39.614 -14.349   2.435  1.00  0.00     0.237 C 
BRANCH   4   5
HETATM    5  C   UNL     1      39.739 -13.079   3.222  1.00  0.00     0.085 A 
HETATM    6  O   UNL     1      40.157 -11.978   2.526  1.00  0.00    -0.317 OA
HETATM    7  C   UNL     1      40.232 -10.944   3.409  1.00  0.00     0.049 A 
HETATM    8  C   UNL     1      40.674  -9.644   2.870  1.00  0.00     0.076 C 
HETATM    9  C   UNL     1      39.866 -11.367   4.666  1.00  0.00     0.035 A 
HETATM   10  C   UNL     1      39.548 -12.740   4.549  1.00  0.00     0.038 A 
ENDBRANCH   4   5
BRANCH   4  11
HETATM   11  C   UNL     1      38.970 -14.079   1.045  1.00  0.00     0.247 C 
HETATM   12  N   UNL     1      39.838 -13.692   0.041  1.00  0.00    -0.354 N 
HETATM   13  H   UNL     1      40.702 -13.267   0.372  1.00  0.00     0.162 HD
HETATM   14  O   UNL     1      37.753 -14.134   0.867  1.00  0.00    -0.271 OA
BRANCH  12  15
HETATM   15  C   UNL     1      39.383 -13.287  -1.281  1.00  0.00     0.084 C 
HETATM   16  C   UNL     1      40.253 -12.155  -1.845  1.00  0.00     0.025 C 
HETATM   17  C   UNL     1      41.650 -12.631  -2.244  1.00  0.00     0.002 C 
HETATM   18  C   UNL     1      41.593 -13.821  -3.197  1.00  0.00     0.000 C 
HETATM   19  C   UNL     1      40.758 -14.963  -2.628  1.00  0.00     0.002 C 
HETATM   20  C   UNL     1      39.360 -14.495  -2.226  1.00  0.00     0.025 C 
ENDBRANCH  12  15
ENDBRANCH   4  11
ENDBRANCH   1   4
BRANCH   1  21
HETATM   21  C   UNL     1      41.885 -14.697   3.387  1.00  0.00     0.166 C 
BRANCH  21  22
HETATM   22  C   UNL     1      42.058 -15.566   4.615  1.00  0.00    -0.037 A 
HETATM   23  C   UNL     1      43.365 -15.956   4.964  1.00  0.00     0.048 A 
HETATM   24  C   UNL     1      43.545 -16.735   6.087  1.00  0.00     0.105 A 
HETATM   25  C   UNL     1      42.488 -17.133   6.868  1.00  0.00     0.105 A 
HETATM   26  O   UNL     1      44.738 -17.191   6.553  1.00  0.00    -0.323 OA
HETATM   27  O   UNL     1      42.880 -17.894   7.923  1.00  0.00    -0.323 OA
HETATM   28  C   UNL     1      41.195 -16.767   6.571  1.00  0.00     0.040 A 
HETATM   29  C   UNL     1      44.308 -17.930   7.715  1.00  0.00     0.352 A 
HETATM   30  C   UNL     1      40.982 -15.970   5.440  1.00  0.00     0.012 A 
ENDBRANCH  21  22
ENDBRANCH   1  21
BRANCH   2  31
HETATM   31  C   UNL     1      42.110 -17.176   1.855  1.00  0.00     0.101 C 
HETATM   32  N   UNL     1      42.261 -18.408   2.451  1.00  0.00    -0.351 N 
HETATM   33  H   UNL     1      41.527 -18.867   2.975  1.00  0.00     0.166 HD
HETATM   34  C   UNL     1      43.560 -18.852   2.356  1.00  0.00     0.043 C 
HETATM   35  C   UNL     1      44.213 -17.943   1.541  1.00  0.00     0.033 C 
HETATM   36  C   UNL     1      43.303 -16.908   1.210  1.00  0.00     0.037 C 
BRANCH  34  37
HETATM   37  C   UNL     1      44.045 -20.042   3.058  1.00  0.00    -0.009 A 
HETATM   38  C   UNL     1      44.146 -21.281   2.409  1.00  0.00     0.013 A 
HETATM   39  C   UNL     1      44.558 -22.420   3.106  1.00  0.00     0.001 A 
HETATM   40  C   UNL     1      44.877 -22.335   4.460  1.00  0.00     0.000 A 
HETATM   41  C   UNL     1      44.792 -21.108   5.115  1.00  0.00     0.001 A 
HETATM   42  C   UNL     1      44.381 -19.970   4.417  1.00  0.00     0.013 A 
ENDBRANCH  34  37
ENDBRANCH   2  31
TORSDOF 8
ENDMDL
MODEL 2
REMARK VINA RESULT:      -9.8      1.069      1.347
REMARK  8 active torsions:
REMARK  status: ('A' for Active; 'I' for Inactive)
REMARK    1  A    between atoms: C_4  and  C_5 
REMARK    2  A    between atoms: C_5  and  N_6 
REMARK    3  A    between atoms: C_5  and  C_31 
REMARK       I    between atoms: N_6  and  C_7 
REMARK    4  A    between atoms: N_6  and  C_21 
REMARK    5  A    between atoms: C_7  and  C_8 
REMARK    6  A    between atoms: C_11  and  C_12 
REMARK    7  A    between atoms: C_21  and  C_22 
REMARK       I    between atoms: C_31  and  N_32 
REMARK    8  A    between atoms: N_32  and  C_33 
ROOT
HETATM    1  N   UNL     1      41.049 -14.849   2.846  1.00  0.00    -0.323 N 
HETATM    2  C   UNL     1      40.935 -16.090   2.217  1.00  0.00     0.271 C 
HETATM    3  O   UNL     1      39.829 -16.576   1.971  1.00  0.00    -0.266 OA
ENDROOT
BRANCH   1   4
HETATM    4  C   UNL     1      39.847 -13.993   3.008  1.00  0.00     0.237 C 
BRANCH   4   5
HETATM    5  C   UNL     1      39.936 -13.100   4.209  1.00  0.00     0.085 A 
HETATM    6  O   UNL     1      40.591 -11.912   4.030  1.00  0.00    -0.317 OA
HETATM    7  C   UNL     1      40.589 -11.263   5.226  1.00  0.00     0.049 A 
HETATM    8  C   UNL     1      41.256  -9.947   5.266  1.00  0.00     0.076 C 
HETATM    9  C   UNL     1      39.939 -12.018   6.175  1.00  0.00     0.035 A 
HETATM   10  C   UNL     1      39.518 -13.201   5.523  1.00  0.00     0.038 A 
ENDBRANCH   4   5
BRANCH   4  11
HETATM   11  C   UNL     1      39.411 -13.188   1.751  1.00  0.00     0.247 C 
HETATM   12  N   UNL     1      40.428 -12.795   0.901  1.00  0.00    -0.354 N 
HETATM   13  H   UNL     1      41.344 -12.729   1.343  1.00  0.00     0.162 HD
HETATM   14  O   UNL     1      38.240 -12.858   1.559  1.00  0.00    -0.271 OA
BRANCH  12  15
HETATM   15  C   UNL     1      40.203 -11.936  -0.253  1.00  0.00     0.084 C 
HETATM   16  C   UNL     1      40.837 -10.553  -0.047  1.00  0.00     0.025 C 
HETATM   17  C   UNL     1      42.365 -10.591  -0.111  1.00  0.00     0.002 C 
HETATM   18  C   UNL     1      42.861 -11.249  -1.395  1.00  0.00     0.000 C 
HETATM   19  C   UNL     1      42.262 -12.638  -1.589  1.00  0.00     0.002 C 
HETATM   20  C   UNL     1      40.735 -12.607  -1.525  1.00  0.00     0.025 C 
ENDBRANCH  12  15
ENDBRANCH   4  11
ENDBRANCH   1   4
BRANCH   1  21
HETATM   21  C   UNL     1      42.124 -14.592   3.807  1.00  0.00     0.166 C 
BRANCH  21  22
HETATM   22  C   UNL     1      42.319 -15.641   4.882  1.00  0.00    -0.037 A 
HETATM   23  C   UNL     1      43.637 -16.037   5.181  1.00  0.00     0.048 A 
HETATM   24  C   UNL     1      43.836 -16.980   6.167  1.00  0.00     0.105 A 
HETATM   25  C   UNL     1      42.788 -17.535   6.859  1.00  0.00     0.105 A 
HETATM   26  O   UNL     1      45.041 -17.463   6.570  1.00  0.00    -0.323 OA
HETATM   27  O   UNL     1      43.199 -18.442   7.784  1.00  0.00    -0.323 OA
HETATM   28  C   UNL     1      41.485 -17.171   6.607  1.00  0.00     0.040 A 
HETATM   29  C   UNL     1      44.629 -18.394   7.593  1.00  0.00     0.352 A 
HETATM   30  C   UNL     1      41.253 -16.209   5.616  1.00  0.00     0.012 A 
ENDBRANCH  21  22
ENDBRANCH   1  21
BRANCH   2  31
HETATM   31  C   UNL     1      42.128 -16.872   1.978  1.00  0.00     0.101 C 
HETATM   32  N   UNL     1      42.254 -18.147   2.484  1.00  0.00    -0.351 N 
HETATM   33  H   UNL     1      41.536 -18.600   3.035  1.00  0.00     0.166 HD
HETATM   34  C   UNL     1      43.513 -18.651   2.259  1.00  0.00     0.043 C 
HETATM   35  C   UNL     1      44.154 -17.727   1.451  1.00  0.00     0.033 C 
HETATM   36  C   UNL     1      43.283 -16.626   1.258  1.00  0.00     0.037 C 
BRANCH  34  37
HETATM   37  C   UNL     1      43.981 -19.909   2.845  1.00  0.00    -0.009 A 
HETATM   38  C   UNL     1      43.975 -21.104   2.110  1.00  0.00     0.013 A 
HETATM   39  C   UNL     1      44.373 -22.306   2.701  1.00  0.00     0.001 A 
HETATM   40  C   UNL     1      44.783 -22.330   4.032  1.00  0.00     0.000 A 
HETATM   41  C   UNL     1      44.806 -21.149   4.771  1.00  0.00     0.001 A 
HETATM   42  C   UNL     1      44.409 -19.947   4.180  1.00  0.00     0.013 A 
ENDBRANCH  34  37
ENDBRANCH   2  31
TORSDOF 8
ENDMDL
MODEL 3
REMARK VINA RESULT:      -9.0      2.738      6.283
REMARK  8 active torsions:
REMARK  status: ('A' for Active; 'I' for Inactive)
REMARK    1  A    between atoms: C_4  and  C_5 
REMARK    2  A    between atoms: C_5  and  N_6 
REMARK    3  A    between atoms: C_5  and  C_31 
REMARK       I    between atoms: N_6  and  C_7 
REMARK    4  A    between atoms: N_6  and  C_21 
REMARK    5  A    between atoms: C_7  and  C_8 
REMARK    6  A    between atoms: C_11  and  C_12 
REMARK    7  A    between atoms: C_21  and  C_22 
REMARK       I    between atoms: C_31  and  N_32 
REMARK    8  A    between atoms: N_32  and  C_33 
ROOT
HETATM    1  N   UNL     1      41.542 -12.781   0.932  1.00  0.00    -0.323 N 
HETATM    2  C   UNL     1      41.612 -13.375   2.193  1.00  0.00     0.271 C 
HETATM    3  O   UNL     1      42.003 -12.738   3.173  1.00  0.00    -0.266 OA
ENDROOT
BRANCH   1   4
HETATM    4  C   UNL     1      41.710 -11.312   0.800  1.00  0.00     0.237 C 
BRANCH   4   5
HETATM    5  C   UNL     1      42.088 -10.900  -0.591  1.00  0.00     0.085 A 
HETATM    6  O   UNL     1      41.057 -10.528  -1.410  1.00  0.00    -0.317 OA
HETATM    7  C   UNL     1      41.594 -10.218  -2.622  1.00  0.00     0.049 A 
HETATM    8  C   UNL     1      40.651  -9.792  -3.675  1.00  0.00     0.076 C 
HETATM    9  C   UNL     1      42.960 -10.384  -2.593  1.00  0.00     0.035 A 
HETATM   10  C   UNL     1      43.280 -10.823  -1.287  1.00  0.00     0.038 A 
ENDBRANCH   4   5
BRANCH   4  11
HETATM   11  C   UNL     1      40.535 -10.444   1.336  1.00  0.00     0.247 C 
HETATM   12  N   UNL     1      39.293 -10.700   0.785  1.00  0.00    -0.354 N 
HETATM   13  H   UNL     1      39.323 -11.129  -0.138  1.00  0.00     0.162 HD
HETATM   14  O   UNL     1      40.712  -9.534   2.147  1.00  0.00    -0.271 OA
BRANCH  12  15
HETATM   15  C   UNL     1      38.117  -9.897   1.088  1.00  0.00     0.084 C 
HETATM   16  C   UNL     1      37.635  -9.129  -0.151  1.00  0.00     0.025 C 
HETATM   17  C   UNL     1      36.998 -10.043  -1.199  1.00  0.00     0.002 C 
HETATM   18  C   UNL     1      35.885 -10.899  -0.602  1.00  0.00     0.000 C 
HETATM   19  C   UNL     1      36.365 -11.692   0.608  1.00  0.00     0.002 C 
HETATM   20  C   UNL     1      37.004 -10.784   1.660  1.00  0.00     0.025 C 
ENDBRANCH  12  15
ENDBRANCH   4  11
ENDBRANCH   1   4
BRANCH   1  21
HETATM   21  C   UNL     1      41.855 -13.549  -0.276  1.00  0.00     0.166 C 
BRANCH  21  22
HETATM   22  C   UNL     1      40.675 -13.934  -1.143  1.00  0.00    -0.037 A 
HETATM   23  C   UNL     1      40.916 -14.786  -2.238  1.00  0.00     0.048 A 
HETATM   24  C   UNL     1      39.852 -15.160  -3.031  1.00  0.00     0.105 A 
HETATM   25  C   UNL     1      38.574 -14.727  -2.778  1.00  0.00     0.105 A 
HETATM   26  O   UNL     1      39.921 -15.972  -4.119  1.00  0.00    -0.323 OA
HETATM   27  O   UNL     1      37.675 -15.208  -3.676  1.00  0.00    -0.323 OA
HETATM   28  C   UNL     1      38.291 -13.902  -1.713  1.00  0.00     0.040 A 
HETATM   29  C   UNL     1      38.537 -15.995  -4.526  1.00  0.00     0.352 A 
HETATM   30  C   UNL     1      39.351 -13.512  -0.886  1.00  0.00     0.012 A 
ENDBRANCH  21  22
ENDBRANCH   1  21
BRANCH   2  31
HETATM   31  C   UNL     1      41.351 -14.793   2.320  1.00  0.00     0.101 C 
HETATM   32  N   UNL     1      42.337 -15.661   2.733  1.00  0.00    -0.351 N 
HETATM   33  H   UNL     1      43.276 -15.366   2.967  1.00  0.00     0.166 HD
HETATM   34  C   UNL     1      41.918 -16.968   2.649  1.00  0.00     0.043 C 
HETATM   35  C   UNL     1      40.574 -16.917   2.320  1.00  0.00     0.033 C 
HETATM   36  C   UNL     1      40.214 -15.558   2.136  1.00  0.00     0.037 C 
BRANCH  34  37
HETATM   37  C   UNL     1      42.820 -18.105   2.850  1.00  0.00    -0.009 A 
HETATM   38  C   UNL     1      42.922 -19.132   1.900  1.00  0.00     0.013 A 
HETATM   39  C   UNL     1      43.745 -20.237   2.131  1.00  0.00     0.001 A 
HETATM   40  C   UNL     1      44.479 -20.329   3.312  1.00  0.00     0.000 A 
HETATM   41  C   UNL     1      44.396 -19.311   4.259  1.00  0.00     0.001 A 
HETATM   42  C   UNL     1      43.573 -18.205   4.027  1.00  0.00     0.013 A 
ENDBRANCH  34  37
ENDBRANCH   2  31
TORSDOF 8
ENDMDL
MODEL 4
REMARK VINA RESULT:      -8.9      1.776      2.725
REMARK  8 active torsions:
REMARK  status: ('A' for Active; 'I' for Inactive)
REMARK    1  A    between atoms: C_4  and  C_5 
REMARK    2  A    between atoms: C_5  and  N_6 
REMARK    3  A    between atoms: C_5  and  C_31 
REMARK       I    between atoms: N_6  and  C_7 
REMARK    4  A    between atoms: N_6  and  C_21 
REMARK    5  A    between atoms: C_7  and  C_8 
REMARK    6  A    between atoms: C_11  and  C_12 
REMARK    7  A    between atoms: C_21  and  C_22 
REMARK       I    between atoms: C_31  and  N_32 
REMARK    8  A    between atoms: N_32  and  C_33 
ROOT
HETATM    1  N   UNL     1      41.070 -14.738   2.617  1.00  0.00    -0.323 N 
HETATM    2  C   UNL     1      40.926 -16.000   2.041  1.00  0.00     0.271 C 
HETATM    3  O   UNL     1      39.809 -16.462   1.798  1.00  0.00    -0.266 OA
ENDROOT
BRANCH   1   4
HETATM    4  C   UNL     1      39.893 -13.839   2.725  1.00  0.00     0.237 C 
BRANCH   4   5
HETATM    5  C   UNL     1      40.059 -12.802   3.795  1.00  0.00     0.085 A 
HETATM    6  O   UNL     1      39.563 -13.124   5.029  1.00  0.00    -0.317 OA
HETATM    7  C   UNL     1      39.785 -12.058   5.846  1.00  0.00     0.049 A 
HETATM    8  C   UNL     1      39.319 -12.185   7.241  1.00  0.00     0.076 C 
HETATM    9  C   UNL     1      40.419 -11.052   5.153  1.00  0.00     0.035 A 
HETATM   10  C   UNL     1      40.597 -11.529   3.833  1.00  0.00     0.038 A 
ENDBRANCH   4   5
BRANCH   4  11
HETATM   11  C   UNL     1      39.409 -13.192   1.396  1.00  0.00     0.247 C 
HETATM   12  N   UNL     1      38.187 -12.546   1.448  1.00  0.00    -0.354 N 
HETATM   13  H   UNL     1      37.573 -12.867   2.195  1.00  0.00     0.162 HD
HETATM   14  O   UNL     1      40.038 -13.309   0.344  1.00  0.00    -0.271 OA
BRANCH  12  15
HETATM   15  C   UNL     1      37.537 -11.995   0.267  1.00  0.00     0.084 C 
HETATM   16  C   UNL     1      36.067 -11.654   0.552  1.00  0.00     0.025 C 
HETATM   17  C   UNL     1      35.912 -10.435   1.462  1.00  0.00     0.002 C 
HETATM   18  C   UNL     1      36.674  -9.227   0.926  1.00  0.00     0.000 C 
HETATM   19  C   UNL     1      38.143  -9.548   0.675  1.00  0.00     0.002 C 
HETATM   20  C   UNL     1      38.306 -10.766  -0.235  1.00  0.00     0.025 C 
ENDBRANCH  12  15
ENDBRANCH   4  11
ENDBRANCH   1   4
BRANCH   1  21
HETATM   21  C   UNL     1      42.139 -14.473   3.584  1.00  0.00     0.166 C 
BRANCH  21  22
HETATM   22  C   UNL     1      42.266 -15.463   4.722  1.00  0.00    -0.037 A 
HETATM   23  C   UNL     1      43.558 -15.901   5.070  1.00  0.00     0.048 A 
HETATM   24  C   UNL     1      43.695 -16.791   6.115  1.00  0.00     0.105 A 
HETATM   25  C   UNL     1      42.610 -17.254   6.818  1.00  0.00     0.105 A 
HETATM   26  O   UNL     1      44.869 -17.305   6.569  1.00  0.00    -0.323 OA
HETATM   27  O   UNL     1      42.962 -18.121   7.803  1.00  0.00    -0.323 OA
HETATM   28  C   UNL     1      41.330 -16.845   6.519  1.00  0.00     0.040 A 
HETATM   29  C   UNL     1      44.396 -18.152   7.637  1.00  0.00     0.352 A 
HETATM   30  C   UNL     1      41.161 -15.936   5.468  1.00  0.00     0.012 A 
ENDBRANCH  21  22
ENDBRANCH   1  21
BRANCH   2  31
HETATM   31  C   UNL     1      42.098 -16.828   1.853  1.00  0.00     0.101 C 
HETATM   32  N   UNL     1      42.188 -18.072   2.438  1.00  0.00    -0.351 N 
HETATM   33  H   UNL     1      41.458 -18.469   3.016  1.00  0.00     0.166 HD
HETATM   34  C   UNL     1      43.434 -18.623   2.247  1.00  0.00     0.043 C 
HETATM   35  C   UNL     1      44.099 -17.770   1.384  1.00  0.00     0.033 C 
HETATM   36  C   UNL     1      43.258 -16.659   1.121  1.00  0.00     0.037 C 
BRANCH  34  37
HETATM   37  C   UNL     1      43.867 -19.854   2.913  1.00  0.00    -0.009 A 
HETATM   38  C   UNL     1      44.275 -19.853   4.255  1.00  0.00     0.013 A 
HETATM   39  C   UNL     1      44.738 -21.024   4.860  1.00  0.00     0.001 A 
HETATM   40  C   UNL     1      44.795 -22.212   4.134  1.00  0.00     0.000 A 
HETATM   41  C   UNL     1      44.381 -22.230   2.804  1.00  0.00     0.001 A 
HETATM   42  C   UNL     1      43.918 -21.059   2.199  1.00  0.00     0.013 A 
ENDBRANCH  34  37
ENDBRANCH   2  31
TORSDOF 8
ENDMDL
MODEL 5
REMARK VINA RESULT:      -8.7      2.108      4.715
REMARK  8 active torsions:
REMARK  status: ('A' for Active; 'I' for Inactive)
REMARK    1  A    between atoms: C_4  and  C_5 
REMARK    2  A    between atoms: C_5  and  N_6 
REMARK    3  A    between atoms: C_5  and  C_31 
REMARK       I    between atoms: N_6  and  C_7 
REMARK    4  A    between atoms: N_6  and  C_21 
REMARK    5  A    between atoms: C_7  and  C_8 
REMARK    6  A    between atoms: C_11  and  C_12 
REMARK    7  A    between atoms: C_21  and  C_22 
REMARK       I    between atoms: C_31  and  N_32 
REMARK    8  A    between atoms: N_32  and  C_33 
ROOT
HETATM    1  N   UNL     1      40.876 -14.493   3.500  1.00  0.00    -0.323 N 
HETATM    2  C   UNL     1      41.155 -15.150   4.699  1.00  0.00     0.271 C 
HETATM    3  O   UNL     1      40.521 -14.892   5.725  1.00  0.00    -0.266 OA
ENDROOT
BRANCH   1   4
HETATM    4  C   UNL     1      39.659 -13.651   3.388  1.00  0.00     0.237 C 
BRANCH   4   5
HETATM    5  C   UNL     1      39.960 -12.187   3.508  1.00  0.00     0.085 A 
HETATM    6  O   UNL     1      40.267 -11.537   2.344  1.00  0.00    -0.317 OA
HETATM    7  C   UNL     1      40.530 -10.240   2.661  1.00  0.00     0.049 A 
HETATM    8  C   UNL     1      40.896  -9.346   1.544  1.00  0.00     0.076 C 
HETATM    9  C   UNL     1      40.396 -10.046   4.016  1.00  0.00     0.035 A 
HETATM   10  C   UNL     1      40.028 -11.297   4.564  1.00  0.00     0.038 A 
ENDBRANCH   4   5
BRANCH   4  11
HETATM   11  C   UNL     1      38.751 -13.930   2.156  1.00  0.00     0.247 C 
HETATM   12  N   UNL     1      38.200 -12.819   1.545  1.00  0.00    -0.354 N 
HETATM   13  H   UNL     1      38.124 -12.002   2.148  1.00  0.00     0.162 HD
HETATM   14  O   UNL     1      38.478 -15.075   1.790  1.00  0.00    -0.271 OA
BRANCH  12  15
HETATM   15  C   UNL     1      37.236 -12.914   0.459  1.00  0.00     0.084 C 
HETATM   16  C   UNL     1      36.234 -11.751   0.502  1.00  0.00     0.025 C 
HETATM   17  C   UNL     1      36.865 -10.416   0.104  1.00  0.00     0.002 C 
HETATM   18  C   UNL     1      37.565 -10.502  -1.250  1.00  0.00     0.000 C 
HETATM   19  C   UNL     1      38.586 -11.633  -1.290  1.00  0.00     0.002 C 
HETATM   20  C   UNL     1      37.963 -12.971  -0.891  1.00  0.00     0.025 C 
ENDBRANCH  12  15
ENDBRANCH   4  11
ENDBRANCH   1   4
BRANCH   1  21
HETATM   21  C   UNL     1      41.952 -14.150   2.567  1.00  0.00     0.166 C 
BRANCH  21  22
HETATM   22  C   UNL     1      41.739 -14.564   1.126  1.00  0.00    -0.037 A 
HETATM   23  C   UNL     1      41.780 -13.558   0.141  1.00  0.00     0.048 A 
HETATM   24  C   UNL     1      41.603 -13.917  -1.178  1.00  0.00     0.105 A 
HETATM   25  C   UNL     1      41.392 -15.221  -1.550  1.00  0.00     0.105 A 
HETATM   26  O   UNL     1      41.616 -13.067  -2.239  1.00  0.00    -0.323 OA
HETATM   27  O   UNL     1      41.241 -15.359  -2.894  1.00  0.00    -0.323 OA
HETATM   28  C   UNL     1      41.354 -16.238  -0.624  1.00  0.00     0.040 A 
HETATM   29  C   UNL     1      41.380 -13.989  -3.324  1.00  0.00     0.352 A 
HETATM   30  C   UNL     1      41.538 -15.904   0.724  1.00  0.00     0.012 A 
ENDBRANCH  21  22
ENDBRANCH   1  21
BRANCH   2  31
HETATM   31  C   UNL     1      42.290 -16.044   4.767  1.00  0.00     0.101 C 
HETATM   32  N   UNL     1      42.394 -17.124   3.918  1.00  0.00    -0.351 N 
HETATM   33  H   UNL     1      41.701 -17.347   3.214  1.00  0.00     0.166 HD
HETATM   34  C   UNL     1      43.471 -17.914   4.246  1.00  0.00     0.043 C 
HETATM   35  C   UNL     1      44.158 -17.230   5.234  1.00  0.00     0.033 C 
HETATM   36  C   UNL     1      43.433 -16.052   5.545  1.00  0.00     0.037 C 
BRANCH  34  37
HETATM   37  C   UNL     1      43.713 -19.220   3.628  1.00  0.00    -0.009 A 
HETATM   38  C   UNL     1      44.499 -20.193   4.263  1.00  0.00     0.013 A 
HETATM   39  C   UNL     1      44.767 -21.413   3.638  1.00  0.00     0.001 A 
HETATM   40  C   UNL     1      44.251 -21.678   2.370  1.00  0.00     0.000 A 
HETATM   41  C   UNL     1      43.460 -20.726   1.733  1.00  0.00     0.001 A 
HETATM   42  C   UNL     1      43.192 -19.506   2.359  1.00  0.00     0.013 A 
ENDBRANCH  34  37
ENDBRANCH   2  31
TORSDOF 8
ENDMDL
MODEL 6
REMARK VINA RESULT:      -8.6      4.341      8.686
REMARK  8 active torsions:
REMARK  status: ('A' for Active; 'I' for Inactive)
REMARK    1  A    between atoms: C_4  and  C_5 
REMARK    2  A    between atoms: C_5  and  N_6 
REMARK    3  A    between atoms: C_5  and  C_31 
REMARK       I    between atoms: N_6  and  C_7 
REMARK    4  A    between atoms: N_6  and  C_21 
REMARK    5  A    between atoms: C_7  and  C_8 
REMARK    6  A    between atoms: C_11  and  C_12 
REMARK    7  A    between atoms: C_21  and  C_22 
REMARK       I    between atoms: C_31  and  N_32 
REMARK    8  A    between atoms: N_32  and  C_33 
ROOT
HETATM    1  N   UNL     1      43.208 -13.653   6.339  1.00  0.00    -0.323 N 
HETATM    2  C   UNL     1      43.877 -13.139   7.451  1.00  0.00     0.271 C 
HETATM    3  O   UNL     1      44.894 -13.683   7.886  1.00  0.00    -0.266 OA
ENDROOT
BRANCH   1   4
HETATM    4  C   UNL     1      43.845 -14.718   5.525  1.00  0.00     0.237 C 
BRANCH   4   5
HETATM    5  C   UNL     1      43.451 -16.095   5.970  1.00  0.00     0.085 A 
HETATM    6  O   UNL     1      44.194 -17.127   5.466  1.00  0.00    -0.317 OA
HETATM    7  C   UNL     1      43.672 -18.282   5.961  1.00  0.00     0.049 A 
HETATM    8  C   UNL     1      44.322 -19.538   5.537  1.00  0.00     0.076 C 
HETATM    9  C   UNL     1      42.602 -18.007   6.781  1.00  0.00     0.035 A 
HETATM   10  C   UNL     1      42.458 -16.599   6.788  1.00  0.00     0.038 A 
ENDBRANCH   4   5
BRANCH   4  11
HETATM   11  C   UNL     1      43.701 -14.573   3.983  1.00  0.00     0.247 C 
HETATM   12  N   UNL     1      43.144 -15.652   3.322  1.00  0.00    -0.354 N 
HETATM   13  H   UNL     1      43.234 -16.539   3.815  1.00  0.00     0.162 HD
HETATM   14  O   UNL     1      44.123 -13.587   3.377  1.00  0.00    -0.271 OA
BRANCH  12  15
HETATM   15  C   UNL     1      43.050 -15.725   1.871  1.00  0.00     0.084 C 
HETATM   16  C   UNL     1      43.457 -17.113   1.357  1.00  0.00     0.025 C 
HETATM   17  C   UNL     1      42.421 -18.189   1.687  1.00  0.00     0.002 C 
HETATM   18  C   UNL     1      41.027 -17.799   1.204  1.00  0.00     0.000 C 
HETATM   19  C   UNL     1      40.601 -16.436   1.738  1.00  0.00     0.002 C 
HETATM   20  C   UNL     1      41.633 -15.356   1.414  1.00  0.00     0.025 C 
ENDBRANCH  12  15
ENDBRANCH   4  11
ENDBRANCH   1   4
BRANCH   1  21
HETATM   21  C   UNL     1      41.746 -13.603   6.255  1.00  0.00     0.166 C 
BRANCH  21  22
HETATM   22  C   UNL     1      41.174 -12.896   5.044  1.00  0.00    -0.037 A 
HETATM   23  C   UNL     1      40.200 -13.575   4.288  1.00  0.00     0.048 A 
HETATM   24  C   UNL     1      39.656 -12.942   3.190  1.00  0.00     0.105 A 
HETATM   25  C   UNL     1      40.038 -11.675   2.823  1.00  0.00     0.105 A 
HETATM   26  O   UNL     1      38.710 -13.462   2.363  1.00  0.00    -0.323 OA
HETATM   27  O   UNL     1      39.384 -11.237   1.716  1.00  0.00    -0.323 OA
HETATM   28  C   UNL     1      40.978 -10.970   3.539  1.00  0.00     0.040 A 
HETATM   29  C   UNL     1      38.546 -12.376   1.427  1.00  0.00     0.352 A 
HETATM   30  C   UNL     1      41.543 -11.585   4.663  1.00  0.00     0.012 A 
ENDBRANCH  21  22
ENDBRANCH   1  21
BRANCH   2  31
HETATM   31  C   UNL     1      43.290 -12.035   8.179  1.00  0.00     0.101 C 
HETATM   32  N   UNL     1      43.491 -11.893   9.535  1.00  0.00    -0.351 N 
HETATM   33  H   UNL     1      44.049 -12.534  10.084  1.00  0.00     0.166 HD
HETATM   34  C   UNL     1      42.734 -10.865  10.046  1.00  0.00     0.043 C 
HETATM   35  C   UNL     1      42.154 -10.240   8.955  1.00  0.00     0.033 C 
HETATM   36  C   UNL     1      42.518 -10.957   7.787  1.00  0.00     0.037 C 
BRANCH  34  37
HETATM   37  C   UNL     1      42.612 -10.608  11.483  1.00  0.00    -0.009 A 
HETATM   38  C   UNL     1      41.494 -11.042  12.210  1.00  0.00     0.013 A 
HETATM   39  C   UNL     1      41.366 -10.742  13.568  1.00  0.00     0.001 A 
HETATM   40  C   UNL     1      42.356 -10.007  14.218  1.00  0.00     0.000 A 
HETATM   41  C   UNL     1      43.477  -9.579  13.512  1.00  0.00     0.001 A 
HETATM   42  C   UNL     1      43.605  -9.880  12.153  1.00  0.00     0.013 A 
ENDBRANCH  34  37
ENDBRANCH   2  31
TORSDOF 8
ENDMDL
MODEL 7
REMARK VINA RESULT:      -8.6      2.336      3.723
REMARK  8 active torsions:
REMARK  status: ('A' for Active; 'I' for Inactive)
REMARK    1  A    between atoms: C_4  and  C_5 
REMARK    2  A    between atoms: C_5  and  N_6 
REMARK    3  A    between atoms: C_5  and  C_31 
REMARK       I    between atoms: N_6  and  C_7 
REMARK    4  A    between atoms: N_6  and  C_21 
REMARK    5  A    between atoms: C_7  and  C_8 
REMARK    6  A    between atoms: C_11  and  C_12 
REMARK    7  A    between atoms: C_21  and  C_22 
REMARK       I    between atoms: C_31  and  N_32 
REMARK    8  A    between atoms: N_32  and  C_33 
ROOT
HETATM    1  N   UNL     1      42.175 -14.336   1.563  1.00  0.00    -0.323 N 
HETATM    2  C   UNL     1      41.887 -15.618   1.093  1.00  0.00     0.271 C 
HETATM    3  O   UNL     1      40.888 -15.831   0.404  1.00  0.00    -0.266 OA
ENDROOT
BRANCH   1   4
HETATM    4  C   UNL     1      41.414 -13.173   1.042  1.00  0.00     0.237 C 
BRANCH   4   5
HETATM    5  C   UNL     1      42.044 -12.576  -0.180  1.00  0.00     0.085 A 
HETATM    6  O   UNL     1      42.694 -11.385  -0.003  1.00  0.00    -0.317 OA
HETATM    7  C   UNL     1      43.171 -10.998  -1.218  1.00  0.00     0.049 A 
HETATM    8  C   UNL     1      43.909  -9.721  -1.263  1.00  0.00     0.076 C 
HETATM    9  C   UNL     1      42.836 -11.926  -2.177  1.00  0.00     0.035 A 
HETATM   10  C   UNL     1      42.111 -12.942  -1.512  1.00  0.00     0.038 A 
ENDBRANCH   4   5
BRANCH   4  11
HETATM   11  C   UNL     1      39.890 -13.399   0.826  1.00  0.00     0.247 C 
HETATM   12  N   UNL     1      39.462 -13.421  -0.489  1.00  0.00    -0.354 N 
HETATM   13  H   UNL     1      40.073 -12.929  -1.139  1.00  0.00     0.162 HD
HETATM   14  O   UNL     1      39.101 -13.481   1.768  1.00  0.00    -0.271 OA
BRANCH  12  15
HETATM   15  C   UNL     1      38.056 -13.502  -0.858  1.00  0.00     0.084 C 
HETATM   16  C   UNL     1      37.419 -12.107  -0.924  1.00  0.00     0.025 C 
HETATM   17  C   UNL     1      37.902 -11.295  -2.126  1.00  0.00     0.002 C 
HETATM   18  C   UNL     1      37.718 -12.057  -3.435  1.00  0.00     0.000 C 
HETATM   19  C   UNL     1      38.379 -13.431  -3.390  1.00  0.00     0.002 C 
HETATM   20  C   UNL     1      37.901 -14.247  -2.190  1.00  0.00     0.025 C 
ENDBRANCH  12  15
ENDBRANCH   4  11
ENDBRANCH   1   4
BRANCH   1  21
HETATM   21  C   UNL     1      42.771 -14.140   2.887  1.00  0.00     0.166 C 
BRANCH  21  22
HETATM   22  C   UNL     1      41.809 -13.806   4.007  1.00  0.00    -0.037 A 
HETATM   23  C   UNL     1      41.906 -12.532   4.598  1.00  0.00     0.048 A 
HETATM   24  C   UNL     1      41.028 -12.204   5.609  1.00  0.00     0.105 A 
HETATM   25  C   UNL     1      40.069 -13.083   6.048  1.00  0.00     0.105 A 
HETATM   26  O   UNL     1      40.994 -11.019   6.276  1.00  0.00    -0.323 OA
HETATM   27  O   UNL     1      39.311 -12.566   7.050  1.00  0.00    -0.323 OA
HETATM   28  C   UNL     1      39.931 -14.335   5.493  1.00  0.00     0.040 A 
HETATM   29  C   UNL     1      39.905 -11.258   7.192  1.00  0.00     0.352 A 
HETATM   30  C   UNL     1      40.804 -14.693   4.459  1.00  0.00     0.012 A 
ENDBRANCH  21  22
ENDBRANCH   1  21
BRANCH   2  31
HETATM   31  C   UNL     1      42.699 -16.731   1.536  1.00  0.00     0.101 C 
HETATM   32  N   UNL     1      42.522 -17.286   2.784  1.00  0.00    -0.351 N 
HETATM   33  H   UNL     1      41.830 -16.958   3.446  1.00  0.00     0.166 HD
HETATM   34  C   UNL     1      43.486 -18.230   3.051  1.00  0.00     0.043 C 
HETATM   35  C   UNL     1      44.201 -18.387   1.876  1.00  0.00     0.033 C 
HETATM   36  C   UNL     1      43.697 -17.466   0.923  1.00  0.00     0.037 C 
BRANCH  34  37
HETATM   37  C   UNL     1      43.648 -18.846   4.370  1.00  0.00    -0.009 A 
HETATM   38  C   UNL     1      44.269 -20.095   4.520  1.00  0.00     0.013 A 
HETATM   39  C   UNL     1      44.368 -20.696   5.778  1.00  0.00     0.001 A 
HETATM   40  C   UNL     1      43.850 -20.055   6.902  1.00  0.00     0.000 A 
HETATM   41  C   UNL     1      43.242 -18.809   6.769  1.00  0.00     0.001 A 
HETATM   42  C   UNL     1      43.144 -18.209   5.511  1.00  0.00     0.013 A 
ENDBRANCH  34  37
ENDBRANCH   2  31
TORSDOF 8
ENDMDL
MODEL 8
REMARK VINA RESULT:      -8.6      2.167      8.974
REMARK  8 active torsions:
REMARK  status: ('A' for Active; 'I' for Inactive)
REMARK    1  A    between atoms: C_4  and  C_5 
REMARK    2  A    between atoms: C_5  and  N_6 
REMARK    3  A    between atoms: C_5  and  C_31 
REMARK       I    between atoms: N_6  and  C_7 
REMARK    4  A    between atoms: N_6  and  C_21 
REMARK    5  A    between atoms: C_7  and  C_8 
REMARK    6  A    between atoms: C_11  and  C_12 
REMARK    7  A    between atoms: C_21  and  C_22 
REMARK       I    between atoms: C_31  and  N_32 
REMARK    8  A    between atoms: N_32  and  C_33 
ROOT
HETATM    1  N   UNL     1      40.931 -14.720   2.557  1.00  0.00    -0.323 N 
HETATM    2  C   UNL     1      41.724 -13.595   2.786  1.00  0.00     0.271 C 
HETATM    3  O   UNL     1      42.545 -13.574   3.705  1.00  0.00    -0.266 OA
ENDROOT
BRANCH   1   4
HETATM    4  C   UNL     1      41.232 -15.989   3.266  1.00  0.00     0.237 C 
BRANCH   4   5
HETATM    5  C   UNL     1      42.352 -16.753   2.625  1.00  0.00     0.085 A 
HETATM    6  O   UNL     1      42.599 -17.999   3.133  1.00  0.00    -0.317 OA
HETATM    7  C   UNL     1      43.655 -18.514   2.446  1.00  0.00     0.049 A 
HETATM    8  C   UNL     1      44.104 -19.865   2.837  1.00  0.00     0.076 C 
HETATM    9  C   UNL     1      44.091 -17.615   1.500  1.00  0.00     0.035 A 
HETATM   10  C   UNL     1      43.253 -16.481   1.613  1.00  0.00     0.038 A 
ENDBRANCH   4   5
BRANCH   4  11
HETATM   11  C   UNL     1      41.445 -15.876   4.802  1.00  0.00     0.247 C 
HETATM   12  N   UNL     1      42.717 -16.169   5.260  1.00  0.00    -0.354 N 
HETATM   13  H   UNL     1      43.258 -16.772   4.642  1.00  0.00     0.162 HD
HETATM   14  O   UNL     1      40.522 -15.612   5.574  1.00  0.00    -0.271 OA
BRANCH  12  15
HETATM   15  C   UNL     1      43.051 -16.227   6.676  1.00  0.00     0.084 C 
HETATM   16  C   UNL     1      42.449 -17.475   7.337  1.00  0.00     0.025 C 
HETATM   17  C   UNL     1      43.149 -18.764   6.905  1.00  0.00     0.002 C 
HETATM   18  C   UNL     1      44.658 -18.689   7.120  1.00  0.00     0.000 C 
HETATM   19  C   UNL     1      45.268 -17.470   6.437  1.00  0.00     0.002 C 
HETATM   20  C   UNL     1      44.573 -16.178   6.863  1.00  0.00     0.025 C 
ENDBRANCH  12  15
ENDBRANCH   4  11
ENDBRANCH   1   4
BRANCH   1  21
HETATM   21  C   UNL     1      39.544 -14.579   2.105  1.00  0.00     0.166 C 
BRANCH  21  22
HETATM   22  C   UNL     1      39.350 -14.332   0.624  1.00  0.00    -0.037 A 
HETATM   23  C   UNL     1      40.228 -14.974  -0.269  1.00  0.00     0.048 A 
HETATM   24  C   UNL     1      40.058 -14.774  -1.622  1.00  0.00     0.105 A 
HETATM   25  C   UNL     1      39.058 -13.972  -2.114  1.00  0.00     0.105 A 
HETATM   26  O   UNL     1      40.820 -15.321  -2.607  1.00  0.00    -0.323 OA
HETATM   27  O   UNL     1      39.065 -13.908  -3.472  1.00  0.00    -0.323 OA
HETATM   28  C   UNL     1      38.170 -13.334  -1.279  1.00  0.00     0.040 A 
HETATM   29  C   UNL     1      40.187 -14.763  -3.777  1.00  0.00     0.352 A 
HETATM   30  C   UNL     1      38.314 -13.524   0.100  1.00  0.00     0.012 A 
ENDBRANCH  21  22
ENDBRANCH   1  21
BRANCH   2  31
HETATM   31  C   UNL     1      41.482 -12.392   2.018  1.00  0.00     0.101 C 
HETATM   32  N   UNL     1      41.752 -12.347   0.668  1.00  0.00    -0.351 N 
HETATM   33  H   UNL     1      42.124 -13.132   0.148  1.00  0.00     0.166 HD
HETATM   34  C   UNL     1      41.584 -11.076   0.169  1.00  0.00     0.043 C 
HETATM   35  C   UNL     1      41.042 -10.330   1.201  1.00  0.00     0.033 C 
HETATM   36  C   UNL     1      40.958 -11.157   2.350  1.00  0.00     0.037 C 
BRANCH  34  37
HETATM   37  C   UNL     1      41.976 -10.700  -1.191  1.00  0.00    -0.009 A 
HETATM   38  C   UNL     1      42.243  -9.366  -1.531  1.00  0.00     0.013 A 
HETATM   39  C   UNL     1      42.562  -9.015  -2.846  1.00  0.00     0.001 A 
HETATM   40  C   UNL     1      42.622  -9.993  -3.836  1.00  0.00     0.000 A 
HETATM   41  C   UNL     1      42.371 -11.324  -3.511  1.00  0.00     0.001 A 
HETATM   42  C   UNL     1      42.052 -11.675  -2.196  1.00  0.00     0.013 A 
ENDBRANCH  34  37
ENDBRANCH   2  31
TORSDOF 8
ENDMDL
MODEL 9
REMARK VINA RESULT:      -8.6      3.297      5.795
REMARK  8 active torsions:
REMARK  status: ('A' for Active; 'I' for Inactive)
REMARK    1  A    between atoms: C_4  and  C_5 
REMARK    2  A    between atoms: C_5  and  N_6 
REMARK    3  A    between atoms: C_5  and  C_31 
REMARK       I    between atoms: N_6  and  C_7 
REMARK    4  A    between atoms: N_6  and  C_21 
REMARK    5  A    between atoms: C_7  and  C_8 
REMARK    6  A    between atoms: C_11  and  C_12 
REMARK    7  A    between atoms: C_21  and  C_22 
REMARK       I    between atoms: C_31  and  N_32 
REMARK    8  A    between atoms: N_32  and  C_33 
ROOT
HETATM    1  N   UNL     1      41.299 -14.402   4.790  1.00  0.00    -0.323 N 
HETATM    2  C   UNL     1      42.590 -13.892   4.648  1.00  0.00     0.271 C 
HETATM    3  O   UNL     1      43.053 -13.642   3.534  1.00  0.00    -0.266 OA
ENDROOT
BRANCH   1   4
HETATM    4  C   UNL     1      40.383 -14.425   3.622  1.00  0.00     0.237 C 
BRANCH   4   5
HETATM    5  C   UNL     1      39.602 -13.153   3.479  1.00  0.00     0.085 A 
HETATM    6  O   UNL     1      38.826 -13.044   2.358  1.00  0.00    -0.317 OA
HETATM    7  C   UNL     1      38.224 -11.824   2.397  1.00  0.00     0.049 A 
HETATM    8  C   UNL     1      37.335 -11.488   1.268  1.00  0.00     0.076 C 
HETATM    9  C   UNL     1      38.602 -11.145   3.533  1.00  0.00     0.035 A 
HETATM   10  C   UNL     1      39.489 -11.998   4.231  1.00  0.00     0.038 A 
ENDBRANCH   4   5
BRANCH   4  11
HETATM   11  C   UNL     1      41.023 -14.837   2.265  1.00  0.00     0.247 C 
HETATM   12  N   UNL     1      41.212 -13.817   1.350  1.00  0.00    -0.354 N 
HETATM   13  H   UNL     1      40.599 -13.015   1.482  1.00  0.00     0.162 HD
HETATM   14  O   UNL     1      41.279 -16.011   1.993  1.00  0.00    -0.271 OA
BRANCH  12  15
HETATM   15  C   UNL     1      41.686 -14.054  -0.006  1.00  0.00     0.084 C 
HETATM   16  C   UNL     1      40.614 -14.752  -0.854  1.00  0.00     0.025 C 
HETATM   17  C   UNL     1      39.446 -13.829  -1.201  1.00  0.00     0.002 C 
HETATM   18  C   UNL     1      39.921 -12.534  -1.854  1.00  0.00     0.000 C 
HETATM   19  C   UNL     1      40.961 -11.817  -0.999  1.00  0.00     0.002 C 
HETATM   20  C   UNL     1      42.132 -12.734  -0.648  1.00  0.00     0.025 C 
ENDBRANCH  12  15
ENDBRANCH   4  11
ENDBRANCH   1   4
BRANCH   1  21
HETATM   21  C   UNL     1      40.992 -15.384   5.834  1.00  0.00     0.166 C 
BRANCH  21  22
HETATM   22  C   UNL     1      41.923 -16.574   5.921  1.00  0.00    -0.037 A 
HETATM   23  C   UNL     1      42.290 -17.210   4.720  1.00  0.00     0.048 A 
HETATM   24  C   UNL     1      43.149 -18.286   4.777  1.00  0.00     0.105 A 
HETATM   25  C   UNL     1      43.652 -18.747   5.969  1.00  0.00     0.105 A 
HETATM   26  O   UNL     1      43.595 -19.003   3.711  1.00  0.00    -0.323 OA
HETATM   27  O   UNL     1      44.477 -19.815   5.806  1.00  0.00    -0.323 OA
HETATM   28  C   UNL     1      43.329 -18.150   7.166  1.00  0.00     0.040 A 
HETATM   29  C   UNL     1      44.433 -19.974   4.372  1.00  0.00     0.352 A 
HETATM   30  C   UNL     1      42.464 -17.050   7.138  1.00  0.00     0.012 A 
ENDBRANCH  21  22
ENDBRANCH   1  21
BRANCH   2  31
HETATM   31  C   UNL     1      43.439 -13.786   5.815  1.00  0.00     0.101 C 
HETATM   32  N   UNL     1      43.117 -12.936   6.851  1.00  0.00    -0.351 N 
HETATM   33  H   UNL     1      42.289 -12.355   6.857  1.00  0.00     0.166 HD
HETATM   34  C   UNL     1      44.125 -12.887   7.786  1.00  0.00     0.043 C 
HETATM   35  C   UNL     1      45.043 -13.851   7.407  1.00  0.00     0.033 C 
HETATM   36  C   UNL     1      44.605 -14.427   6.188  1.00  0.00     0.037 C 
BRANCH  34  37
HETATM   37  C   UNL     1      44.130 -11.931   8.895  1.00  0.00    -0.009 A 
HETATM   38  C   UNL     1      45.241 -11.802   9.742  1.00  0.00     0.013 A 
HETATM   39  C   UNL     1      45.211 -10.925  10.829  1.00  0.00     0.001 A 
HETATM   40  C   UNL     1      44.072 -10.163  11.083  1.00  0.00     0.000 A 
HETATM   41  C   UNL     1      42.966 -10.272  10.244  1.00  0.00     0.001 A 
HETATM   42  C   UNL     1      42.997 -11.149   9.156  1.00  0.00     0.013 A 
ENDBRANCH  34  37
ENDBRANCH   2  31
TORSDOF 8
ENDMDL
MODEL 10
REMARK VINA RESULT:      -8.3      2.672      7.629
REMARK  8 active torsions:
REMARK  status: ('A' for Active; 'I' for Inactive)
REMARK    1  A    between atoms: C_4  and  C_5 
REMARK    2  A    between atoms: C_5  and  N_6 
REMARK    3  A    between atoms: C_5  and  C_31 
REMARK       I    between atoms: N_6  and  C_7 
REMARK    4  A    between atoms: N_6  and  C_21 
REMARK    5  A    between atoms: C_7  and  C_8 
REMARK    6  A    between atoms: C_11  and  C_12 
REMARK    7  A    between atoms: C_21  and  C_22 
REMARK       I    between atoms: C_31  and  N_32 
REMARK    8  A    between atoms: N_32  and  C_33 
ROOT
HETATM    1  N   UNL     1      41.980 -14.002   3.677  1.00  0.00    -0.323 N 
HETATM    2  C   UNL     1      40.890 -14.432   2.919  1.00  0.00     0.271 C 
HETATM    3  O   UNL     1      39.833 -14.763   3.460  1.00  0.00    -0.266 OA
ENDROOT
BRANCH   1   4
HETATM    4  C   UNL     1      41.802 -13.711   5.122  1.00  0.00     0.237 C 
BRANCH   4   5
HETATM    5  C   UNL     1      42.859 -14.351   5.971  1.00  0.00     0.085 A 
HETATM    6  O   UNL     1      42.517 -15.531   6.572  1.00  0.00    -0.317 OA
HETATM    7  C   UNL     1      43.587 -15.936   7.310  1.00  0.00     0.049 A 
HETATM    8  C   UNL     1      43.435 -17.200   8.058  1.00  0.00     0.076 C 
HETATM    9  C   UNL     1      44.616 -15.030   7.191  1.00  0.00     0.035 A 
HETATM   10  C   UNL     1      44.150 -14.009   6.330  1.00  0.00     0.038 A 
ENDBRANCH   4   5
BRANCH   4  11
HETATM   11  C   UNL     1      41.623 -12.211   5.496  1.00  0.00     0.247 C 
HETATM   12  N   UNL     1      41.356 -11.947   6.827  1.00  0.00    -0.354 N 
HETATM   13  H   UNL     1      40.939 -12.726   7.335  1.00  0.00     0.162 HD
HETATM   14  O   UNL     1      41.645 -11.319   4.648  1.00  0.00    -0.271 OA
BRANCH  12  15
HETATM   15  C   UNL     1      41.044 -10.613   7.318  1.00  0.00     0.084 C 
HETATM   16  C   UNL     1      39.584 -10.519   7.782  1.00  0.00     0.025 C 
HETATM   17  C   UNL     1      39.330 -11.283   9.082  1.00  0.00     0.002 C 
HETATM   18  C   UNL     1      40.296 -10.861  10.185  1.00  0.00     0.000 C 
HETATM   19  C   UNL     1      41.751 -10.984   9.744  1.00  0.00     0.002 C 
HETATM   20  C   UNL     1      42.011 -10.224   8.444  1.00  0.00     0.025 C 
ENDBRANCH  12  15
ENDBRANCH   4  11
ENDBRANCH   1   4
BRANCH   1  21
HETATM   21  C   UNL     1      43.349 -14.339   3.280  1.00  0.00     0.166 C 
BRANCH  21  22
HETATM   22  C   UNL     1      43.595 -15.786   2.907  1.00  0.00    -0.037 A 
HETATM   23  C   UNL     1      43.447 -16.757   3.915  1.00  0.00     0.048 A 
HETATM   24  C   UNL     1      43.652 -18.082   3.593  1.00  0.00     0.105 A 
HETATM   25  C   UNL     1      43.993 -18.472   2.321  1.00  0.00     0.105 A 
HETATM   26  O   UNL     1      43.548 -19.133   4.450  1.00  0.00    -0.323 OA
HETATM   27  O   UNL     1      44.150 -19.818   2.216  1.00  0.00    -0.323 OA
HETATM   28  C   UNL     1      44.139 -17.558   1.302  1.00  0.00     0.040 A 
HETATM   29  C   UNL     1      43.870 -20.230   3.570  1.00  0.00     0.352 A 
HETATM   30  C   UNL     1      43.929 -16.206   1.599  1.00  0.00     0.012 A 
ENDBRANCH  21  22
ENDBRANCH   1  21
BRANCH   2  31
HETATM   31  C   UNL     1      41.052 -14.619   1.493  1.00  0.00     0.101 C 
HETATM   32  N   UNL     1      41.594 -13.627   0.706  1.00  0.00    -0.351 N 
HETATM   33  H   UNL     1      41.904 -12.735   1.069  1.00  0.00     0.166 HD
HETATM   34  C   UNL     1      41.526 -13.957  -0.628  1.00  0.00     0.043 C 
HETATM   35  C   UNL     1      41.068 -15.263  -0.674  1.00  0.00     0.033 C 
HETATM   36  C   UNL     1      40.792 -15.684   0.651  1.00  0.00     0.037 C 
BRANCH  34  37
HETATM   37  C   UNL     1      41.860 -13.013  -1.697  1.00  0.00    -0.009 A 
HETATM   38  C   UNL     1      42.574 -11.835  -1.432  1.00  0.00     0.013 A 
HETATM   39  C   UNL     1      42.838 -10.917  -2.453  1.00  0.00     0.001 A 
HETATM   40  C   UNL     1      42.395 -11.167  -3.750  1.00  0.00     0.000 A 
HETATM   41  C   UNL     1      41.696 -12.338  -4.030  1.00  0.00     0.001 A 
HETATM   42  C   UNL     1      41.433 -13.256  -3.009  1.00  0.00     0.013 A 
ENDBRANCH  34  37
ENDBRANCH   2  31
TORSDOF 8
ENDMDL
