MODEL 1
REMARK VINA RESULT:      -9.5      0.000      0.000
REMARK  5 active torsions:
REMARK  status: ('A' for Active; 'I' for Inactive)
REMARK    1  A    between atoms: N_4  and  C_5 
REMARK    2  A    between atoms: C_16  and  N_17 
REMARK       I    between atoms: N_17  and  C_18 
REMARK    3  A    between atoms: C_18  and  C_19 
REMARK       I    between atoms: C_19  and  N_20 
REMARK    4  A    between atoms: N_20  and  C_21 
REMARK    5  A    between atoms: C_21  and  C_22 
ROOT
HETATM    1  C   UNL     1      46.518 -12.876   7.291  1.00  0.00     0.072 C 
HETATM    2  C   UNL     1      45.339 -13.626   6.793  1.00  0.00     0.055 C 
HETATM    3  N   UNL     1      45.190 -13.867   5.488  1.00  0.00    -0.156 NA
HETATM    4  N   UNL     1      44.008 -14.565   5.400  1.00  0.00    -0.045 N 
HETATM    5  C   UNL     1      43.514 -14.886   6.664  1.00  0.00     0.152 C 
HETATM    6  C   UNL     1      44.290 -14.179   7.557  1.00  0.00     0.079 C 
ENDROOT
BRANCH   5   7
HETATM    7  N   UNL     1      42.421 -15.679   6.974  1.00  0.00    -0.303 N 
HETATM    8  C   UNL     1      42.345 -17.058   6.867  1.00  0.00     0.315 C 
HETATM    9  O   UNL     1      41.281 -17.658   7.013  1.00  0.00    -0.262 OA
HETATM   10  H   UNL     1      41.658 -15.275   7.502  1.00  0.00     0.171 HD
BRANCH   8  11
HETATM   11  C   UNL     1      43.639 -17.892   6.721  1.00  0.00     0.310 C 
HETATM   12  N   UNL     1      43.857 -18.365   5.447  1.00  0.00    -0.349 N 
HETATM   13  H   UNL     1      43.137 -18.181   4.755  1.00  0.00     0.163 HD
HETATM   14  O   UNL     1      44.352 -18.132   7.685  1.00  0.00    -0.262 OA
BRANCH  12  15
HETATM   15  C   UNL     1      44.892 -19.324   5.160  1.00  0.00     0.163 C 
BRANCH  15  16
HETATM   16  C   UNL     1      44.534 -20.211   3.999  1.00  0.00    -0.019 A 
HETATM   17  C   UNL     1      44.741 -21.599   4.012  1.00  0.00     0.042 A 
HETATM   18 CL   UNL     1      45.365 -22.414   5.401  1.00  0.00    -0.084 Cl
HETATM   19  C   UNL     1      44.440 -22.372   2.886  1.00  0.00     0.024 A 
HETATM   20  C   UNL     1      43.916 -21.773   1.740  1.00  0.00     0.002 A 
HETATM   21  C   UNL     1      43.673 -20.403   1.726  1.00  0.00     0.001 A 
HETATM   22  C   UNL     1      43.974 -19.629   2.847  1.00  0.00     0.010 A 
ENDBRANCH  15  16
ENDBRANCH  12  15
ENDBRANCH   8  11
ENDBRANCH   5   7
BRANCH   4  23
HETATM   23  C   UNL     1      43.407 -14.704   4.129  1.00  0.00     0.732 A 
HETATM   24  N   UNL     1      43.079 -15.840   3.603  1.00  0.00    -0.067 NA
HETATM   25  C   UNL     1      42.460 -15.796   2.376  1.00  0.00     0.065 A 
HETATM   26  C   UNL     1      42.159 -14.659   1.720  1.00  0.00     0.036 A 
HETATM   27  C   UNL     1      42.085 -17.144   1.803  1.00  0.00     0.060 C 
HETATM   28  C   UNL     1      41.446 -14.601   0.402  1.00  0.00     0.046 C 
HETATM   29  C   UNL     1      42.552 -13.373   2.348  1.00  0.00     0.268 A 
HETATM   30  C   UNL     1      41.323 -15.963  -0.285  1.00  0.00     0.005 C 
HETATM   31  C   UNL     1      41.013 -17.069   0.714  1.00  0.00     0.006 C 
HETATM   32  O   UNL     1      42.319 -12.291   1.822  1.00  0.00    -0.267 OA
HETATM   33  N   UNL     1      43.179 -13.487   3.547  1.00  0.00    -0.152 N 
HETATM   34  H   UNL     1      43.449 -12.649   4.050  1.00  0.00     0.188 HD
ENDBRANCH   4  23
TORSDOF 5
ENDMDL
MODEL 2
REMARK VINA RESULT:      -9.2      2.749      4.297
REMARK  5 active torsions:
REMARK  status: ('A' for Active; 'I' for Inactive)
REMARK    1  A    between atoms: N_4  and  C_5 
REMARK    2  A    between atoms: C_16  and  N_17 
REMARK       I    between atoms: N_17  and  C_18 
REMARK    3  A    between atoms: C_18  and  C_19 
REMARK       I    between atoms: C_19  and  N_20 
REMARK    4  A    between atoms: N_20  and  C_21 
REMARK    5  A    between atoms: C_21  and  C_22 
ROOT
HETATM    1  C   UNL     1      43.534 -17.479   7.993  1.00  0.00     0.072 C 
HETATM    2  C   UNL     1      42.748 -16.813   6.925  1.00  0.00     0.055 C 
HETATM    3  N   UNL     1      42.964 -15.530   6.624  1.00  0.00    -0.156 NA
HETATM    4  N   UNL     1      42.071 -15.258   5.614  1.00  0.00    -0.045 N 
HETATM    5  C   UNL     1      41.418 -16.416   5.190  1.00  0.00     0.152 C 
HETATM    6  C   UNL     1      41.751 -17.388   6.109  1.00  0.00     0.079 C 
ENDROOT
BRANCH   5   7
HETATM    7  N   UNL     1      40.547 -16.559   4.122  1.00  0.00    -0.303 N 
HETATM    8  C   UNL     1      40.892 -16.700   2.789  1.00  0.00     0.315 C 
HETATM    9  O   UNL     1      40.046 -16.659   1.897  1.00  0.00    -0.262 OA
HETATM   10  H   UNL     1      39.575 -16.770   4.310  1.00  0.00     0.171 HD
BRANCH   8  11
HETATM   11  C   UNL     1      42.342 -17.075   2.403  1.00  0.00     0.310 C 
HETATM   12  N   UNL     1      42.544 -18.427   2.238  1.00  0.00    -0.349 N 
HETATM   13  H   UNL     1      41.761 -19.040   2.443  1.00  0.00     0.163 HD
HETATM   14  O   UNL     1      43.215 -16.224   2.311  1.00  0.00    -0.262 OA
BRANCH  12  15
HETATM   15  C   UNL     1      43.862 -18.984   2.081  1.00  0.00     0.163 C 
BRANCH  15  16
HETATM   16  C   UNL     1      44.197 -19.961   3.174  1.00  0.00    -0.019 A 
HETATM   17  C   UNL     1      44.366 -21.334   2.940  1.00  0.00     0.042 A 
HETATM   18 CL   UNL     1      44.266 -22.006   1.351  1.00  0.00    -0.084 Cl
HETATM   19  C   UNL     1      44.625 -22.209   4.000  1.00  0.00     0.024 A 
HETATM   20  C   UNL     1      44.734 -21.723   5.302  1.00  0.00     0.002 A 
HETATM   21  C   UNL     1      44.605 -20.359   5.544  1.00  0.00     0.001 A 
HETATM   22  C   UNL     1      44.344 -19.484   4.490  1.00  0.00     0.010 A 
ENDBRANCH  15  16
ENDBRANCH  12  15
ENDBRANCH   8  11
ENDBRANCH   5   7
BRANCH   4  23
HETATM   23  C   UNL     1      41.828 -13.908   5.282  1.00  0.00     0.732 A 
HETATM   24  N   UNL     1      41.523 -13.497   4.093  1.00  0.00    -0.067 NA
HETATM   25  C   UNL     1      41.273 -12.152   3.950  1.00  0.00     0.065 A 
HETATM   26  C   UNL     1      41.300 -11.265   4.962  1.00  0.00     0.036 A 
HETATM   27  C   UNL     1      40.910 -11.718   2.547  1.00  0.00     0.060 C 
HETATM   28  C   UNL     1      40.988  -9.805   4.821  1.00  0.00     0.046 C 
HETATM   29  C   UNL     1      41.658 -11.766   6.312  1.00  0.00     0.268 A 
HETATM   30  C   UNL     1      40.895  -9.339   3.367  1.00  0.00     0.005 C 
HETATM   31  C   UNL     1      40.194 -10.368   2.491  1.00  0.00     0.006 C 
HETATM   32  O   UNL     1      41.708 -11.030   7.291  1.00  0.00    -0.267 OA
HETATM   33  N   UNL     1      41.915 -13.098   6.381  1.00  0.00    -0.152 N 
HETATM   34  H   UNL     1      42.135 -13.517   7.278  1.00  0.00     0.188 HD
ENDBRANCH   4  23
TORSDOF 5
ENDMDL
MODEL 3
REMARK VINA RESULT:      -9.1      2.311      4.941
REMARK  5 active torsions:
REMARK  status: ('A' for Active; 'I' for Inactive)
REMARK    1  A    between atoms: N_4  and  C_5 
REMARK    2  A    between atoms: C_16  and  N_17 
REMARK       I    between atoms: N_17  and  C_18 
REMARK    3  A    between atoms: C_18  and  C_19 
REMARK       I    between atoms: C_19  and  N_20 
REMARK    4  A    between atoms: N_20  and  C_21 
REMARK    5  A    between atoms: C_21  and  C_22 
ROOT
HETATM    1  C   UNL     1      42.473 -11.565  -0.337  1.00  0.00     0.072 C 
HETATM    2  C   UNL     1      42.086 -12.761   0.451  1.00  0.00     0.055 C 
HETATM    3  N   UNL     1      42.343 -12.823   1.760  1.00  0.00    -0.156 NA
HETATM    4  N   UNL     1      41.860 -14.050   2.148  1.00  0.00    -0.045 N 
HETATM    5  C   UNL     1      41.168 -14.674   1.109  1.00  0.00     0.152 C 
HETATM    6  C   UNL     1      41.420 -13.914  -0.013  1.00  0.00     0.079 C 
ENDROOT
BRANCH   5   7
HETATM    7  N   UNL     1      40.444 -15.855   1.157  1.00  0.00    -0.303 N 
HETATM    8  C   UNL     1      40.955 -17.139   1.074  1.00  0.00     0.315 C 
HETATM    9  O   UNL     1      40.219 -18.119   0.965  1.00  0.00    -0.262 OA
HETATM   10  H   UNL     1      39.481 -15.825   1.466  1.00  0.00     0.171 HD
BRANCH   8  11
HETATM   11  C   UNL     1      42.469 -17.382   1.279  1.00  0.00     0.310 C 
HETATM   12  N   UNL     1      42.760 -18.252   2.305  1.00  0.00    -0.349 N 
HETATM   13  H   UNL     1      41.980 -18.594   2.857  1.00  0.00     0.163 HD
HETATM   14  O   UNL     1      43.303 -16.796   0.604  1.00  0.00    -0.262 OA
BRANCH  12  15
HETATM   15  C   UNL     1      44.106 -18.444   2.778  1.00  0.00     0.163 C 
BRANCH  15  16
HETATM   16  C   UNL     1      44.347 -19.855   3.240  1.00  0.00    -0.019 A 
HETATM   17  C   UNL     1      44.854 -20.162   4.512  1.00  0.00     0.042 A 
HETATM   18 CL   UNL     1      45.180 -18.934   5.682  1.00  0.00    -0.084 Cl
HETATM   19  C   UNL     1      45.110 -21.489   4.874  1.00  0.00     0.024 A 
HETATM   20  C   UNL     1      44.849 -22.525   3.978  1.00  0.00     0.002 A 
HETATM   21  C   UNL     1      44.312 -22.238   2.727  1.00  0.00     0.001 A 
HETATM   22  C   UNL     1      44.058 -20.916   2.361  1.00  0.00     0.010 A 
ENDBRANCH  15  16
ENDBRANCH  12  15
ENDBRANCH   8  11
ENDBRANCH   5   7
BRANCH   4  23
HETATM   23  C   UNL     1      42.250 -14.555   3.408  1.00  0.00     0.732 A 
HETATM   24  N   UNL     1      41.698 -15.574   3.984  1.00  0.00    -0.067 NA
HETATM   25  C   UNL     1      42.230 -15.964   5.191  1.00  0.00     0.065 A 
HETATM   26  C   UNL     1      43.286 -15.372   5.779  1.00  0.00     0.036 A 
HETATM   27  C   UNL     1      41.562 -17.165   5.822  1.00  0.00     0.060 C 
HETATM   28  C   UNL     1      43.897 -15.817   7.075  1.00  0.00     0.046 C 
HETATM   29  C   UNL     1      43.893 -14.203   5.097  1.00  0.00     0.268 A 
HETATM   30  C   UNL     1      43.050 -16.846   7.826  1.00  0.00     0.005 C 
HETATM   31  C   UNL     1      42.423 -17.859   6.878  1.00  0.00     0.006 C 
HETATM   32  O   UNL     1      44.856 -13.603   5.561  1.00  0.00    -0.267 OA
HETATM   33  N   UNL     1      43.308 -13.856   3.921  1.00  0.00    -0.152 N 
HETATM   34  H   UNL     1      43.690 -13.085   3.383  1.00  0.00     0.188 HD
ENDBRANCH   4  23
TORSDOF 5
ENDMDL
MODEL 4
REMARK VINA RESULT:      -9.0      2.981      5.934
REMARK  5 active torsions:
REMARK  status: ('A' for Active; 'I' for Inactive)
REMARK    1  A    between atoms: N_4  and  C_5 
REMARK    2  A    between atoms: C_16  and  N_17 
REMARK       I    between atoms: N_17  and  C_18 
REMARK    3  A    between atoms: C_18  and  C_19 
REMARK       I    between atoms: C_19  and  N_20 
REMARK    4  A    between atoms: N_20  and  C_21 
REMARK    5  A    between atoms: C_21  and  C_22 
ROOT
HETATM    1  C   UNL     1      40.289 -11.284   2.637  1.00  0.00     0.072 C 
HETATM    2  C   UNL     1      40.628 -12.015   3.883  1.00  0.00     0.055 C 
HETATM    3  N   UNL     1      41.202 -11.379   4.907  1.00  0.00    -0.156 NA
HETATM    4  N   UNL     1      41.371 -12.350   5.865  1.00  0.00    -0.045 N 
HETATM    5  C   UNL     1      40.759 -13.546   5.488  1.00  0.00     0.152 C 
HETATM    6  C   UNL     1      40.395 -13.376   4.169  1.00  0.00     0.079 C 
ENDROOT
BRANCH   5   7
HETATM    7  N   UNL     1      40.613 -14.701   6.238  1.00  0.00    -0.303 N 
HETATM    8  C   UNL     1      41.281 -15.899   6.046  1.00  0.00     0.315 C 
HETATM    9  O   UNL     1      40.968 -16.917   6.663  1.00  0.00    -0.262 OA
HETATM   10  H   UNL     1      40.127 -14.649   7.124  1.00  0.00     0.171 HD
BRANCH   8  11
HETATM   11  C   UNL     1      42.549 -15.942   5.163  1.00  0.00     0.310 C 
HETATM   12  N   UNL     1      42.437 -16.763   4.064  1.00  0.00    -0.349 N 
HETATM   13  H   UNL     1      41.579 -17.299   3.973  1.00  0.00     0.163 HD
HETATM   14  O   UNL     1      43.560 -15.328   5.473  1.00  0.00    -0.262 OA
BRANCH  12  15
HETATM   15  C   UNL     1      43.572 -17.091   3.243  1.00  0.00     0.163 C 
BRANCH  15  16
HETATM   16  C   UNL     1      43.801 -18.576   3.161  1.00  0.00    -0.019 A 
HETATM   17  C   UNL     1      44.461 -19.298   4.168  1.00  0.00     0.042 A 
HETATM   18 CL   UNL     1      45.006 -18.543   5.622  1.00  0.00    -0.084 Cl
HETATM   19  C   UNL     1      44.695 -20.669   4.020  1.00  0.00     0.024 A 
HETATM   20  C   UNL     1      44.263 -21.338   2.875  1.00  0.00     0.002 A 
HETATM   21  C   UNL     1      43.575 -20.641   1.886  1.00  0.00     0.001 A 
HETATM   22  C   UNL     1      43.342 -19.273   2.029  1.00  0.00     0.010 A 
ENDBRANCH  15  16
ENDBRANCH  12  15
ENDBRANCH   8  11
ENDBRANCH   5   7
BRANCH   4  23
HETATM   23  C   UNL     1      42.229 -12.075   6.952  1.00  0.00     0.732 A 
HETATM   24  N   UNL     1      41.999 -11.169   7.847  1.00  0.00    -0.067 NA
HETATM   25  C   UNL     1      42.916 -11.061   8.867  1.00  0.00     0.065 A 
HETATM   26  C   UNL     1      44.000 -11.850   8.997  1.00  0.00     0.036 A 
HETATM   27  C   UNL     1      42.603  -9.997   9.894  1.00  0.00     0.060 C 
HETATM   28  C   UNL     1      44.980 -11.766  10.128  1.00  0.00     0.046 C 
HETATM   29  C   UNL     1      44.238 -12.877   7.953  1.00  0.00     0.268 A 
HETATM   30  C   UNL     1      44.804 -10.520  10.997  1.00  0.00     0.005 C 
HETATM   31  C   UNL     1      43.333 -10.196  11.223  1.00  0.00     0.006 C 
HETATM   32  O   UNL     1      45.199 -13.636   7.990  1.00  0.00    -0.267 OA
HETATM   33  N   UNL     1      43.309 -12.915   6.962  1.00  0.00    -0.152 N 
HETATM   34  H   UNL     1      43.389 -13.614   6.231  1.00  0.00     0.188 HD
ENDBRANCH   4  23
TORSDOF 5
ENDMDL
MODEL 5
REMARK VINA RESULT:      -8.9      3.097      5.417
REMARK  5 active torsions:
REMARK  status: ('A' for Active; 'I' for Inactive)
REMARK    1  A    between atoms: N_4  and  C_5 
REMARK    2  A    between atoms: C_16  and  N_17 
REMARK       I    between atoms: N_17  and  C_18 
REMARK    3  A    between atoms: C_18  and  C_19 
REMARK       I    between atoms: C_19  and  N_20 
REMARK    4  A    between atoms: N_20  and  C_21 
REMARK    5  A    between atoms: C_21  and  C_22 
ROOT
HETATM    1  C   UNL     1      43.956 -18.564   1.954  1.00  0.00     0.072 C 
HETATM    2  C   UNL     1      43.323 -17.239   1.740  1.00  0.00     0.055 C 
HETATM    3  N   UNL     1      42.281 -17.112   0.914  1.00  0.00    -0.156 NA
HETATM    4  N   UNL     1      41.968 -15.774   0.960  1.00  0.00    -0.045 N 
HETATM    5  C   UNL     1      42.718 -15.110   1.931  1.00  0.00     0.152 C 
HETATM    6  C   UNL     1      43.675 -16.013   2.342  1.00  0.00     0.079 C 
ENDROOT
BRANCH   5   7
HETATM    7  N   UNL     1      42.597 -13.794   2.347  1.00  0.00    -0.303 N 
HETATM    8  C   UNL     1      41.862 -13.335   3.427  1.00  0.00     0.315 C 
HETATM    9  O   UNL     1      41.686 -12.133   3.623  1.00  0.00    -0.262 OA
HETATM   10  H   UNL     1      43.232 -13.103   1.971  1.00  0.00     0.171 HD
BRANCH   8  11
HETATM   11  C   UNL     1      41.379 -14.328   4.510  1.00  0.00     0.310 C 
HETATM   12  N   UNL     1      42.327 -14.619   5.464  1.00  0.00    -0.349 N 
HETATM   13  H   UNL     1      43.250 -14.216   5.337  1.00  0.00     0.163 HD
HETATM   14  O   UNL     1      40.264 -14.829   4.460  1.00  0.00    -0.262 OA
BRANCH  12  15
HETATM   15  C   UNL     1      42.135 -15.670   6.429  1.00  0.00     0.163 C 
BRANCH  15  16
HETATM   16  C   UNL     1      43.053 -16.837   6.183  1.00  0.00    -0.019 A 
HETATM   17  C   UNL     1      42.657 -17.975   5.463  1.00  0.00     0.042 A 
HETATM   18 CL   UNL     1      41.094 -18.096   4.739  1.00  0.00    -0.084 Cl
HETATM   19  C   UNL     1      43.531 -19.056   5.307  1.00  0.00     0.024 A 
HETATM   20  C   UNL     1      44.813 -19.008   5.855  1.00  0.00     0.002 A 
HETATM   21  C   UNL     1      45.231 -17.871   6.540  1.00  0.00     0.001 A 
HETATM   22  C   UNL     1      44.361 -16.792   6.699  1.00  0.00     0.010 A 
ENDBRANCH  15  16
ENDBRANCH  12  15
ENDBRANCH   8  11
ENDBRANCH   5   7
BRANCH   4  23
HETATM   23  C   UNL     1      41.109 -15.254  -0.034  1.00  0.00     0.732 A 
HETATM   24  N   UNL     1      40.080 -14.510   0.214  1.00  0.00    -0.067 NA
HETATM   25  C   UNL     1      39.376 -14.049  -0.874  1.00  0.00     0.065 A 
HETATM   26  C   UNL     1      39.708 -14.301  -2.154  1.00  0.00     0.036 A 
HETATM   27  C   UNL     1      38.188 -13.175  -0.538  1.00  0.00     0.060 C 
HETATM   28  C   UNL     1      38.969 -13.768  -3.345  1.00  0.00     0.046 C 
HETATM   29  C   UNL     1      40.890 -15.161  -2.405  1.00  0.00     0.268 A 
HETATM   30  C   UNL     1      37.627 -13.123  -2.991  1.00  0.00     0.005 C 
HETATM   31  C   UNL     1      37.716 -12.309  -1.708  1.00  0.00     0.006 C 
HETATM   32  O   UNL     1      41.264 -15.444  -3.537  1.00  0.00    -0.267 OA
HETATM   33  N   UNL     1      41.528 -15.602  -1.289  1.00  0.00    -0.152 N 
HETATM   34  H   UNL     1      42.364 -16.169  -1.384  1.00  0.00     0.188 HD
ENDBRANCH   4  23
TORSDOF 5
ENDMDL
MODEL 6
REMARK VINA RESULT:      -8.8      3.113      4.630
REMARK  5 active torsions:
REMARK  status: ('A' for Active; 'I' for Inactive)
REMARK    1  A    between atoms: N_4  and  C_5 
REMARK    2  A    between atoms: C_16  and  N_17 
REMARK       I    between atoms: N_17  and  C_18 
REMARK    3  A    between atoms: C_18  and  C_19 
REMARK       I    between atoms: C_19  and  N_20 
REMARK    4  A    between atoms: N_20  and  C_21 
REMARK    5  A    between atoms: C_21  and  C_22 
ROOT
HETATM    1  C   UNL     1      42.984 -17.457   7.795  1.00  0.00     0.072 C 
HETATM    2  C   UNL     1      42.225 -16.742   6.739  1.00  0.00     0.055 C 
HETATM    3  N   UNL     1      42.261 -15.409   6.664  1.00  0.00    -0.156 NA
HETATM    4  N   UNL     1      41.456 -15.103   5.593  1.00  0.00    -0.045 N 
HETATM    5  C   UNL     1      41.052 -16.254   4.917  1.00  0.00     0.152 C 
HETATM    6  C   UNL     1      41.433 -17.308   5.720  1.00  0.00     0.079 C 
ENDROOT
BRANCH   5   7
HETATM    7  N   UNL     1      40.341 -16.340   3.731  1.00  0.00    -0.303 N 
HETATM    8  C   UNL     1      40.868 -16.328   2.451  1.00  0.00     0.315 C 
HETATM    9  O   UNL     1      40.146 -16.247   1.458  1.00  0.00    -0.262 OA
HETATM   10  H   UNL     1      39.370 -16.623   3.763  1.00  0.00     0.171 HD
BRANCH   8  11
HETATM   11  C   UNL     1      42.379 -16.581   2.236  1.00  0.00     0.310 C 
HETATM   12  N   UNL     1      42.713 -17.912   2.137  1.00  0.00    -0.349 N 
HETATM   13  H   UNL     1      41.968 -18.588   2.275  1.00  0.00     0.163 HD
HETATM   14  O   UNL     1      43.180 -15.658   2.212  1.00  0.00    -0.262 OA
BRANCH  12  15
HETATM   15  C   UNL     1      44.084 -18.352   2.140  1.00  0.00     0.163 C 
BRANCH  15  16
HETATM   16  C   UNL     1      44.224 -19.760   2.654  1.00  0.00    -0.019 A 
HETATM   17  C   UNL     1      44.623 -20.053   3.967  1.00  0.00     0.042 A 
HETATM   18 CL   UNL     1      44.923 -18.808   5.126  1.00  0.00    -0.084 Cl
HETATM   19  C   UNL     1      44.790 -21.379   4.380  1.00  0.00     0.024 A 
HETATM   20  C   UNL     1      44.545 -22.427   3.493  1.00  0.00     0.002 A 
HETATM   21  C   UNL     1      44.114 -22.152   2.199  1.00  0.00     0.001 A 
HETATM   22  C   UNL     1      43.949 -20.831   1.783  1.00  0.00     0.010 A 
ENDBRANCH  15  16
ENDBRANCH  12  15
ENDBRANCH   8  11
ENDBRANCH   5   7
BRANCH   4  23
HETATM   23  C   UNL     1      41.035 -13.764   5.434  1.00  0.00     0.732 A 
HETATM   24  N   UNL     1      40.157 -13.378   4.564  1.00  0.00    -0.067 NA
HETATM   25  C   UNL     1      39.826 -12.043   4.572  1.00  0.00     0.065 A 
HETATM   26  C   UNL     1      40.334 -11.142   5.434  1.00  0.00     0.036 A 
HETATM   27  C   UNL     1      38.790 -11.639   3.547  1.00  0.00     0.060 C 
HETATM   28  C   UNL     1      39.946  -9.694   5.475  1.00  0.00     0.046 C 
HETATM   29  C   UNL     1      41.341 -11.615   6.416  1.00  0.00     0.268 A 
HETATM   30  C   UNL     1      39.116  -9.250   4.269  1.00  0.00     0.005 C 
HETATM   31  C   UNL     1      38.102 -10.311   3.865  1.00  0.00     0.006 C 
HETATM   32  O   UNL     1      41.856 -10.864   7.236  1.00  0.00    -0.267 OA
HETATM   33  N   UNL     1      41.640 -12.938   6.341  1.00  0.00    -0.152 N 
HETATM   34  H   UNL     1      42.297 -13.338   7.002  1.00  0.00     0.188 HD
ENDBRANCH   4  23
TORSDOF 5
ENDMDL
MODEL 7
REMARK VINA RESULT:      -8.6      2.527      3.775
REMARK  5 active torsions:
REMARK  status: ('A' for Active; 'I' for Inactive)
REMARK    1  A    between atoms: N_4  and  C_5 
REMARK    2  A    between atoms: C_16  and  N_17 
REMARK       I    between atoms: N_17  and  C_18 
REMARK    3  A    between atoms: C_18  and  C_19 
REMARK       I    between atoms: C_19  and  N_20 
REMARK    4  A    between atoms: N_20  and  C_21 
REMARK    5  A    between atoms: C_21  and  C_22 
ROOT
HETATM    1  C   UNL     1      44.495 -14.355   6.648  1.00  0.00     0.072 C 
HETATM    2  C   UNL     1      43.483 -14.369   5.563  1.00  0.00     0.055 C 
HETATM    3  N   UNL     1      43.573 -13.514   4.540  1.00  0.00    -0.156 NA
HETATM    4  N   UNL     1      42.488 -13.807   3.750  1.00  0.00    -0.045 N 
HETATM    5  C   UNL     1      41.819 -14.943   4.207  1.00  0.00     0.152 C 
HETATM    6  C   UNL     1      42.373 -15.229   5.436  1.00  0.00     0.079 C 
ENDROOT
BRANCH   5   7
HETATM    7  N   UNL     1      40.762 -15.608   3.606  1.00  0.00    -0.303 N 
HETATM    8  C   UNL     1      40.819 -16.381   2.459  1.00  0.00     0.315 C 
HETATM    9  O   UNL     1      39.799 -16.799   1.913  1.00  0.00    -0.262 OA
HETATM   10  H   UNL     1      39.898 -15.715   4.121  1.00  0.00     0.171 HD
BRANCH   8  11
HETATM   11  C   UNL     1      42.185 -16.874   1.927  1.00  0.00     0.310 C 
HETATM   12  N   UNL     1      42.678 -17.975   2.590  1.00  0.00    -0.349 N 
HETATM   13  H   UNL     1      42.146 -18.312   3.386  1.00  0.00     0.163 HD
HETATM   14  O   UNL     1      42.768 -16.281   1.030  1.00  0.00    -0.262 OA
BRANCH  12  15
HETATM   15  C   UNL     1      44.020 -18.451   2.377  1.00  0.00     0.163 C 
BRANCH  15  16
HETATM   16  C   UNL     1      44.242 -19.807   2.990  1.00  0.00    -0.019 A 
HETATM   17  C   UNL     1      44.621 -19.981   4.330  1.00  0.00     0.042 A 
HETATM   18 CL   UNL     1      44.797 -18.643   5.408  1.00  0.00    -0.084 Cl
HETATM   19  C   UNL     1      44.867 -21.262   4.837  1.00  0.00     0.024 A 
HETATM   20  C   UNL     1      44.723 -22.382   4.019  1.00  0.00     0.002 A 
HETATM   21  C   UNL     1      44.313 -22.226   2.699  1.00  0.00     0.001 A 
HETATM   22  C   UNL     1      44.069 -20.951   2.189  1.00  0.00     0.010 A 
ENDBRANCH  15  16
ENDBRANCH  12  15
ENDBRANCH   8  11
ENDBRANCH   5   7
BRANCH   4  23
HETATM   23  C   UNL     1      42.120 -12.880   2.749  1.00  0.00     0.732 A 
HETATM   24  N   UNL     1      42.375 -13.033   1.490  1.00  0.00    -0.067 NA
HETATM   25  C   UNL     1      41.906 -12.058   0.641  1.00  0.00     0.065 A 
HETATM   26  C   UNL     1      41.188 -10.991   1.039  1.00  0.00     0.036 A 
HETATM   27  C   UNL     1      42.218 -12.283  -0.821  1.00  0.00     0.060 C 
HETATM   28  C   UNL     1      40.637  -9.946   0.115  1.00  0.00     0.046 C 
HETATM   29  C   UNL     1      40.915 -10.841   2.489  1.00  0.00     0.268 A 
HETATM   30  C   UNL     1      41.190 -10.038  -1.309  1.00  0.00     0.005 C 
HETATM   31  C   UNL     1      41.321 -11.484  -1.768  1.00  0.00     0.006 C 
HETATM   32  O   UNL     1      40.271  -9.901   2.940  1.00  0.00    -0.267 OA
HETATM   33  N   UNL     1      41.425 -11.826   3.274  1.00  0.00    -0.152 N 
HETATM   34  H   UNL     1      41.251 -11.806   4.274  1.00  0.00     0.188 HD
ENDBRANCH   4  23
TORSDOF 5
ENDMDL
MODEL 8
REMARK VINA RESULT:      -8.6      2.767      3.728
REMARK  5 active torsions:
REMARK  status: ('A' for Active; 'I' for Inactive)
REMARK    1  A    between atoms: N_4  and  C_5 
REMARK    2  A    between atoms: C_16  and  N_17 
REMARK       I    between atoms: N_17  and  C_18 
REMARK    3  A    between atoms: C_18  and  C_19 
REMARK       I    between atoms: C_19  and  N_20 
REMARK    4  A    between atoms: N_20  and  C_21 
REMARK    5  A    between atoms: C_21  and  C_22 
ROOT
HETATM    1  C   UNL     1      41.574 -12.022   6.154  1.00  0.00     0.072 C 
HETATM    2  C   UNL     1      41.269 -12.804   4.931  1.00  0.00     0.055 C 
HETATM    3  N   UNL     1      41.880 -12.523   3.776  1.00  0.00    -0.156 NA
HETATM    4  N   UNL     1      41.358 -13.427   2.882  1.00  0.00    -0.045 N 
HETATM    5  C   UNL     1      40.543 -14.361   3.522  1.00  0.00     0.152 C 
HETATM    6  C   UNL     1      40.380 -13.892   4.808  1.00  0.00     0.079 C 
ENDROOT
BRANCH   5   7
HETATM    7  N   UNL     1      39.945 -15.485   2.976  1.00  0.00    -0.303 N 
HETATM    8  C   UNL     1      40.573 -16.672   2.639  1.00  0.00     0.315 C 
HETATM    9  O   UNL     1      39.988 -17.555   2.012  1.00  0.00    -0.262 OA
HETATM   10  H   UNL     1      38.935 -15.552   2.981  1.00  0.00     0.171 HD
BRANCH   8  11
HETATM   11  C   UNL     1      41.984 -16.982   3.190  1.00  0.00     0.310 C 
HETATM   12  N   UNL     1      42.899 -17.327   2.221  1.00  0.00    -0.349 N 
HETATM   13  H   UNL     1      42.556 -17.406   1.268  1.00  0.00     0.163 HD
HETATM   14  O   UNL     1      42.216 -16.962   4.390  1.00  0.00    -0.262 OA
BRANCH  12  15
HETATM   15  C   UNL     1      44.200 -17.844   2.554  1.00  0.00     0.163 C 
BRANCH  15  16
HETATM   16  C   UNL     1      44.187 -19.339   2.726  1.00  0.00    -0.019 A 
HETATM   17  C   UNL     1      44.569 -19.969   3.921  1.00  0.00     0.042 A 
HETATM   18 CL   UNL     1      45.024 -19.066   5.321  1.00  0.00    -0.084 Cl
HETATM   19  C   UNL     1      44.589 -21.365   4.012  1.00  0.00     0.024 A 
HETATM   20  C   UNL     1      44.215 -22.147   2.920  1.00  0.00     0.002 A 
HETATM   21  C   UNL     1      43.799 -21.535   1.741  1.00  0.00     0.001 A 
HETATM   22  C   UNL     1      43.780 -20.143   1.646  1.00  0.00     0.010 A 
ENDBRANCH  15  16
ENDBRANCH  12  15
ENDBRANCH   8  11
ENDBRANCH   5   7
BRANCH   4  23
HETATM   23  C   UNL     1      41.566 -13.200   1.503  1.00  0.00     0.732 A 
HETATM   24  N   UNL     1      41.138 -13.984   0.567  1.00  0.00    -0.067 NA
HETATM   25  C   UNL     1      41.387 -13.592  -0.728  1.00  0.00     0.065 A 
HETATM   26  C   UNL     1      42.013 -12.449  -1.066  1.00  0.00     0.036 A 
HETATM   27  C   UNL     1      40.860 -14.531  -1.789  1.00  0.00     0.060 C 
HETATM   28  C   UNL     1      42.251 -11.995  -2.475  1.00  0.00     0.046 C 
HETATM   29  C   UNL     1      42.496 -11.575   0.031  1.00  0.00     0.268 A 
HETATM   30  C   UNL     1      41.963 -13.074  -3.520  1.00  0.00     0.005 C 
HETATM   31  C   UNL     1      40.721 -13.881  -3.167  1.00  0.00     0.006 C 
HETATM   32  O   UNL     1      43.077 -10.517  -0.184  1.00  0.00    -0.267 OA
HETATM   33  N   UNL     1      42.239 -12.029   1.285  1.00  0.00    -0.152 N 
HETATM   34  H   UNL     1      42.512 -11.468   2.085  1.00  0.00     0.188 HD
ENDBRANCH   4  23
TORSDOF 5
ENDMDL
MODEL 9
REMARK VINA RESULT:      -8.5      3.901      7.722
REMARK  5 active torsions:
REMARK  status: ('A' for Active; 'I' for Inactive)
REMARK    1  A    between atoms: N_4  and  C_5 
REMARK    2  A    between atoms: C_16  and  N_17 
REMARK       I    between atoms: N_17  and  C_18 
REMARK    3  A    between atoms: C_18  and  C_19 
REMARK       I    between atoms: C_19  and  N_20 
REMARK    4  A    between atoms: N_20  and  C_21 
REMARK    5  A    between atoms: C_21  and  C_22 
ROOT
HETATM    1  C   UNL     1      42.298 -12.829   5.522  1.00  0.00     0.072 C 
HETATM    2  C   UNL     1      42.479 -13.902   4.513  1.00  0.00     0.055 C 
HETATM    3  N   UNL     1      42.589 -15.178   4.894  1.00  0.00    -0.156 NA
HETATM    4  N   UNL     1      42.746 -15.875   3.719  1.00  0.00    -0.045 N 
HETATM    5  C   UNL     1      42.576 -15.044   2.610  1.00  0.00     0.152 C 
HETATM    6  C   UNL     1      42.534 -13.761   3.112  1.00  0.00     0.079 C 
ENDROOT
BRANCH   5   7
HETATM    7  N   UNL     1      42.541 -15.406   1.274  1.00  0.00    -0.303 N 
HETATM    8  C   UNL     1      41.434 -15.846   0.567  1.00  0.00     0.315 C 
HETATM    9  O   UNL     1      41.535 -16.296  -0.574  1.00  0.00    -0.262 OA
HETATM   10  H   UNL     1      43.326 -15.166   0.682  1.00  0.00     0.171 HD
BRANCH   8  11
HETATM   11  C   UNL     1      40.015 -15.628   1.142  1.00  0.00     0.310 C 
HETATM   12  N   UNL     1      39.319 -14.605   0.540  1.00  0.00    -0.349 N 
HETATM   13  H   UNL     1      39.812 -14.061  -0.163  1.00  0.00     0.163 HD
HETATM   14  O   UNL     1      39.602 -16.292   2.083  1.00  0.00    -0.262 OA
BRANCH  12  15
HETATM   15  C   UNL     1      38.072 -14.120   1.069  1.00  0.00     0.163 C 
BRANCH  15  16
HETATM   16  C   UNL     1      38.227 -12.789   1.753  1.00  0.00    -0.019 A 
HETATM   17  C   UNL     1      37.444 -11.671   1.425  1.00  0.00     0.042 A 
HETATM   18 CL   UNL     1      36.185 -11.756   0.246  1.00  0.00    -0.084 Cl
HETATM   19  C   UNL     1      37.663 -10.441   2.054  1.00  0.00     0.024 A 
HETATM   20  C   UNL     1      38.654 -10.316   3.027  1.00  0.00     0.002 A 
HETATM   21  C   UNL     1      39.413 -11.425   3.389  1.00  0.00     0.001 A 
HETATM   22  C   UNL     1      39.198 -12.652   2.761  1.00  0.00     0.010 A 
ENDBRANCH  15  16
ENDBRANCH  12  15
ENDBRANCH   8  11
ENDBRANCH   5   7
BRANCH   4  23
HETATM   23  C   UNL     1      43.197 -17.211   3.789  1.00  0.00     0.732 A 
HETATM   24  N   UNL     1      43.037 -18.081   2.844  1.00  0.00    -0.067 NA
HETATM   25  C   UNL     1      43.578 -19.328   3.055  1.00  0.00     0.065 A 
HETATM   26  C   UNL     1      44.273 -19.676   4.154  1.00  0.00     0.036 A 
HETATM   27  C   UNL     1      43.377 -20.309   1.921  1.00  0.00     0.060 C 
HETATM   28  C   UNL     1      44.901 -21.020   4.372  1.00  0.00     0.046 C 
HETATM   29  C   UNL     1      44.435 -18.658   5.221  1.00  0.00     0.268 A 
HETATM   30  C   UNL     1      44.458 -22.072   3.354  1.00  0.00     0.005 C 
HETATM   31  C   UNL     1      44.350 -21.488   1.953  1.00  0.00     0.006 C 
HETATM   32  O   UNL     1      45.051 -18.888   6.256  1.00  0.00    -0.267 OA
HETATM   33  N   UNL     1      43.858 -17.456   4.961  1.00  0.00    -0.152 N 
HETATM   34  H   UNL     1      43.956 -16.701   5.632  1.00  0.00     0.188 HD
ENDBRANCH   4  23
TORSDOF 5
ENDMDL
MODEL 10
REMARK VINA RESULT:      -8.5      2.697      4.106
REMARK  5 active torsions:
REMARK  status: ('A' for Active; 'I' for Inactive)
REMARK    1  A    between atoms: N_4  and  C_5 
REMARK    2  A    between atoms: C_16  and  N_17 
REMARK       I    between atoms: N_17  and  C_18 
REMARK    3  A    between atoms: C_18  and  C_19 
REMARK       I    between atoms: C_19  and  N_20 
REMARK    4  A    between atoms: N_20  and  C_21 
REMARK    5  A    between atoms: C_21  and  C_22 
ROOT
HETATM    1  C   UNL     1      44.424 -14.525   6.913  1.00  0.00     0.072 C 
HETATM    2  C   UNL     1      43.378 -14.497   5.861  1.00  0.00     0.055 C 
HETATM    3  N   UNL     1      43.372 -13.532   4.937  1.00  0.00    -0.156 NA
HETATM    4  N   UNL     1      42.282 -13.817   4.149  1.00  0.00    -0.045 N 
HETATM    5  C   UNL     1      41.712 -15.042   4.496  1.00  0.00     0.152 C 
HETATM    6  C   UNL     1      42.327 -15.418   5.671  1.00  0.00     0.079 C 
ENDROOT
BRANCH   5   7
HETATM    7  N   UNL     1      40.683 -15.714   3.856  1.00  0.00    -0.303 N 
HETATM    8  C   UNL     1      40.769 -16.405   2.659  1.00  0.00     0.315 C 
HETATM    9  O   UNL     1      39.766 -16.834   2.090  1.00  0.00    -0.262 OA
HETATM   10  H   UNL     1      39.828 -15.896   4.365  1.00  0.00     0.171 HD
BRANCH   8  11
HETATM   11  C   UNL     1      42.153 -16.797   2.092  1.00  0.00     0.310 C 
HETATM   12  N   UNL     1      42.517 -18.098   2.355  1.00  0.00    -0.349 N 
HETATM   13  H   UNL     1      41.889 -18.645   2.936  1.00  0.00     0.163 HD
HETATM   14  O   UNL     1      42.855 -15.981   1.511  1.00  0.00    -0.262 OA
BRANCH  12  15
HETATM   15  C   UNL     1      43.845 -18.583   2.088  1.00  0.00     0.163 C 
BRANCH  15  16
HETATM   16  C   UNL     1      44.147 -19.849   2.843  1.00  0.00    -0.019 A 
HETATM   17  C   UNL     1      44.506 -19.856   4.200  1.00  0.00     0.042 A 
HETATM   18 CL   UNL     1      44.565 -18.404   5.134  1.00  0.00    -0.084 Cl
HETATM   19  C   UNL     1      44.828 -21.056   4.843  1.00  0.00     0.024 A 
HETATM   20  C   UNL     1      44.782 -22.262   4.146  1.00  0.00     0.002 A 
HETATM   21  C   UNL     1      44.392 -22.274   2.810  1.00  0.00     0.001 A 
HETATM   22  C   UNL     1      44.073 -21.079   2.165  1.00  0.00     0.010 A 
ENDBRANCH  15  16
ENDBRANCH  12  15
ENDBRANCH   8  11
ENDBRANCH   5   7
BRANCH   4  23
HETATM   23  C   UNL     1      41.816 -12.818   3.266  1.00  0.00     0.732 A 
HETATM   24  N   UNL     1      41.037 -11.846   3.618  1.00  0.00    -0.067 NA
HETATM   25  C   UNL     1      40.713 -10.931   2.644  1.00  0.00     0.065 A 
HETATM   26  C   UNL     1      41.174 -10.976   1.380  1.00  0.00     0.036 A 
HETATM   27  C   UNL     1      39.810  -9.808   3.101  1.00  0.00     0.060 C 
HETATM   28  C   UNL     1      40.858  -9.959   0.324  1.00  0.00     0.046 C 
HETATM   29  C   UNL     1      42.061 -12.105   1.006  1.00  0.00     0.268 A 
HETATM   30  C   UNL     1      39.738  -8.996   0.720  1.00  0.00     0.005 C 
HETATM   31  C   UNL     1      39.841  -8.585   2.182  1.00  0.00     0.006 C 
HETATM   32  O   UNL     1      42.526 -12.226  -0.122  1.00  0.00    -0.267 OA
HETATM   33  N   UNL     1      42.324 -12.985   2.007  1.00  0.00    -0.152 N 
HETATM   34  H   UNL     1      42.949 -13.765   1.834  1.00  0.00     0.188 HD
ENDBRANCH   4  23
TORSDOF 5
ENDMDL
