MODEL 1
REMARK VINA RESULT:      -7.6      0.000      0.000
REMARK  10 active torsions:
REMARK  status: ('A' for Active; 'I' for Inactive)
REMARK    1  A    between atoms: C_4  and  C_5 
REMARK    2  A    between atoms: C_5  and  O_6 
REMARK    3  A    between atoms: O_6  and  C_7 
REMARK    4  A    between atoms: C_10  and  N_11 
REMARK       I    between atoms: N_11  and  C_12 
REMARK       I    between atoms: C_12  and  N_13 
REMARK    5  A    between atoms: N_13  and  C_14 
REMARK    6  A    between atoms: C_14  and  C_15 
REMARK    7  A    between atoms: C_15  and  C_16 
REMARK    8  A    between atoms: C_16  and  C_17 
REMARK    9  A    between atoms: C_17  and  N_18 
REMARK   10  A    between atoms: C_25  and  C_26 
REMARK       I    between atoms: C_26  and  N_27 
ROOT
HETATM    1  C   UNL     1      43.100 -16.068   6.343  1.00  0.00     0.191 C 
HETATM    2  N   UNL     1      44.330 -15.578   6.443  1.00  0.00    -0.184 NA
HETATM    3  S   UNL     1      44.229 -13.936   6.294  1.00  0.00     0.033 SA
HETATM    4  C   UNL     1      42.517 -13.868   6.242  1.00  0.00     0.117 C 
HETATM    5  C   UNL     1      42.010 -15.156   6.131  1.00  0.00     0.120 C 
ENDROOT
BRANCH   4   6
HETATM    6  N   UNL     1      42.039 -12.571   6.272  1.00  0.00    -0.301 N 
HETATM    7  C   UNL     1      41.439 -11.894   5.250  1.00  0.00     0.321 C 
HETATM    8  N   UNL     1      41.533 -12.403   3.996  1.00  0.00    -0.343 N 
HETATM    9  O   UNL     1      40.742 -10.912   5.516  1.00  0.00    -0.247 OA
HETATM   10  H   UNL     1      42.493 -12.673   3.791  1.00  0.00     0.164 HD
HETATM   11  H   UNL     1      41.679 -12.263   7.167  1.00  0.00     0.171 HD
BRANCH   8  12
HETATM   12  C   UNL     1      40.859 -11.830   2.852  1.00  0.00     0.124 C 
BRANCH  12  13
HETATM   13  C   UNL     1      39.431 -12.355   2.663  1.00  0.00     0.021 C 
BRANCH  13  14
HETATM   14  C   UNL     1      39.185 -13.222   1.421  1.00  0.00     0.029 C 
BRANCH  14  15
HETATM   15  C   UNL     1      40.463 -13.864   0.889  1.00  0.00     0.235 C 
BRANCH  15  16
HETATM   16  N   UNL     1      40.288 -15.353   0.726  1.00  0.00    -0.071 N 
HETATM   17  H   UNL     1      39.576 -15.508   0.001  1.00  0.00     0.279 HD
HETATM   18  C   UNL     1      39.798 -16.034   1.994  1.00  0.00     0.235 C 
HETATM   19  C   UNL     1      40.906 -16.995   2.375  1.00  0.00     0.029 C 
HETATM   20  C   UNL     1      41.486 -17.401   1.037  1.00  0.00     0.029 C 
HETATM   21  C   UNL     1      41.550 -16.083   0.293  1.00  0.00     0.235 C 
ENDBRANCH  15  16
ENDBRANCH  14  15
ENDBRANCH  13  14
ENDBRANCH  12  13
ENDBRANCH   8  12
ENDBRANCH   4   6
BRANCH   5  22
HETATM   22  C   UNL     1      40.637 -15.518   5.824  1.00  0.00     0.256 C 
HETATM   23  N   UNL     1      40.198 -16.728   6.269  1.00  0.00    -0.366 N 
HETATM   24  H   UNL     1      40.781 -17.363   6.802  1.00  0.00     0.159 HD
HETATM   25  H   UNL     1      39.252 -17.012   6.049  1.00  0.00     0.159 HD
HETATM   26  O   UNL     1      39.876 -14.795   5.186  1.00  0.00    -0.268 OA
ENDBRANCH   5  22
BRANCH   1  27
HETATM   27  O   UNL     1      42.963 -17.415   6.380  1.00  0.00    -0.328 OA
BRANCH  27  28
HETATM   28  C   UNL     1      44.223 -18.097   6.373  1.00  0.00     0.222 C 
BRANCH  28  29
HETATM   29  C   UNL     1      44.234 -19.026   5.194  1.00  0.00     0.043 A 
HETATM   30  C   UNL     1      44.132 -18.547   3.889  1.00  0.00     0.129 A 
HETATM   31  C   UNL     1      44.145 -19.407   2.794  1.00  0.00     0.062 A 
HETATM   32  F   UNL     1      44.024 -17.229   3.670  1.00  0.00    -0.205 F 
HETATM   33  C   UNL     1      44.262 -20.779   3.006  1.00  0.00     0.016 A 
HETATM   34  C   UNL     1      44.371 -21.286   4.297  1.00  0.00     0.062 A 
HETATM   35 BR   UNL     1      44.276 -21.959   1.530  1.00  0.00    -0.051 Br
HETATM   36  C   UNL     1      44.360 -20.406   5.375  1.00  0.00     0.129 A 
HETATM   37  F   UNL     1      44.472 -20.906   6.615  1.00  0.00    -0.205 F 
ENDBRANCH  28  29
ENDBRANCH  27  28
ENDBRANCH   1  27
TORSDOF 10
ENDMDL
MODEL 2
REMARK VINA RESULT:      -7.6      2.884      5.370
REMARK  10 active torsions:
REMARK  status: ('A' for Active; 'I' for Inactive)
REMARK    1  A    between atoms: C_4  and  C_5 
REMARK    2  A    between atoms: C_5  and  O_6 
REMARK    3  A    between atoms: O_6  and  C_7 
REMARK    4  A    between atoms: C_10  and  N_11 
REMARK       I    between atoms: N_11  and  C_12 
REMARK       I    between atoms: C_12  and  N_13 
REMARK    5  A    between atoms: N_13  and  C_14 
REMARK    6  A    between atoms: C_14  and  C_15 
REMARK    7  A    between atoms: C_15  and  C_16 
REMARK    8  A    between atoms: C_16  and  C_17 
REMARK    9  A    between atoms: C_17  and  N_18 
REMARK   10  A    between atoms: C_25  and  C_26 
REMARK       I    between atoms: C_26  and  N_27 
ROOT
HETATM    1  C   UNL     1      43.096 -16.359   7.175  1.00  0.00     0.191 C 
HETATM    2  N   UNL     1      44.134 -15.742   7.728  1.00  0.00    -0.184 NA
HETATM    3  S   UNL     1      44.302 -14.278   6.981  1.00  0.00     0.033 SA
HETATM    4  C   UNL     1      42.892 -14.409   6.015  1.00  0.00     0.117 C 
HETATM    5  C   UNL     1      42.385 -15.698   6.116  1.00  0.00     0.120 C 
ENDROOT
BRANCH   4   6
HETATM    6  N   UNL     1      42.611 -13.242   5.330  1.00  0.00    -0.301 N 
HETATM    7  C   UNL     1      41.578 -12.380   5.567  1.00  0.00     0.321 C 
HETATM    8  N   UNL     1      40.561 -12.797   6.361  1.00  0.00    -0.343 N 
HETATM    9  O   UNL     1      41.660 -11.224   5.147  1.00  0.00    -0.247 OA
HETATM   10  H   UNL     1      40.253 -13.729   6.090  1.00  0.00     0.164 HD
HETATM   11  H   UNL     1      43.417 -12.745   4.970  1.00  0.00     0.171 HD
BRANCH   8  12
HETATM   12  C   UNL     1      39.464 -11.943   6.763  1.00  0.00     0.124 C 
BRANCH  12  13
HETATM   13  C   UNL     1      39.862 -10.895   7.808  1.00  0.00     0.021 C 
BRANCH  13  14
HETATM   14  C   UNL     1      39.799 -11.340   9.275  1.00  0.00     0.029 C 
BRANCH  14  15
HETATM   15  C   UNL     1      40.710 -10.514  10.180  1.00  0.00     0.235 C 
BRANCH  15  16
HETATM   16  N   UNL     1      41.940 -11.299  10.563  1.00  0.00    -0.071 N 
HETATM   17  H   UNL     1      41.765 -12.287  10.340  1.00  0.00     0.279 HD
HETATM   18  C   UNL     1      42.252 -11.221  12.049  1.00  0.00     0.235 C 
HETATM   19  C   UNL     1      43.610 -10.552  12.129  1.00  0.00     0.029 C 
HETATM   20  C   UNL     1      44.297 -11.013  10.861  1.00  0.00     0.029 C 
HETATM   21  C   UNL     1      43.201 -10.877   9.825  1.00  0.00     0.235 C 
ENDBRANCH  15  16
ENDBRANCH  14  15
ENDBRANCH  13  14
ENDBRANCH  12  13
ENDBRANCH   8  12
ENDBRANCH   4   6
BRANCH   5  22
HETATM   22  C   UNL     1      41.349 -16.284   5.283  1.00  0.00     0.256 C 
HETATM   23  N   UNL     1      41.387 -17.633   5.098  1.00  0.00    -0.366 N 
HETATM   24  H   UNL     1      42.091 -18.226   5.522  1.00  0.00     0.159 HD
HETATM   25  H   UNL     1      40.689 -18.061   4.504  1.00  0.00     0.159 HD
HETATM   26  O   UNL     1      40.465 -15.624   4.743  1.00  0.00    -0.268 OA
ENDBRANCH   5  22
BRANCH   1  27
HETATM   27  O   UNL     1      42.818 -17.613   7.606  1.00  0.00    -0.328 OA
BRANCH  27  28
HETATM   28  C   UNL     1      43.998 -18.364   7.916  1.00  0.00     0.222 C 
BRANCH  28  29
HETATM   29  C   UNL     1      44.191 -19.382   6.830  1.00  0.00     0.043 A 
HETATM   30  C   UNL     1      44.744 -19.036   5.599  1.00  0.00     0.129 A 
HETATM   31  C   UNL     1      44.927 -19.981   4.592  1.00  0.00     0.062 A 
HETATM   32  F   UNL     1      45.118 -17.771   5.368  1.00  0.00    -0.205 F 
HETATM   33  C   UNL     1      44.549 -21.302   4.819  1.00  0.00     0.016 A 
HETATM   34  C   UNL     1      43.998 -21.678   6.040  1.00  0.00     0.062 A 
HETATM   35 BR   UNL     1      44.786 -22.593   3.460  1.00  0.00    -0.051 Br
HETATM   36  C   UNL     1      43.830 -20.717   7.033  1.00  0.00     0.129 A 
HETATM   37  F   UNL     1      43.305 -21.092   8.209  1.00  0.00    -0.205 F 
ENDBRANCH  28  29
ENDBRANCH  27  28
ENDBRANCH   1  27
TORSDOF 10
ENDMDL
MODEL 3
REMARK VINA RESULT:      -7.4      3.217      4.262
REMARK  10 active torsions:
REMARK  status: ('A' for Active; 'I' for Inactive)
REMARK    1  A    between atoms: C_4  and  C_5 
REMARK    2  A    between atoms: C_5  and  O_6 
REMARK    3  A    between atoms: O_6  and  C_7 
REMARK    4  A    between atoms: C_10  and  N_11 
REMARK       I    between atoms: N_11  and  C_12 
REMARK       I    between atoms: C_12  and  N_13 
REMARK    5  A    between atoms: N_13  and  C_14 
REMARK    6  A    between atoms: C_14  and  C_15 
REMARK    7  A    between atoms: C_15  and  C_16 
REMARK    8  A    between atoms: C_16  and  C_17 
REMARK    9  A    between atoms: C_17  and  N_18 
REMARK   10  A    between atoms: C_25  and  C_26 
REMARK       I    between atoms: C_26  and  N_27 
ROOT
HETATM    1  C   UNL     1      41.461 -14.626   3.641  1.00  0.00     0.191 C 
HETATM    2  N   UNL     1      41.695 -13.575   4.419  1.00  0.00    -0.184 NA
HETATM    3  S   UNL     1      41.219 -12.225   3.595  1.00  0.00     0.033 SA
HETATM    4  C   UNL     1      40.562 -13.061   2.250  1.00  0.00     0.117 C 
HETATM    5  C   UNL     1      40.897 -14.406   2.338  1.00  0.00     0.120 C 
ENDROOT
BRANCH   4   6
HETATM    6  N   UNL     1      39.902 -12.218   1.376  1.00  0.00    -0.301 N 
HETATM    7  C   UNL     1      40.321 -11.832   0.135  1.00  0.00     0.321 C 
HETATM    8  N   UNL     1      41.614 -12.057  -0.207  1.00  0.00    -0.343 N 
HETATM    9  O   UNL     1      39.490 -11.398  -0.664  1.00  0.00    -0.247 OA
HETATM   10  H   UNL     1      42.240 -11.760   0.539  1.00  0.00     0.164 HD
HETATM   11  H   UNL     1      38.891 -12.257   1.417  1.00  0.00     0.171 HD
BRANCH   8  12
HETATM   12  C   UNL     1      42.148 -11.782  -1.524  1.00  0.00     0.124 C 
BRANCH  12  13
HETATM   13  C   UNL     1      42.525 -13.047  -2.302  1.00  0.00     0.021 C 
BRANCH  13  14
HETATM   14  C   UNL     1      41.476 -13.577  -3.288  1.00  0.00     0.029 C 
BRANCH  14  15
HETATM   15  C   UNL     1      41.319 -15.094  -3.222  1.00  0.00     0.235 C 
BRANCH  15  16
HETATM   16  N   UNL     1      39.915 -15.471  -2.821  1.00  0.00    -0.071 N 
HETATM   17  H   UNL     1      39.975 -16.056  -1.979  1.00  0.00     0.279 HD
HETATM   18  C   UNL     1      39.194 -16.284  -3.885  1.00  0.00     0.235 C 
HETATM   19  C   UNL     1      38.011 -15.430  -4.295  1.00  0.00     0.029 C 
HETATM   20  C   UNL     1      37.662 -14.690  -3.021  1.00  0.00     0.029 C 
HETATM   21  C   UNL     1      39.023 -14.284  -2.494  1.00  0.00     0.235 C 
ENDBRANCH  15  16
ENDBRANCH  14  15
ENDBRANCH  13  14
ENDBRANCH  12  13
ENDBRANCH   8  12
ENDBRANCH   4   6
BRANCH   5  22
HETATM   22  C   UNL     1      40.738 -15.403   1.294  1.00  0.00     0.256 C 
HETATM   23  N   UNL     1      40.195 -16.600   1.653  1.00  0.00    -0.366 N 
HETATM   24  H   UNL     1      39.896 -16.806   2.599  1.00  0.00     0.159 HD
HETATM   25  H   UNL     1      40.095 -17.318   0.947  1.00  0.00     0.159 HD
HETATM   26  O   UNL     1      41.076 -15.217   0.128  1.00  0.00    -0.268 OA
ENDBRANCH   5  22
BRANCH   1  27
HETATM   27  O   UNL     1      41.837 -15.841   4.108  1.00  0.00    -0.328 OA
BRANCH  27  28
HETATM   28  C   UNL     1      43.256 -16.038   4.050  1.00  0.00     0.222 C 
BRANCH  28  29
HETATM   29  C   UNL     1      43.504 -17.425   3.532  1.00  0.00     0.043 A 
HETATM   30  C   UNL     1      43.700 -17.669   2.175  1.00  0.00     0.129 A 
HETATM   31  C   UNL     1      43.933 -18.955   1.692  1.00  0.00     0.062 A 
HETATM   32  F   UNL     1      43.670 -16.652   1.303  1.00  0.00    -0.205 F 
HETATM   33  C   UNL     1      43.973 -20.022   2.587  1.00  0.00     0.016 A 
HETATM   34  C   UNL     1      43.786 -19.807   3.949  1.00  0.00     0.062 A 
HETATM   35 BR   UNL     1      44.284 -21.772   1.948  1.00  0.00    -0.051 Br
HETATM   36  C   UNL     1      43.558 -18.513   4.407  1.00  0.00     0.129 A 
HETATM   37  F   UNL     1      43.386 -18.317   5.723  1.00  0.00    -0.205 F 
ENDBRANCH  28  29
ENDBRANCH  27  28
ENDBRANCH   1  27
TORSDOF 10
ENDMDL
MODEL 4
REMARK VINA RESULT:      -7.4      2.831      5.543
REMARK  10 active torsions:
REMARK  status: ('A' for Active; 'I' for Inactive)
REMARK    1  A    between atoms: C_4  and  C_5 
REMARK    2  A    between atoms: C_5  and  O_6 
REMARK    3  A    between atoms: O_6  and  C_7 
REMARK    4  A    between atoms: C_10  and  N_11 
REMARK       I    between atoms: N_11  and  C_12 
REMARK       I    between atoms: C_12  and  N_13 
REMARK    5  A    between atoms: N_13  and  C_14 
REMARK    6  A    between atoms: C_14  and  C_15 
REMARK    7  A    between atoms: C_15  and  C_16 
REMARK    8  A    between atoms: C_16  and  C_17 
REMARK    9  A    between atoms: C_17  and  N_18 
REMARK   10  A    between atoms: C_25  and  C_26 
REMARK       I    between atoms: C_26  and  N_27 
ROOT
HETATM    1  C   UNL     1      42.673 -15.515   5.945  1.00  0.00     0.191 C 
HETATM    2  N   UNL     1      43.616 -14.832   6.583  1.00  0.00    -0.184 NA
HETATM    3  S   UNL     1      43.287 -13.225   6.392  1.00  0.00     0.033 SA
HETATM    4  C   UNL     1      41.796 -13.445   5.575  1.00  0.00     0.117 C 
HETATM    5  C   UNL     1      41.641 -14.788   5.259  1.00  0.00     0.120 C 
ENDROOT
BRANCH   4   6
HETATM    6  N   UNL     1      41.122 -12.254   5.377  1.00  0.00    -0.301 N 
HETATM    7  C   UNL     1      40.351 -11.588   6.286  1.00  0.00     0.321 C 
HETATM    8  N   UNL     1      39.968 -12.243   7.410  1.00  0.00    -0.343 N 
HETATM    9  O   UNL     1      40.126 -10.389   6.108  1.00  0.00    -0.247 OA
HETATM   10  H   UNL     1      39.611 -13.168   7.181  1.00  0.00     0.164 HD
HETATM   11  H   UNL     1      41.566 -11.606   4.739  1.00  0.00     0.171 HD
BRANCH   8  12
HETATM   12  C   UNL     1      39.235 -11.613   8.487  1.00  0.00     0.124 C 
BRANCH  12  13
HETATM   13  C   UNL     1      40.101 -10.690   9.351  1.00  0.00     0.021 C 
BRANCH  13  14
HETATM   14  C   UNL     1      40.542 -11.248  10.710  1.00  0.00     0.029 C 
BRANCH  14  15
HETATM   15  C   UNL     1      41.951 -10.805  11.099  1.00  0.00     0.235 C 
BRANCH  15  16
HETATM   16  N   UNL     1      42.988 -11.687  10.449  1.00  0.00    -0.071 N 
HETATM   17  H   UNL     1      42.509 -12.519  10.084  1.00  0.00     0.279 HD
HETATM   18  C   UNL     1      44.050 -12.169  11.425  1.00  0.00     0.235 C 
HETATM   19  C   UNL     1      45.351 -11.588  10.906  1.00  0.00     0.029 C 
HETATM   20  C   UNL     1      45.138 -11.552   9.407  1.00  0.00     0.029 C 
HETATM   21  C   UNL     1      43.721 -11.032   9.289  1.00  0.00     0.235 C 
ENDBRANCH  15  16
ENDBRANCH  14  15
ENDBRANCH  13  14
ENDBRANCH  12  13
ENDBRANCH   8  12
ENDBRANCH   4   6
BRANCH   5  22
HETATM   22  C   UNL     1      40.639 -15.353   4.371  1.00  0.00     0.256 C 
HETATM   23  N   UNL     1      40.649 -16.705   4.202  1.00  0.00    -0.366 N 
HETATM   24  H   UNL     1      41.308 -17.314   4.673  1.00  0.00     0.159 HD
HETATM   25  H   UNL     1      39.975 -17.120   3.571  1.00  0.00     0.159 HD
HETATM   26  O   UNL     1      39.809 -14.675   3.772  1.00  0.00    -0.268 OA
ENDBRANCH   5  22
BRANCH   1  27
HETATM   27  O   UNL     1      42.787 -16.865   5.927  1.00  0.00    -0.328 OA
BRANCH  27  28
HETATM   28  C   UNL     1      44.144 -17.301   5.779  1.00  0.00     0.222 C 
BRANCH  28  29
HETATM   29  C   UNL     1      44.160 -18.413   4.771  1.00  0.00     0.043 A 
HETATM   30  C   UNL     1      44.373 -19.736   5.152  1.00  0.00     0.129 A 
HETATM   31  C   UNL     1      44.386 -20.770   4.218  1.00  0.00     0.062 A 
HETATM   32  F   UNL     1      44.567 -20.035   6.443  1.00  0.00    -0.205 F 
HETATM   33  C   UNL     1      44.180 -20.475   2.872  1.00  0.00     0.016 A 
HETATM   34  C   UNL     1      43.959 -19.163   2.463  1.00  0.00     0.062 A 
HETATM   35 BR   UNL     1      44.198 -21.865   1.593  1.00  0.00    -0.051 Br
HETATM   36  C   UNL     1      43.947 -18.149   3.415  1.00  0.00     0.129 A 
HETATM   37  F   UNL     1      43.726 -16.889   3.011  1.00  0.00    -0.205 F 
ENDBRANCH  28  29
ENDBRANCH  27  28
ENDBRANCH   1  27
TORSDOF 10
ENDMDL
MODEL 5
REMARK VINA RESULT:      -7.3      3.426      6.076
REMARK  10 active torsions:
REMARK  status: ('A' for Active; 'I' for Inactive)
REMARK    1  A    between atoms: C_4  and  C_5 
REMARK    2  A    between atoms: C_5  and  O_6 
REMARK    3  A    between atoms: O_6  and  C_7 
REMARK    4  A    between atoms: C_10  and  N_11 
REMARK       I    between atoms: N_11  and  C_12 
REMARK       I    between atoms: C_12  and  N_13 
REMARK    5  A    between atoms: N_13  and  C_14 
REMARK    6  A    between atoms: C_14  and  C_15 
REMARK    7  A    between atoms: C_15  and  C_16 
REMARK    8  A    between atoms: C_16  and  C_17 
REMARK    9  A    between atoms: C_17  and  N_18 
REMARK   10  A    between atoms: C_25  and  C_26 
REMARK       I    between atoms: C_26  and  N_27 
ROOT
HETATM    1  C   UNL     1      41.665 -15.334   3.587  1.00  0.00     0.191 C 
HETATM    2  N   UNL     1      42.551 -14.648   4.299  1.00  0.00    -0.184 NA
HETATM    3  S   UNL     1      41.921 -13.147   4.574  1.00  0.00     0.033 SA
HETATM    4  C   UNL     1      40.393 -13.463   3.862  1.00  0.00     0.117 C 
HETATM    5  C   UNL     1      40.435 -14.690   3.214  1.00  0.00     0.120 C 
ENDROOT
BRANCH   4   6
HETATM    6  N   UNL     1      39.498 -12.426   4.049  1.00  0.00    -0.301 N 
HETATM    7  C   UNL     1      39.228 -11.777   5.220  1.00  0.00     0.321 C 
HETATM    8  N   UNL     1      39.655 -12.337   6.380  1.00  0.00    -0.343 N 
HETATM    9  O   UNL     1      38.709 -10.661   5.174  1.00  0.00    -0.247 OA
HETATM   10  H   UNL     1      39.423 -13.328   6.406  1.00  0.00     0.164 HD
HETATM   11  H   UNL     1      39.386 -11.803   3.259  1.00  0.00     0.171 HD
BRANCH   8  12
HETATM   12  C   UNL     1      39.515 -11.697   7.670  1.00  0.00     0.124 C 
BRANCH  12  13
HETATM   13  C   UNL     1      40.656 -10.726   7.994  1.00  0.00     0.021 C 
BRANCH  13  14
HETATM   14  C   UNL     1      40.598 -10.042   9.365  1.00  0.00     0.029 C 
BRANCH  14  15
HETATM   15  C   UNL     1      40.607 -11.039  10.521  1.00  0.00     0.235 C 
BRANCH  15  16
HETATM   16  N   UNL     1      42.020 -11.369  10.935  1.00  0.00    -0.071 N 
HETATM   17  H   UNL     1      42.253 -12.292  10.549  1.00  0.00     0.279 HD
HETATM   18  C   UNL     1      42.190 -11.453  12.443  1.00  0.00     0.235 C 
HETATM   19  C   UNL     1      43.177 -10.355  12.787  1.00  0.00     0.029 C 
HETATM   20  C   UNL     1      44.062 -10.290  11.560  1.00  0.00     0.029 C 
HETATM   21  C   UNL     1      43.061 -10.383  10.428  1.00  0.00     0.235 C 
ENDBRANCH  15  16
ENDBRANCH  14  15
ENDBRANCH  13  14
ENDBRANCH  12  13
ENDBRANCH   8  12
ENDBRANCH   4   6
BRANCH   5  22
HETATM   22  C   UNL     1      39.436 -15.215   2.298  1.00  0.00     0.256 C 
HETATM   23  N   UNL     1      39.457 -16.556   2.056  1.00  0.00    -0.366 N 
HETATM   24  H   UNL     1      40.123 -17.183   2.492  1.00  0.00     0.159 HD
HETATM   25  H   UNL     1      38.785 -16.942   1.406  1.00  0.00     0.159 HD
HETATM   26  O   UNL     1      38.599 -14.513   1.740  1.00  0.00    -0.268 OA
ENDBRANCH   5  22
BRANCH   1  27
HETATM   27  O   UNL     1      42.012 -16.585   3.199  1.00  0.00    -0.328 OA
BRANCH  27  28
HETATM   28  C   UNL     1      43.419 -16.717   2.965  1.00  0.00     0.222 C 
BRANCH  28  29
HETATM   29  C   UNL     1      43.843 -18.065   3.474  1.00  0.00     0.043 A 
HETATM   30  C   UNL     1      44.159 -18.268   4.816  1.00  0.00     0.129 A 
HETATM   31  C   UNL     1      44.550 -19.518   5.291  1.00  0.00     0.062 A 
HETATM   32  F   UNL     1      44.085 -17.247   5.680  1.00  0.00    -0.205 F 
HETATM   33  C   UNL     1      44.625 -20.590   4.405  1.00  0.00     0.016 A 
HETATM   34  C   UNL     1      44.311 -20.419   3.060  1.00  0.00     0.062 A 
HETATM   35 BR   UNL     1      45.158 -22.291   5.033  1.00  0.00    -0.051 Br
HETATM   36  C   UNL     1      43.919 -19.161   2.611  1.00  0.00     0.129 A 
HETATM   37  F   UNL     1      43.611 -19.008   1.314  1.00  0.00    -0.205 F 
ENDBRANCH  28  29
ENDBRANCH  27  28
ENDBRANCH   1  27
TORSDOF 10
ENDMDL
MODEL 6
REMARK VINA RESULT:      -7.3      2.528      3.423
REMARK  10 active torsions:
REMARK  status: ('A' for Active; 'I' for Inactive)
REMARK    1  A    between atoms: C_4  and  C_5 
REMARK    2  A    between atoms: C_5  and  O_6 
REMARK    3  A    between atoms: O_6  and  C_7 
REMARK    4  A    between atoms: C_10  and  N_11 
REMARK       I    between atoms: N_11  and  C_12 
REMARK       I    between atoms: C_12  and  N_13 
REMARK    5  A    between atoms: N_13  and  C_14 
REMARK    6  A    between atoms: C_14  and  C_15 
REMARK    7  A    between atoms: C_15  and  C_16 
REMARK    8  A    between atoms: C_16  and  C_17 
REMARK    9  A    between atoms: C_17  and  N_18 
REMARK   10  A    between atoms: C_25  and  C_26 
REMARK       I    between atoms: C_26  and  N_27 
ROOT
HETATM    1  C   UNL     1      41.725 -15.489   3.599  1.00  0.00     0.191 C 
HETATM    2  N   UNL     1      42.591 -14.859   4.384  1.00  0.00    -0.184 NA
HETATM    3  S   UNL     1      41.958 -13.375   4.739  1.00  0.00     0.033 SA
HETATM    4  C   UNL     1      40.453 -13.633   3.959  1.00  0.00     0.117 C 
HETATM    5  C   UNL     1      40.511 -14.814   3.231  1.00  0.00     0.120 C 
ENDROOT
BRANCH   4   6
HETATM    6  N   UNL     1      39.557 -12.605   4.187  1.00  0.00    -0.301 N 
HETATM    7  C   UNL     1      39.156 -11.653   3.294  1.00  0.00     0.321 C 
HETATM    8  N   UNL     1      39.869 -11.502   2.149  1.00  0.00    -0.343 N 
HETATM    9  O   UNL     1      38.104 -11.047   3.504  1.00  0.00    -0.247 OA
HETATM   10  H   UNL     1      40.866 -11.471   2.350  1.00  0.00     0.164 HD
HETATM   11  H   UNL     1      38.817 -12.814   4.846  1.00  0.00     0.171 HD
BRANCH   8  12
HETATM   12  C   UNL     1      39.485 -10.598   1.087  1.00  0.00     0.124 C 
BRANCH  12  13
HETATM   13  C   UNL     1      39.953 -11.056  -0.299  1.00  0.00     0.021 C 
BRANCH  13  14
HETATM   14  C   UNL     1      40.630 -12.431  -0.367  1.00  0.00     0.029 C 
BRANCH  14  15
HETATM   15  C   UNL     1      41.881 -12.428  -1.242  1.00  0.00     0.235 C 
BRANCH  15  16
HETATM   16  N   UNL     1      42.018 -13.732  -1.987  1.00  0.00    -0.071 N 
HETATM   17  H   UNL     1      43.011 -13.998  -1.976  1.00  0.00     0.279 HD
HETATM   18  C   UNL     1      41.595 -13.629  -3.443  1.00  0.00     0.235 C 
HETATM   19  C   UNL     1      40.419 -14.576  -3.577  1.00  0.00     0.029 C 
HETATM   20  C   UNL     1      40.740 -15.667  -2.577  1.00  0.00     0.029 C 
HETATM   21  C   UNL     1      41.228 -14.881  -1.379  1.00  0.00     0.235 C 
ENDBRANCH  15  16
ENDBRANCH  14  15
ENDBRANCH  13  14
ENDBRANCH  12  13
ENDBRANCH   8  12
ENDBRANCH   4   6
BRANCH   5  22
HETATM   22  C   UNL     1      39.540 -15.270   2.251  1.00  0.00     0.256 C 
HETATM   23  N   UNL     1      39.503 -16.606   1.986  1.00  0.00    -0.366 N 
HETATM   24  H   UNL     1      40.109 -17.275   2.446  1.00  0.00     0.159 HD
HETATM   25  H   UNL     1      38.851 -16.944   1.291  1.00  0.00     0.159 HD
HETATM   26  O   UNL     1      38.774 -14.514   1.659  1.00  0.00    -0.268 OA
ENDBRANCH   5  22
BRANCH   1  27
HETATM   27  O   UNL     1      42.079 -16.713   3.140  1.00  0.00    -0.328 OA
BRANCH  27  28
HETATM   28  C   UNL     1      43.492 -16.840   2.944  1.00  0.00     0.222 C 
BRANCH  28  29
HETATM   29  C   UNL     1      43.907 -18.187   3.461  1.00  0.00     0.043 A 
HETATM   30  C   UNL     1      44.248 -18.379   4.798  1.00  0.00     0.129 A 
HETATM   31  C   UNL     1      44.631 -19.629   5.280  1.00  0.00     0.062 A 
HETATM   32  F   UNL     1      44.207 -17.347   5.651  1.00  0.00    -0.205 F 
HETATM   33  C   UNL     1      44.673 -20.712   4.406  1.00  0.00     0.016 A 
HETATM   34  C   UNL     1      44.333 -20.552   3.066  1.00  0.00     0.062 A 
HETATM   35 BR   UNL     1      45.194 -22.413   5.044  1.00  0.00    -0.051 Br
HETATM   36  C   UNL     1      43.950 -19.295   2.610  1.00  0.00     0.129 A 
HETATM   37  F   UNL     1      43.617 -19.153   1.318  1.00  0.00    -0.205 F 
ENDBRANCH  28  29
ENDBRANCH  27  28
ENDBRANCH   1  27
TORSDOF 10
ENDMDL
MODEL 7
REMARK VINA RESULT:      -7.3      4.013      6.763
REMARK  10 active torsions:
REMARK  status: ('A' for Active; 'I' for Inactive)
REMARK    1  A    between atoms: C_4  and  C_5 
REMARK    2  A    between atoms: C_5  and  O_6 
REMARK    3  A    between atoms: O_6  and  C_7 
REMARK    4  A    between atoms: C_10  and  N_11 
REMARK       I    between atoms: N_11  and  C_12 
REMARK       I    between atoms: C_12  and  N_13 
REMARK    5  A    between atoms: N_13  and  C_14 
REMARK    6  A    between atoms: C_14  and  C_15 
REMARK    7  A    between atoms: C_15  and  C_16 
REMARK    8  A    between atoms: C_16  and  C_17 
REMARK    9  A    between atoms: C_17  and  N_18 
REMARK   10  A    between atoms: C_25  and  C_26 
REMARK       I    between atoms: C_26  and  N_27 
ROOT
HETATM    1  C   UNL     1      41.361 -15.371   3.970  1.00  0.00     0.191 C 
HETATM    2  N   UNL     1      41.264 -16.345   4.868  1.00  0.00    -0.184 NA
HETATM    3  S   UNL     1      40.582 -15.705   6.229  1.00  0.00     0.033 SA
HETATM    4  C   UNL     1      40.282 -14.153   5.565  1.00  0.00     0.117 C 
HETATM    5  C   UNL     1      40.904 -14.056   4.328  1.00  0.00     0.120 C 
ENDROOT
BRANCH   4   6
HETATM    6  N   UNL     1      39.543 -13.349   6.413  1.00  0.00    -0.301 N 
HETATM    7  C   UNL     1      39.938 -12.169   6.975  1.00  0.00     0.321 C 
HETATM    8  N   UNL     1      41.255 -11.846   6.938  1.00  0.00    -0.343 N 
HETATM    9  O   UNL     1      39.077 -11.392   7.391  1.00  0.00    -0.247 OA
HETATM   10  H   UNL     1      41.826 -12.639   7.225  1.00  0.00     0.164 HD
HETATM   11  H   UNL     1      38.543 -13.354   6.254  1.00  0.00     0.171 HD
BRANCH   8  12
HETATM   12  C   UNL     1      41.778 -10.583   7.411  1.00  0.00     0.124 C 
BRANCH  12  13
HETATM   13  C   UNL     1      42.263 -10.632   8.864  1.00  0.00     0.021 C 
BRANCH  13  14
HETATM   14  C   UNL     1      41.389  -9.908   9.896  1.00  0.00     0.029 C 
BRANCH  14  15
HETATM   15  C   UNL     1      41.166 -10.734  11.161  1.00  0.00     0.235 C 
BRANCH  15  16
HETATM   16  N   UNL     1      41.333  -9.883  12.395  1.00  0.00    -0.071 N 
HETATM   17  H   UNL     1      40.522  -9.254  12.455  1.00  0.00     0.279 HD
HETATM   18  C   UNL     1      42.577  -9.011  12.348  1.00  0.00     0.235 C 
HETATM   19  C   UNL     1      43.429  -9.482  13.509  1.00  0.00     0.029 C 
HETATM   20  C   UNL     1      42.404  -9.919  14.534  1.00  0.00     0.029 C 
HETATM   21  C   UNL     1      41.398 -10.675  13.691  1.00  0.00     0.235 C 
ENDBRANCH  15  16
ENDBRANCH  14  15
ENDBRANCH  13  14
ENDBRANCH  12  13
ENDBRANCH   8  12
ENDBRANCH   4   6
BRANCH   5  22
HETATM   22  C   UNL     1      41.090 -12.843   3.550  1.00  0.00     0.256 C 
HETATM   23  N   UNL     1      42.332 -12.616   3.038  1.00  0.00    -0.366 N 
HETATM   24  H   UNL     1      43.107 -13.256   3.171  1.00  0.00     0.159 HD
HETATM   25  H   UNL     1      42.492 -11.767   2.511  1.00  0.00     0.159 HD
HETATM   26  O   UNL     1      40.194 -12.028   3.348  1.00  0.00    -0.268 OA
ENDBRANCH   5  22
BRANCH   1  27
HETATM   27  O   UNL     1      41.953 -15.671   2.789  1.00  0.00    -0.328 OA
BRANCH  27  28
HETATM   28  C   UNL     1      43.361 -15.904   2.923  1.00  0.00     0.222 C 
BRANCH  28  29
HETATM   29  C   UNL     1      43.595 -17.380   2.782  1.00  0.00     0.043 A 
HETATM   30  C   UNL     1      43.408 -18.033   1.566  1.00  0.00     0.129 A 
HETATM   31  C   UNL     1      43.628 -19.402   1.433  1.00  0.00     0.062 A 
HETATM   32  F   UNL     1      43.013 -17.339   0.490  1.00  0.00    -0.205 F 
HETATM   33  C   UNL     1      44.045 -20.136   2.541  1.00  0.00     0.016 A 
HETATM   34  C   UNL     1      44.245 -19.510   3.767  1.00  0.00     0.062 A 
HETATM   35 BR   UNL     1      44.343 -21.995   2.377  1.00  0.00    -0.051 Br
HETATM   36  C   UNL     1      44.023 -18.141   3.874  1.00  0.00     0.129 A 
HETATM   37  F   UNL     1      44.226 -17.546   5.059  1.00  0.00    -0.205 F 
ENDBRANCH  28  29
ENDBRANCH  27  28
ENDBRANCH   1  27
TORSDOF 10
ENDMDL
MODEL 8
REMARK VINA RESULT:      -7.2      3.850      6.566
REMARK  10 active torsions:
REMARK  status: ('A' for Active; 'I' for Inactive)
REMARK    1  A    between atoms: C_4  and  C_5 
REMARK    2  A    between atoms: C_5  and  O_6 
REMARK    3  A    between atoms: O_6  and  C_7 
REMARK    4  A    between atoms: C_10  and  N_11 
REMARK       I    between atoms: N_11  and  C_12 
REMARK       I    between atoms: C_12  and  N_13 
REMARK    5  A    between atoms: N_13  and  C_14 
REMARK    6  A    between atoms: C_14  and  C_15 
REMARK    7  A    between atoms: C_15  and  C_16 
REMARK    8  A    between atoms: C_16  and  C_17 
REMARK    9  A    between atoms: C_17  and  N_18 
REMARK   10  A    between atoms: C_25  and  C_26 
REMARK       I    between atoms: C_26  and  N_27 
ROOT
HETATM    1  C   UNL     1      41.375 -15.356   3.544  1.00  0.00     0.191 C 
HETATM    2  N   UNL     1      41.157 -14.266   2.816  1.00  0.00    -0.184 NA
HETATM    3  S   UNL     1      40.176 -13.267   3.692  1.00  0.00     0.033 SA
HETATM    4  C   UNL     1      40.161 -14.231   5.109  1.00  0.00     0.117 C 
HETATM    5  C   UNL     1      40.760 -15.454   4.838  1.00  0.00     0.120 C 
ENDROOT
BRANCH   4   6
HETATM    6  N   UNL     1      39.528 -13.605   6.167  1.00  0.00    -0.301 N 
HETATM    7  C   UNL     1      39.925 -12.464   6.802  1.00  0.00     0.321 C 
HETATM    8  N   UNL     1      41.186 -12.012   6.587  1.00  0.00    -0.343 N 
HETATM    9  O   UNL     1      39.096 -11.827   7.455  1.00  0.00    -0.247 OA
HETATM   10  H   UNL     1      41.858 -12.773   6.668  1.00  0.00     0.164 HD
HETATM   11  H   UNL     1      38.518 -13.689   6.178  1.00  0.00     0.171 HD
BRANCH   8  12
HETATM   12  C   UNL     1      41.688 -10.766   7.124  1.00  0.00     0.124 C 
BRANCH  12  13
HETATM   13  C   UNL     1      42.542 -10.948   8.383  1.00  0.00     0.021 C 
BRANCH  13  14
HETATM   14  C   UNL     1      41.816 -10.798   9.726  1.00  0.00     0.029 C 
BRANCH  14  15
HETATM   15  C   UNL     1      41.993  -9.411  10.339  1.00  0.00     0.235 C 
BRANCH  15  16
HETATM   16  N   UNL     1      43.006  -9.444  11.456  1.00  0.00    -0.071 N 
HETATM   17  H   UNL     1      43.920  -9.190  11.060  1.00  0.00     0.279 HD
HETATM   18  C   UNL     1      43.152 -10.821  12.083  1.00  0.00     0.235 C 
HETATM   19  C   UNL     1      42.725 -10.642  13.526  1.00  0.00     0.029 C 
HETATM   20  C   UNL     1      43.142  -9.220  13.835  1.00  0.00     0.029 C 
HETATM   21  C   UNL     1      42.711  -8.473  12.589  1.00  0.00     0.235 C 
ENDBRANCH  15  16
ENDBRANCH  14  15
ENDBRANCH  13  14
ENDBRANCH  12  13
ENDBRANCH   8  12
ENDBRANCH   4   6
BRANCH   5  22
HETATM   22  C   UNL     1      40.740 -16.630   5.691  1.00  0.00     0.256 C 
HETATM   23  N   UNL     1      40.508 -17.831   5.091  1.00  0.00    -0.366 N 
HETATM   24  H   UNL     1      40.363 -17.927   4.092  1.00  0.00     0.159 HD
HETATM   25  H   UNL     1      40.467 -18.662   5.667  1.00  0.00     0.159 HD
HETATM   26  O   UNL     1      40.912 -16.585   6.906  1.00  0.00    -0.268 OA
ENDBRANCH   5  22
BRANCH   1  27
HETATM   27  O   UNL     1      42.116 -16.341   2.982  1.00  0.00    -0.328 OA
BRANCH  27  28
HETATM   28  C   UNL     1      43.481 -16.320   3.418  1.00  0.00     0.222 C 
BRANCH  28  29
HETATM   29  C   UNL     1      43.863 -17.723   3.791  1.00  0.00     0.043 A 
HETATM   30  C   UNL     1      44.122 -18.079   5.114  1.00  0.00     0.129 A 
HETATM   31  C   UNL     1      44.474 -19.380   5.462  1.00  0.00     0.062 A 
HETATM   32  F   UNL     1      44.028 -17.158   6.082  1.00  0.00    -0.205 F 
HETATM   33  C   UNL     1      44.569 -20.350   4.467  1.00  0.00     0.016 A 
HETATM   34  C   UNL     1      44.312 -20.026   3.139  1.00  0.00     0.062 A 
HETATM   35 BR   UNL     1      45.050 -22.120   4.924  1.00  0.00    -0.051 Br
HETATM   36  C   UNL     1      43.958 -18.719   2.816  1.00  0.00     0.129 A 
HETATM   37  F   UNL     1      43.705 -18.419   1.533  1.00  0.00    -0.205 F 
ENDBRANCH  28  29
ENDBRANCH  27  28
ENDBRANCH   1  27
TORSDOF 10
ENDMDL
MODEL 9
REMARK VINA RESULT:      -7.2      2.792      4.061
REMARK  10 active torsions:
REMARK  status: ('A' for Active; 'I' for Inactive)
REMARK    1  A    between atoms: C_4  and  C_5 
REMARK    2  A    between atoms: C_5  and  O_6 
REMARK    3  A    between atoms: O_6  and  C_7 
REMARK    4  A    between atoms: C_10  and  N_11 
REMARK       I    between atoms: N_11  and  C_12 
REMARK       I    between atoms: C_12  and  N_13 
REMARK    5  A    between atoms: N_13  and  C_14 
REMARK    6  A    between atoms: C_14  and  C_15 
REMARK    7  A    between atoms: C_15  and  C_16 
REMARK    8  A    between atoms: C_16  and  C_17 
REMARK    9  A    between atoms: C_17  and  N_18 
REMARK   10  A    between atoms: C_25  and  C_26 
REMARK       I    between atoms: C_26  and  N_27 
ROOT
HETATM    1  C   UNL     1      41.117 -14.638   3.647  1.00  0.00     0.191 C 
HETATM    2  N   UNL     1      41.831 -13.687   4.238  1.00  0.00    -0.184 NA
HETATM    3  S   UNL     1      41.071 -12.247   3.967  1.00  0.00     0.033 SA
HETATM    4  C   UNL     1      39.703 -12.914   3.177  1.00  0.00     0.117 C 
HETATM    5  C   UNL     1      39.927 -14.262   2.934  1.00  0.00     0.120 C 
ENDROOT
BRANCH   4   6
HETATM    6  N   UNL     1      38.727 -11.968   2.924  1.00  0.00    -0.301 N 
HETATM    7  C   UNL     1      38.324 -11.511   1.703  1.00  0.00     0.321 C 
HETATM    8  N   UNL     1      39.102 -11.784   0.625  1.00  0.00    -0.343 N 
HETATM    9  O   UNL     1      37.222 -10.969   1.604  1.00  0.00    -0.247 OA
HETATM   10  H   UNL     1      40.079 -11.583   0.828  1.00  0.00     0.164 HD
HETATM   11  H   UNL     1      37.959 -11.951   3.585  1.00  0.00     0.171 HD
BRANCH   8  12
HETATM   12  C   UNL     1      38.731 -11.439  -0.731  1.00  0.00     0.124 C 
BRANCH  12  13
HETATM   13  C   UNL     1      38.054 -12.588  -1.486  1.00  0.00     0.021 C 
BRANCH  13  14
HETATM   14  C   UNL     1      38.891 -13.272  -2.574  1.00  0.00     0.029 C 
BRANCH  14  15
HETATM   15  C   UNL     1      39.625 -14.509  -2.062  1.00  0.00     0.235 C 
BRANCH  15  16
HETATM   16  N   UNL     1      41.119 -14.329  -2.169  1.00  0.00    -0.071 N 
HETATM   17  H   UNL     1      41.536 -15.254  -2.333  1.00  0.00     0.279 HD
HETATM   18  C   UNL     1      41.741 -13.773  -0.898  1.00  0.00     0.235 C 
HETATM   19  C   UNL     1      42.338 -12.441  -1.305  1.00  0.00     0.029 C 
HETATM   20  C   UNL     1      42.745 -12.671  -2.745  1.00  0.00     0.029 C 
HETATM   21  C   UNL     1      41.555 -13.420  -3.307  1.00  0.00     0.235 C 
ENDBRANCH  15  16
ENDBRANCH  14  15
ENDBRANCH  13  14
ENDBRANCH  12  13
ENDBRANCH   8  12
ENDBRANCH   4   6
BRANCH   5  22
HETATM   22  C   UNL     1      39.125 -15.129   2.087  1.00  0.00     0.256 C 
HETATM   23  N   UNL     1      39.437 -16.455   2.081  1.00  0.00    -0.366 N 
HETATM   24  H   UNL     1      40.184 -16.847   2.642  1.00  0.00     0.159 HD
HETATM   25  H   UNL     1      38.907 -17.075   1.482  1.00  0.00     0.159 HD
HETATM   26  O   UNL     1      38.204 -14.721   1.385  1.00  0.00    -0.268 OA
ENDBRANCH   5  22
BRANCH   1  27
HETATM   27  O   UNL     1      41.600 -15.902   3.698  1.00  0.00    -0.328 OA
BRANCH  27  28
HETATM   28  C   UNL     1      43.003 -15.967   3.415  1.00  0.00     0.222 C 
BRANCH  28  29
HETATM   29  C   UNL     1      43.344 -17.399   3.120  1.00  0.00     0.043 A 
HETATM   30  C   UNL     1      43.981 -18.204   4.063  1.00  0.00     0.129 A 
HETATM   31  C   UNL     1      44.296 -19.533   3.793  1.00  0.00     0.062 A 
HETATM   32  F   UNL     1      44.297 -17.700   5.264  1.00  0.00    -0.205 F 
HETATM   33  C   UNL     1      43.967 -20.072   2.551  1.00  0.00     0.016 A 
HETATM   34  C   UNL     1      43.327 -19.295   1.591  1.00  0.00     0.062 A 
HETATM   35 BR   UNL     1      44.392 -21.873   2.167  1.00  0.00    -0.051 Br
HETATM   36  C   UNL     1      43.019 -17.970   1.887  1.00  0.00     0.129 A 
HETATM   37  F   UNL     1      42.395 -17.231   0.957  1.00  0.00    -0.205 F 
ENDBRANCH  28  29
ENDBRANCH  27  28
ENDBRANCH   1  27
TORSDOF 10
ENDMDL
MODEL 10
REMARK VINA RESULT:      -7.2      3.163      4.263
REMARK  10 active torsions:
REMARK  status: ('A' for Active; 'I' for Inactive)
REMARK    1  A    between atoms: C_4  and  C_5 
REMARK    2  A    between atoms: C_5  and  O_6 
REMARK    3  A    between atoms: O_6  and  C_7 
REMARK    4  A    between atoms: C_10  and  N_11 
REMARK       I    between atoms: N_11  and  C_12 
REMARK       I    between atoms: C_12  and  N_13 
REMARK    5  A    between atoms: N_13  and  C_14 
REMARK    6  A    between atoms: C_14  and  C_15 
REMARK    7  A    between atoms: C_15  and  C_16 
REMARK    8  A    between atoms: C_16  and  C_17 
REMARK    9  A    between atoms: C_17  and  N_18 
REMARK   10  A    between atoms: C_25  and  C_26 
REMARK       I    between atoms: C_26  and  N_27 
ROOT
HETATM    1  C   UNL     1      41.711 -15.096   3.399  1.00  0.00     0.191 C 
HETATM    2  N   UNL     1      42.569 -14.196   3.865  1.00  0.00    -0.184 NA
HETATM    3  S   UNL     1      41.940 -12.700   3.563  1.00  0.00     0.033 SA
HETATM    4  C   UNL     1      40.445 -13.260   2.937  1.00  0.00     0.117 C 
HETATM    5  C   UNL     1      40.506 -14.636   2.766  1.00  0.00     0.120 C 
ENDROOT
BRANCH   4   6
HETATM    6  N   UNL     1      39.551 -12.231   2.705  1.00  0.00    -0.301 N 
HETATM    7  C   UNL     1      39.098 -11.796   1.493  1.00  0.00     0.321 C 
HETATM    8  N   UNL     1      39.753 -12.202   0.377  1.00  0.00    -0.343 N 
HETATM    9  O   UNL     1      38.051 -11.146   1.448  1.00  0.00    -0.247 OA
HETATM   10  H   UNL     1      40.759 -12.095   0.493  1.00  0.00     0.164 HD
HETATM   11  H   UNL     1      38.845 -12.100   3.420  1.00  0.00     0.171 HD
BRANCH   8  12
HETATM   12  C   UNL     1      39.310 -11.887  -0.965  1.00  0.00     0.124 C 
BRANCH  12  13
HETATM   13  C   UNL     1      39.017 -13.129  -1.814  1.00  0.00     0.021 C 
BRANCH  13  14
HETATM   14  C   UNL     1      39.497 -13.085  -3.270  1.00  0.00     0.029 C 
BRANCH  14  15
HETATM   15  C   UNL     1      40.772 -13.893  -3.494  1.00  0.00     0.235 C 
BRANCH  15  16
HETATM   16  N   UNL     1      41.957 -12.981  -3.692  1.00  0.00    -0.071 N 
HETATM   17  H   UNL     1      42.560 -13.401  -4.410  1.00  0.00     0.279 HD
HETATM   18  C   UNL     1      42.797 -12.820  -2.435  1.00  0.00     0.235 C 
HETATM   19  C   UNL     1      42.710 -11.345  -2.094  1.00  0.00     0.029 C 
HETATM   20  C   UNL     1      42.583 -10.684  -3.450  1.00  0.00     0.029 C 
HETATM   21  C   UNL     1      41.592 -11.582  -4.161  1.00  0.00     0.235 C 
ENDBRANCH  15  16
ENDBRANCH  14  15
ENDBRANCH  13  14
ENDBRANCH  12  13
ENDBRANCH   8  12
ENDBRANCH   4   6
BRANCH   5  22
HETATM   22  C   UNL     1      39.547 -15.459   2.049  1.00  0.00     0.256 C 
HETATM   23  N   UNL     1      39.788 -16.799   2.001  1.00  0.00    -0.366 N 
HETATM   24  H   UNL     1      40.590 -17.229   2.448  1.00  0.00     0.159 HD
HETATM   25  H   UNL     1      39.146 -17.389   1.489  1.00  0.00     0.159 HD
HETATM   26  O   UNL     1      38.554 -15.003   1.488  1.00  0.00    -0.268 OA
ENDBRANCH   5  22
BRANCH   1  27
HETATM   27  O   UNL     1      42.065 -16.401   3.494  1.00  0.00    -0.328 OA
BRANCH  27  28
HETATM   28  C   UNL     1      43.381 -16.652   2.986  1.00  0.00     0.222 C 
BRANCH  28  29
HETATM   29  C   UNL     1      43.801 -18.014   3.456  1.00  0.00     0.043 A 
HETATM   30  C   UNL     1      43.895 -19.090   2.575  1.00  0.00     0.129 A 
HETATM   31  C   UNL     1      44.287 -20.354   3.009  1.00  0.00     0.062 A 
HETATM   32  F   UNL     1      43.609 -18.917   1.278  1.00  0.00    -0.205 F 
HETATM   33  C   UNL     1      44.593 -20.549   4.354  1.00  0.00     0.016 A 
HETATM   34  C   UNL     1      44.514 -19.492   5.256  1.00  0.00     0.062 A 
HETATM   35 BR   UNL     1      45.122 -22.259   4.958  1.00  0.00    -0.051 Br
HETATM   36  C   UNL     1      44.123 -18.238   4.797  1.00  0.00     0.129 A 
HETATM   37  F   UNL     1      44.057 -17.224   5.673  1.00  0.00    -0.205 F 
ENDBRANCH  28  29
ENDBRANCH  27  28
ENDBRANCH   1  27
TORSDOF 10
ENDMDL
