MODEL 1
REMARK VINA RESULT:      -8.2      0.000      0.000
REMARK  11 active torsions:
REMARK  status: ('A' for Active; 'I' for Inactive)
REMARK    1  A    between atoms: O_2  and  C_3 
REMARK    2  A    between atoms: C_6  and  C_7 
REMARK    3  A    between atoms: C_7  and  N_8 
REMARK    4  A    between atoms: C_7  and  C_29 
REMARK       I    between atoms: N_8  and  C_9 
REMARK    5  A    between atoms: N_8  and  C_20 
REMARK    6  A    between atoms: C_9  and  C_10 
REMARK    7  A    between atoms: C_13  and  C_14 
REMARK       I    between atoms: C_14  and  N_15 
REMARK    8  A    between atoms: C_17  and  N_18 
REMARK    9  A    between atoms: C_20  and  C_21 
REMARK   10  A    between atoms: C_21  and  N_22 
REMARK       I    between atoms: C_29  and  N_30 
REMARK   11  A    between atoms: N_30  and  C_31 
ROOT
HETATM    1  N   UNL     1      41.120 -14.532   2.576  1.00  0.00    -0.328 N 
HETATM    2  C   UNL     1      39.839 -14.322   3.119  1.00  0.00     0.265 C 
HETATM    3  O   UNL     1      38.887 -15.018   2.770  1.00  0.00    -0.267 OA
ENDROOT
BRANCH   1   4
HETATM    4  C   UNL     1      41.260 -15.575   1.539  1.00  0.00     0.213 C 
BRANCH   4   5
HETATM    5  C   UNL     1      42.192 -16.741   1.824  1.00  0.00    -0.026 A 
HETATM    6  C   UNL     1      41.937 -17.689   2.825  1.00  0.00     0.012 A 
HETATM    7  C   UNL     1      42.745 -18.823   2.959  1.00  0.00     0.037 A 
HETATM    8  C   UNL     1      43.803 -19.054   2.081  1.00  0.00     0.068 A 
HETATM    9  C   UNL     1      44.083 -18.116   1.093  1.00  0.00     0.037 A 
HETATM   10  C   UNL     1      43.282 -16.975   0.963  1.00  0.00     0.012 A 
BRANCH   8  11
HETATM   11  O   UNL     1      44.484 -20.219   2.292  1.00  0.00    -0.356 OA
HETATM   12  C   UNL     1      43.831 -21.416   1.883  1.00  0.00     0.210 C 
ENDBRANCH   8  11
ENDBRANCH   4   5
BRANCH   4  13
HETATM   13  C   UNL     1      41.360 -14.882   0.161  1.00  0.00     0.245 C 
HETATM   14  N   UNL     1      40.625 -15.414  -0.864  1.00  0.00    -0.354 N 
HETATM   15  H   UNL     1      40.317 -16.376  -0.717  1.00  0.00     0.162 HD
HETATM   16  O   UNL     1      42.179 -13.964   0.030  1.00  0.00    -0.271 OA
BRANCH  14  17
HETATM   17  C   UNL     1      40.593 -14.956  -2.249  1.00  0.00     0.084 C 
HETATM   18  C   UNL     1      40.326 -16.072  -3.263  1.00  0.00     0.025 C 
HETATM   19  C   UNL     1      38.990 -15.753  -3.933  1.00  0.00     0.002 C 
HETATM   20  C   UNL     1      38.370 -14.602  -3.154  1.00  0.00     0.002 C 
HETATM   21  C   UNL     1      39.548 -13.877  -2.527  1.00  0.00     0.025 C 
ENDBRANCH  14  17
ENDBRANCH   4  13
ENDBRANCH   1   4
BRANCH   1  22
HETATM   22  C   UNL     1      42.325 -13.767   2.951  1.00  0.00     0.155 C 
BRANCH  22  23
HETATM   23  C   UNL     1      43.456 -14.584   3.620  1.00  0.00     0.255 C 
BRANCH  23  24
HETATM   24  N   UNL     1      43.324 -14.719   5.120  1.00  0.00    -0.066 N 
HETATM   25  H   UNL     1      42.423 -14.298   5.426  1.00  0.00     0.280 HD
HETATM   26  C   UNL     1      43.363 -16.153   5.628  1.00  0.00     0.261 C 
HETATM   27  C   UNL     1      43.240 -16.174   7.156  1.00  0.00     0.195 C 
HETATM   28  O   UNL     1      44.288 -15.405   7.758  1.00  0.00    -0.388 OA
HETATM   29  C   UNL     1      44.215 -14.031   7.362  1.00  0.00     0.195 C 
HETATM   30  C   UNL     1      44.386 -13.888   5.845  1.00  0.00     0.261 C 
ENDBRANCH  23  24
ENDBRANCH  22  23
ENDBRANCH   1  22
BRANCH   2  31
HETATM   31  C   UNL     1      39.690 -13.289   4.106  1.00  0.00     0.115 A 
HETATM   32  S   UNL     1      39.153 -11.741   3.636  1.00  0.00     0.019 SA
HETATM   33  N   UNL     1      39.285 -11.047   5.134  1.00  0.00    -0.203 NA
HETATM   34  C   UNL     1      39.633 -11.986   6.029  1.00  0.00     0.155 A 
HETATM   35  C   UNL     1      39.856 -13.306   5.473  1.00  0.00     0.065 A 
BRANCH  34  36
HETATM   36  C   UNL     1      39.759 -11.635   7.454  1.00  0.00     0.270 C 
HETATM   37  N   UNL     1      39.086 -12.449   8.321  1.00  0.00    -0.365 N 
HETATM   38  H   UNL     1      38.605 -13.271   7.975  1.00  0.00     0.159 HD
HETATM   39  H   UNL     1      39.182 -12.304   9.315  1.00  0.00     0.159 HD
HETATM   40  O   UNL     1      40.418 -10.678   7.850  1.00  0.00    -0.266 OA
ENDBRANCH  34  36
BRANCH  35  41
HETATM   41  N   UNL     1      40.204 -14.413   6.191  1.00  0.00    -0.299 NA
HETATM   42  H   UNL     1      40.714 -14.231   7.068  1.00  0.00     0.124 HD
HETATM   43  H   UNL     1      39.474 -15.105   6.378  1.00  0.00     0.124 HD
ENDBRANCH  35  41
ENDBRANCH   2  31
TORSDOF 11
ENDMDL
MODEL 2
REMARK VINA RESULT:      -7.9      2.532      7.791
REMARK  11 active torsions:
REMARK  status: ('A' for Active; 'I' for Inactive)
REMARK    1  A    between atoms: O_2  and  C_3 
REMARK    2  A    between atoms: C_6  and  C_7 
REMARK    3  A    between atoms: C_7  and  N_8 
REMARK    4  A    between atoms: C_7  and  C_29 
REMARK       I    between atoms: N_8  and  C_9 
REMARK    5  A    between atoms: N_8  and  C_20 
REMARK    6  A    between atoms: C_9  and  C_10 
REMARK    7  A    between atoms: C_13  and  C_14 
REMARK       I    between atoms: C_14  and  N_15 
REMARK    8  A    between atoms: C_17  and  N_18 
REMARK    9  A    between atoms: C_20  and  C_21 
REMARK   10  A    between atoms: C_21  and  N_22 
REMARK       I    between atoms: C_29  and  N_30 
REMARK   11  A    between atoms: N_30  and  C_31 
ROOT
HETATM    1  N   UNL     1      41.154 -14.396   2.586  1.00  0.00    -0.328 N 
HETATM    2  C   UNL     1      40.168 -15.038   1.813  1.00  0.00     0.265 C 
HETATM    3  O   UNL     1      39.413 -15.866   2.319  1.00  0.00    -0.267 OA
ENDROOT
BRANCH   1   4
HETATM    4  C   UNL     1      41.279 -14.795   4.002  1.00  0.00     0.213 C 
BRANCH   4   5
HETATM    5  C   UNL     1      40.947 -13.760   5.065  1.00  0.00    -0.026 A 
HETATM    6  C   UNL     1      41.875 -12.813   5.518  1.00  0.00     0.012 A 
HETATM    7  C   UNL     1      41.487 -11.791   6.391  1.00  0.00     0.037 A 
HETATM    8  C   UNL     1      40.162 -11.673   6.808  1.00  0.00     0.068 A 
HETATM    9  C   UNL     1      39.230 -12.616   6.384  1.00  0.00     0.037 A 
HETATM   10  C   UNL     1      39.618 -13.644   5.518  1.00  0.00     0.012 A 
BRANCH   8  11
HETATM   11  O   UNL     1      39.905 -10.607   7.623  1.00  0.00    -0.356 OA
HETATM   12  C   UNL     1      39.437 -10.911   8.933  1.00  0.00     0.210 C 
ENDBRANCH   8  11
ENDBRANCH   4   5
BRANCH   4  13
HETATM   13  C   UNL     1      42.577 -15.618   4.165  1.00  0.00     0.245 C 
HETATM   14  N   UNL     1      42.818 -16.599   3.242  1.00  0.00    -0.354 N 
HETATM   15  H   UNL     1      41.998 -16.902   2.714  1.00  0.00     0.162 HD
HETATM   16  O   UNL     1      43.264 -15.426   5.175  1.00  0.00    -0.271 OA
BRANCH  14  17
HETATM   17  C   UNL     1      43.949 -17.521   3.217  1.00  0.00     0.084 C 
HETATM   18  C   UNL     1      43.800 -18.707   4.173  1.00  0.00     0.025 C 
HETATM   19  C   UNL     1      43.743 -19.967   3.311  1.00  0.00     0.002 C 
HETATM   20  C   UNL     1      43.615 -19.509   1.867  1.00  0.00     0.002 C 
HETATM   21  C   UNL     1      44.236 -18.122   1.843  1.00  0.00     0.025 C 
ENDBRANCH  14  17
ENDBRANCH   4  13
ENDBRANCH   1   4
BRANCH   1  22
HETATM   22  C   UNL     1      42.085 -13.372   2.074  1.00  0.00     0.155 C 
BRANCH  22  23
HETATM   23  C   UNL     1      41.540 -11.925   2.045  1.00  0.00     0.255 C 
BRANCH  23  24
HETATM   24  N   UNL     1      42.103 -11.069   0.933  1.00  0.00    -0.066 N 
HETATM   25  H   UNL     1      42.976 -10.608   1.261  1.00  0.00     0.280 HD
HETATM   26  C   UNL     1      42.433 -11.831  -0.342  1.00  0.00     0.261 C 
HETATM   27  C   UNL     1      42.976 -10.870  -1.405  1.00  0.00     0.195 C 
HETATM   28  O   UNL     1      42.031  -9.830  -1.678  1.00  0.00    -0.388 OA
HETATM   29  C   UNL     1      41.774  -9.043  -0.510  1.00  0.00     0.195 C 
HETATM   30  C   UNL     1      41.168  -9.901   0.606  1.00  0.00     0.261 C 
ENDBRANCH  23  24
ENDBRANCH  22  23
ENDBRANCH   1  22
BRANCH   2  31
HETATM   31  C   UNL     1      40.062 -14.675   0.426  1.00  0.00     0.115 A 
HETATM   32  S   UNL     1      38.886 -13.545  -0.065  1.00  0.00     0.019 SA
HETATM   33  N   UNL     1      39.214 -13.642  -1.686  1.00  0.00    -0.203 NA
HETATM   34  C   UNL     1      40.276 -14.443  -1.875  1.00  0.00     0.155 A 
HETATM   35  C   UNL     1      40.810 -15.044  -0.670  1.00  0.00     0.065 A 
BRANCH  34  36
HETATM   36  C   UNL     1      40.810 -14.648  -3.232  1.00  0.00     0.270 C 
HETATM   37  N   UNL     1      42.108 -14.262  -3.418  1.00  0.00    -0.365 N 
HETATM   38  H   UNL     1      42.656 -13.930  -2.633  1.00  0.00     0.159 HD
HETATM   39  H   UNL     1      42.556 -14.435  -4.307  1.00  0.00     0.159 HD
HETATM   40  O   UNL     1      40.145 -15.130  -4.146  1.00  0.00    -0.266 OA
ENDBRANCH  34  36
BRANCH  35  41
HETATM   41  N   UNL     1      41.889 -15.877  -0.618  1.00  0.00    -0.299 NA
HETATM   42  H   UNL     1      41.987 -16.424   0.250  1.00  0.00     0.124 HD
HETATM   43  H   UNL     1      42.045 -16.501  -1.413  1.00  0.00     0.124 HD
ENDBRANCH  35  41
ENDBRANCH   2  31
TORSDOF 11
ENDMDL
MODEL 3
REMARK VINA RESULT:      -7.6      2.763      8.207
REMARK  11 active torsions:
REMARK  status: ('A' for Active; 'I' for Inactive)
REMARK    1  A    between atoms: O_2  and  C_3 
REMARK    2  A    between atoms: C_6  and  C_7 
REMARK    3  A    between atoms: C_7  and  N_8 
REMARK    4  A    between atoms: C_7  and  C_29 
REMARK       I    between atoms: N_8  and  C_9 
REMARK    5  A    between atoms: N_8  and  C_20 
REMARK    6  A    between atoms: C_9  and  C_10 
REMARK    7  A    between atoms: C_13  and  C_14 
REMARK       I    between atoms: C_14  and  N_15 
REMARK    8  A    between atoms: C_17  and  N_18 
REMARK    9  A    between atoms: C_20  and  C_21 
REMARK   10  A    between atoms: C_21  and  N_22 
REMARK       I    between atoms: C_29  and  N_30 
REMARK   11  A    between atoms: N_30  and  C_31 
ROOT
HETATM    1  N   UNL     1      41.270 -14.387   2.672  1.00  0.00    -0.328 N 
HETATM    2  C   UNL     1      40.304 -15.098   1.936  1.00  0.00     0.265 C 
HETATM    3  O   UNL     1      39.598 -15.945   2.480  1.00  0.00    -0.267 OA
ENDROOT
BRANCH   1   4
HETATM    4  C   UNL     1      41.438 -14.738   4.097  1.00  0.00     0.213 C 
BRANCH   4   5
HETATM    5  C   UNL     1      41.013 -13.714   5.136  1.00  0.00    -0.026 A 
HETATM    6  C   UNL     1      41.885 -12.745   5.650  1.00  0.00     0.012 A 
HETATM    7  C   UNL     1      41.416 -11.736   6.497  1.00  0.00     0.037 A 
HETATM    8  C   UNL     1      40.064 -11.649   6.825  1.00  0.00     0.068 A 
HETATM    9  C   UNL     1      39.185 -12.613   6.340  1.00  0.00     0.037 A 
HETATM   10  C   UNL     1      39.654 -13.630   5.500  1.00  0.00     0.012 A 
BRANCH   8  11
HETATM   11  O   UNL     1      39.729 -10.592   7.622  1.00  0.00    -0.356 OA
HETATM   12  C   UNL     1      39.159 -10.910   8.888  1.00  0.00     0.210 C 
ENDBRANCH   8  11
ENDBRANCH   4   5
BRANCH   4  13
HETATM   13  C   UNL     1      42.810 -15.427   4.271  1.00  0.00     0.245 C 
HETATM   14  N   UNL     1      42.812 -16.710   4.749  1.00  0.00    -0.354 N 
HETATM   15  H   UNL     1      41.953 -16.992   5.223  1.00  0.00     0.162 HD
HETATM   16  O   UNL     1      43.828 -14.752   4.082  1.00  0.00    -0.271 OA
BRANCH  14  17
HETATM   17  C   UNL     1      43.979 -17.540   5.030  1.00  0.00     0.084 C 
HETATM   18  C   UNL     1      44.586 -17.304   6.415  1.00  0.00     0.025 C 
HETATM   19  C   UNL     1      44.429 -18.607   7.196  1.00  0.00     0.002 C 
HETATM   20  C   UNL     1      43.530 -19.512   6.368  1.00  0.00     0.002 C 
HETATM   21  C   UNL     1      43.717 -19.041   4.936  1.00  0.00     0.025 C 
ENDBRANCH  14  17
ENDBRANCH   4  13
ENDBRANCH   1   4
BRANCH   1  22
HETATM   22  C   UNL     1      42.143 -13.336   2.113  1.00  0.00     0.155 C 
BRANCH  22  23
HETATM   23  C   UNL     1      41.509 -11.930   1.999  1.00  0.00     0.255 C 
BRANCH  23  24
HETATM   24  N   UNL     1      42.127 -11.052   0.935  1.00  0.00    -0.066 N 
HETATM   25  H   UNL     1      43.052 -10.709   1.265  1.00  0.00     0.280 HD
HETATM   26  C   UNL     1      42.340 -11.743  -0.404  1.00  0.00     0.261 C 
HETATM   27  C   UNL     1      42.952 -10.762  -1.411  1.00  0.00     0.195 C 
HETATM   28  O   UNL     1      42.112  -9.613  -1.573  1.00  0.00    -0.388 OA
HETATM   29  C   UNL     1      41.971  -8.897  -0.341  1.00  0.00     0.195 C 
HETATM   30  C   UNL     1      41.310  -9.773   0.729  1.00  0.00     0.261 C 
ENDBRANCH  23  24
ENDBRANCH  22  23
ENDBRANCH   1  22
BRANCH   2  31
HETATM   31  C   UNL     1      40.157 -14.783   0.542  1.00  0.00     0.115 A 
HETATM   32  S   UNL     1      38.939 -13.701   0.042  1.00  0.00     0.019 SA
HETATM   33  N   UNL     1      39.233 -13.841  -1.581  1.00  0.00    -0.203 NA
HETATM   34  C   UNL     1      40.313 -14.617  -1.770  1.00  0.00     0.155 A 
HETATM   35  C   UNL     1      40.890 -15.165  -0.559  1.00  0.00     0.065 A 
BRANCH  34  36
HETATM   36  C   UNL     1      40.822 -14.851  -3.132  1.00  0.00     0.270 C 
HETATM   37  N   UNL     1      42.127 -14.503  -3.340  1.00  0.00    -0.365 N 
HETATM   38  H   UNL     1      42.695 -14.180  -2.565  1.00  0.00     0.159 HD
HETATM   39  H   UNL     1      42.558 -14.698  -4.232  1.00  0.00     0.159 HD
HETATM   40  O   UNL     1      40.132 -15.323  -4.032  1.00  0.00    -0.266 OA
ENDBRANCH  34  36
BRANCH  35  41
HETATM   41  N   UNL     1      41.993 -15.967  -0.507  1.00  0.00    -0.299 NA
HETATM   42  H   UNL     1      42.363 -16.152   0.437  1.00  0.00     0.124 HD
HETATM   43  H   UNL     1      41.963 -16.850  -1.021  1.00  0.00     0.124 HD
ENDBRANCH  35  41
ENDBRANCH   2  31
TORSDOF 11
ENDMDL
MODEL 4
REMARK VINA RESULT:      -7.2      2.802      7.238
REMARK  11 active torsions:
REMARK  status: ('A' for Active; 'I' for Inactive)
REMARK    1  A    between atoms: O_2  and  C_3 
REMARK    2  A    between atoms: C_6  and  C_7 
REMARK    3  A    between atoms: C_7  and  N_8 
REMARK    4  A    between atoms: C_7  and  C_29 
REMARK       I    between atoms: N_8  and  C_9 
REMARK    5  A    between atoms: N_8  and  C_20 
REMARK    6  A    between atoms: C_9  and  C_10 
REMARK    7  A    between atoms: C_13  and  C_14 
REMARK       I    between atoms: C_14  and  N_15 
REMARK    8  A    between atoms: C_17  and  N_18 
REMARK    9  A    between atoms: C_20  and  C_21 
REMARK   10  A    between atoms: C_21  and  N_22 
REMARK       I    between atoms: C_29  and  N_30 
REMARK   11  A    between atoms: N_30  and  C_31 
ROOT
HETATM    1  N   UNL     1      40.738 -13.543   0.801  1.00  0.00    -0.328 N 
HETATM    2  C   UNL     1      40.612 -12.842  -0.412  1.00  0.00     0.265 C 
HETATM    3  O   UNL     1      40.727 -11.618  -0.445  1.00  0.00    -0.267 OA
ENDROOT
BRANCH   1   4
HETATM    4  C   UNL     1      40.956 -12.752   2.029  1.00  0.00     0.213 C 
BRANCH   4   5
HETATM    5  C   UNL     1      41.678 -13.420   3.187  1.00  0.00    -0.026 A 
HETATM    6  C   UNL     1      43.075 -13.466   3.287  1.00  0.00     0.012 A 
HETATM    7  C   UNL     1      43.695 -13.965   4.438  1.00  0.00     0.037 A 
HETATM    8  C   UNL     1      42.939 -14.400   5.525  1.00  0.00     0.068 A 
HETATM    9  C   UNL     1      41.550 -14.380   5.437  1.00  0.00     0.037 A 
HETATM   10  C   UNL     1      40.927 -13.891   4.283  1.00  0.00     0.012 A 
BRANCH   8  11
HETATM   11  O   UNL     1      43.664 -14.821   6.603  1.00  0.00    -0.356 OA
HETATM   12  C   UNL     1      43.994 -16.206   6.642  1.00  0.00     0.210 C 
ENDBRANCH   8  11
ENDBRANCH   4   5
BRANCH   4  13
HETATM   13  C   UNL     1      39.666 -11.958   2.334  1.00  0.00     0.245 C 
HETATM   14  N   UNL     1      39.798 -10.621   2.593  1.00  0.00    -0.354 N 
HETATM   15  H   UNL     1      40.739 -10.325   2.855  1.00  0.00     0.162 HD
HETATM   16  O   UNL     1      38.608 -12.589   2.441  1.00  0.00    -0.271 OA
BRANCH  14  17
HETATM   17  C   UNL     1      38.733  -9.686   2.942  1.00  0.00     0.084 C 
HETATM   18  C   UNL     1      38.238  -9.825   4.384  1.00  0.00     0.025 C 
HETATM   19  C   UNL     1      38.571  -8.515   5.096  1.00  0.00     0.002 C 
HETATM   20  C   UNL     1      39.462  -7.717   4.156  1.00  0.00     0.002 C 
HETATM   21  C   UNL     1      39.108  -8.216   2.766  1.00  0.00     0.025 C 
ENDBRANCH  14  17
ENDBRANCH   4  13
ENDBRANCH   1   4
BRANCH   1  22
HETATM   22  C   UNL     1      40.643 -15.010   0.935  1.00  0.00     0.155 C 
BRANCH  22  23
HETATM   23  C   UNL     1      41.914 -15.802   0.548  1.00  0.00     0.255 C 
BRANCH  23  24
HETATM   24  N   UNL     1      42.534 -16.580   1.687  1.00  0.00    -0.066 N 
HETATM   25  H   UNL     1      43.185 -15.961   2.212  1.00  0.00     0.280 HD
HETATM   26  C   UNL     1      41.531 -17.148   2.680  1.00  0.00     0.261 C 
HETATM   27  C   UNL     1      42.262 -17.929   3.778  1.00  0.00     0.195 C 
HETATM   28  O   UNL     1      43.050 -18.982   3.210  1.00  0.00    -0.388 OA
HETATM   29  C   UNL     1      44.060 -18.461   2.340  1.00  0.00     0.195 C 
HETATM   30  C   UNL     1      43.432 -17.704   1.164  1.00  0.00     0.261 C 
ENDBRANCH  23  24
ENDBRANCH  22  23
ENDBRANCH   1  22
BRANCH   2  31
HETATM   31  C   UNL     1      40.369 -13.604  -1.606  1.00  0.00     0.115 A 
HETATM   32  S   UNL     1      41.650 -13.920  -2.684  1.00  0.00     0.019 SA
HETATM   33  N   UNL     1      40.736 -14.706  -3.819  1.00  0.00    -0.203 NA
HETATM   34  C   UNL     1      39.479 -14.836  -3.363  1.00  0.00     0.155 A 
HETATM   35  C   UNL     1      39.233 -14.228  -2.071  1.00  0.00     0.065 A 
BRANCH  34  36
HETATM   36  C   UNL     1      38.476 -15.558  -4.164  1.00  0.00     0.270 C 
HETATM   37  N   UNL     1      38.952 -16.616  -4.887  1.00  0.00    -0.365 N 
HETATM   38  H   UNL     1      39.921 -16.899  -4.793  1.00  0.00     0.159 HD
HETATM   39  H   UNL     1      38.307 -17.193  -5.407  1.00  0.00     0.159 HD
HETATM   40  O   UNL     1      37.290 -15.241  -4.194  1.00  0.00    -0.266 OA
ENDBRANCH  34  36
BRANCH  35  41
HETATM   41  N   UNL     1      38.040 -14.246  -1.408  1.00  0.00    -0.299 NA
HETATM   42  H   UNL     1      37.205 -14.091  -1.992  1.00  0.00     0.124 HD
HETATM   43  H   UNL     1      37.856 -15.035  -0.784  1.00  0.00     0.124 HD
ENDBRANCH  35  41
ENDBRANCH   2  31
TORSDOF 11
ENDMDL
MODEL 5
REMARK VINA RESULT:      -7.1      1.895      2.607
REMARK  11 active torsions:
REMARK  status: ('A' for Active; 'I' for Inactive)
REMARK    1  A    between atoms: O_2  and  C_3 
REMARK    2  A    between atoms: C_6  and  C_7 
REMARK    3  A    between atoms: C_7  and  N_8 
REMARK    4  A    between atoms: C_7  and  C_29 
REMARK       I    between atoms: N_8  and  C_9 
REMARK    5  A    between atoms: N_8  and  C_20 
REMARK    6  A    between atoms: C_9  and  C_10 
REMARK    7  A    between atoms: C_13  and  C_14 
REMARK       I    between atoms: C_14  and  N_15 
REMARK    8  A    between atoms: C_17  and  N_18 
REMARK    9  A    between atoms: C_20  and  C_21 
REMARK   10  A    between atoms: C_21  and  N_22 
REMARK       I    between atoms: C_29  and  N_30 
REMARK   11  A    between atoms: N_30  and  C_31 
ROOT
HETATM    1  N   UNL     1      41.383 -14.702   2.468  1.00  0.00    -0.328 N 
HETATM    2  C   UNL     1      40.139 -14.168   2.856  1.00  0.00     0.265 C 
HETATM    3  O   UNL     1      39.101 -14.535   2.310  1.00  0.00    -0.267 OA
ENDROOT
BRANCH   1   4
HETATM    4  C   UNL     1      41.393 -15.667   1.350  1.00  0.00     0.213 C 
BRANCH   4   5
HETATM    5  C   UNL     1      42.272 -16.900   1.483  1.00  0.00    -0.026 A 
HETATM    6  C   UNL     1      43.672 -16.835   1.513  1.00  0.00     0.012 A 
HETATM    7  C   UNL     1      44.436 -17.976   1.779  1.00  0.00     0.037 A 
HETATM    8  C   UNL     1      43.824 -19.199   2.051  1.00  0.00     0.068 A 
HETATM    9  C   UNL     1      42.436 -19.287   2.008  1.00  0.00     0.037 A 
HETATM   10  C   UNL     1      41.669 -18.149   1.732  1.00  0.00     0.012 A 
BRANCH   8  11
HETATM   11  O   UNL     1      44.680 -20.223   2.340  1.00  0.00    -0.356 OA
HETATM   12  C   UNL     1      44.908 -20.486   3.720  1.00  0.00     0.210 C 
ENDBRANCH   8  11
ENDBRANCH   4   5
BRANCH   4  13
HETATM   13  C   UNL     1      41.441 -14.877   0.023  1.00  0.00     0.245 C 
HETATM   14  N   UNL     1      41.478 -13.512   0.106  1.00  0.00    -0.354 N 
HETATM   15  H   UNL     1      41.174 -13.128   1.001  1.00  0.00     0.162 HD
HETATM   16  O   UNL     1      41.327 -15.510  -1.034  1.00  0.00    -0.271 OA
BRANCH  14  17
HETATM   17  C   UNL     1      41.486 -12.566  -1.005  1.00  0.00     0.084 C 
HETATM   18  C   UNL     1      40.491 -11.413  -0.843  1.00  0.00     0.025 C 
HETATM   19  C   UNL     1      41.312 -10.128  -0.749  1.00  0.00     0.002 C 
HETATM   20  C   UNL     1      42.769 -10.544  -0.614  1.00  0.00     0.002 C 
HETATM   21  C   UNL     1      42.844 -11.916  -1.264  1.00  0.00     0.025 C 
ENDBRANCH  14  17
ENDBRANCH   4  13
ENDBRANCH   1   4
BRANCH   1  22
HETATM   22  C   UNL     1      42.677 -14.344   3.081  1.00  0.00     0.155 C 
BRANCH  22  23
HETATM   23  C   UNL     1      42.794 -14.611   4.600  1.00  0.00     0.255 C 
BRANCH  23  24
HETATM   24  N   UNL     1      43.209 -16.021   4.955  1.00  0.00    -0.066 N 
HETATM   25  H   UNL     1      43.713 -16.445   4.149  1.00  0.00     0.280 HD
HETATM   26  C   UNL     1      44.116 -16.121   6.172  1.00  0.00     0.261 C 
HETATM   27  C   UNL     1      44.460 -17.589   6.453  1.00  0.00     0.195 C 
HETATM   28  O   UNL     1      43.269 -18.358   6.655  1.00  0.00    -0.388 OA
HETATM   29  C   UNL     1      42.442 -18.350   5.487  1.00  0.00     0.195 C 
HETATM   30  C   UNL     1      41.989 -16.925   5.147  1.00  0.00     0.261 C 
ENDBRANCH  23  24
ENDBRANCH  22  23
ENDBRANCH   1  22
BRANCH   2  31
HETATM   31  C   UNL     1      40.127 -13.205   3.922  1.00  0.00     0.115 A 
HETATM   32  S   UNL     1      40.469 -11.570   3.589  1.00  0.00     0.019 SA
HETATM   33  N   UNL     1      40.388 -11.049   5.159  1.00  0.00    -0.203 NA
HETATM   34  C   UNL     1      40.002 -12.068   5.944  1.00  0.00     0.155 A 
HETATM   35  C   UNL     1      39.819 -13.332   5.258  1.00  0.00     0.065 A 
BRANCH  34  36
HETATM   36  C   UNL     1      39.795 -11.850   7.386  1.00  0.00     0.270 C 
HETATM   37  N   UNL     1      40.797 -11.177   8.028  1.00  0.00    -0.365 N 
HETATM   38  H   UNL     1      41.578 -10.806   7.499  1.00  0.00     0.159 HD
HETATM   39  H   UNL     1      40.690 -10.937   9.003  1.00  0.00     0.159 HD
HETATM   40  O   UNL     1      38.797 -12.241   7.985  1.00  0.00    -0.266 OA
ENDBRANCH  34  36
BRANCH  35  41
HETATM   41  N   UNL     1      39.419 -14.495   5.848  1.00  0.00    -0.299 NA
HETATM   42  H   UNL     1      39.210 -14.434   6.855  1.00  0.00     0.124 HD
HETATM   43  H   UNL     1      38.671 -15.024   5.394  1.00  0.00     0.124 HD
ENDBRANCH  35  41
ENDBRANCH   2  31
TORSDOF 11
ENDMDL
MODEL 6
REMARK VINA RESULT:      -7.0      1.574      4.677
REMARK  11 active torsions:
REMARK  status: ('A' for Active; 'I' for Inactive)
REMARK    1  A    between atoms: O_2  and  C_3 
REMARK    2  A    between atoms: C_6  and  C_7 
REMARK    3  A    between atoms: C_7  and  N_8 
REMARK    4  A    between atoms: C_7  and  C_29 
REMARK       I    between atoms: N_8  and  C_9 
REMARK    5  A    between atoms: N_8  and  C_20 
REMARK    6  A    between atoms: C_9  and  C_10 
REMARK    7  A    between atoms: C_13  and  C_14 
REMARK       I    between atoms: C_14  and  N_15 
REMARK    8  A    between atoms: C_17  and  N_18 
REMARK    9  A    between atoms: C_20  and  C_21 
REMARK   10  A    between atoms: C_21  and  N_22 
REMARK       I    between atoms: C_29  and  N_30 
REMARK   11  A    between atoms: N_30  and  C_31 
ROOT
HETATM    1  N   UNL     1      41.467 -14.178   2.728  1.00  0.00    -0.328 N 
HETATM    2  C   UNL     1      40.163 -14.016   3.231  1.00  0.00     0.265 C 
HETATM    3  O   UNL     1      39.256 -14.768   2.881  1.00  0.00    -0.267 OA
ENDROOT
BRANCH   1   4
HETATM    4  C   UNL     1      41.686 -15.244   1.729  1.00  0.00     0.213 C 
BRANCH   4   5
HETATM    5  C   UNL     1      41.067 -15.068   0.352  1.00  0.00    -0.026 A 
HETATM    6  C   UNL     1      40.416 -13.891  -0.043  1.00  0.00     0.012 A 
HETATM    7  C   UNL     1      39.987 -13.719  -1.363  1.00  0.00     0.037 A 
HETATM    8  C   UNL     1      40.223 -14.700  -2.325  1.00  0.00     0.068 A 
HETATM    9  C   UNL     1      40.851 -15.883  -1.947  1.00  0.00     0.037 A 
HETATM   10  C   UNL     1      41.273 -16.062  -0.625  1.00  0.00     0.012 A 
BRANCH   8  11
HETATM   11  O   UNL     1      39.795 -14.389  -3.584  1.00  0.00    -0.356 OA
HETATM   12  C   UNL     1      38.776 -15.221  -4.128  1.00  0.00     0.210 C 
ENDBRANCH   8  11
ENDBRANCH   4   5
BRANCH   4  13
HETATM   13  C   UNL     1      41.525 -16.611   2.431  1.00  0.00     0.245 C 
HETATM   14  N   UNL     1      42.615 -17.439   2.451  1.00  0.00    -0.354 N 
HETATM   15  H   UNL     1      43.332 -17.221   1.759  1.00  0.00     0.162 HD
HETATM   16  O   UNL     1      40.399 -16.930   2.831  1.00  0.00    -0.271 OA
BRANCH  14  17
HETATM   17  C   UNL     1      42.686 -18.782   3.017  1.00  0.00     0.084 C 
HETATM   18  C   UNL     1      43.238 -19.832   2.050  1.00  0.00     0.025 C 
HETATM   19  C   UNL     1      44.547 -20.343   2.649  1.00  0.00     0.002 C 
HETATM   20  C   UNL     1      44.878 -19.435   3.824  1.00  0.00     0.002 C 
HETATM   21  C   UNL     1      43.538 -18.885   4.281  1.00  0.00     0.025 C 
ENDBRANCH  14  17
ENDBRANCH   4  13
ENDBRANCH   1   4
BRANCH   1  22
HETATM   22  C   UNL     1      42.622 -13.343   3.108  1.00  0.00     0.155 C 
BRANCH  22  23
HETATM   23  C   UNL     1      43.782 -14.085   3.814  1.00  0.00     0.255 C 
BRANCH  23  24
HETATM   24  N   UNL     1      43.531 -14.389   5.273  1.00  0.00    -0.066 N 
HETATM   25  H   UNL     1      42.674 -13.888   5.588  1.00  0.00     0.280 HD
HETATM   26  C   UNL     1      43.344 -15.866   5.585  1.00  0.00     0.261 C 
HETATM   27  C   UNL     1      43.115 -16.063   7.087  1.00  0.00     0.195 C 
HETATM   28  O   UNL     1      44.211 -15.531   7.840  1.00  0.00    -0.388 OA
HETATM   29  C   UNL     1      44.348 -14.122   7.630  1.00  0.00     0.195 C 
HETATM   30  C   UNL     1      44.640 -13.813   6.157  1.00  0.00     0.261 C 
ENDBRANCH  23  24
ENDBRANCH  22  23
ENDBRANCH   1  22
BRANCH   2  31
HETATM   31  C   UNL     1      39.937 -12.960   4.180  1.00  0.00     0.115 A 
HETATM   32  S   UNL     1      39.409 -11.433   3.637  1.00  0.00     0.019 SA
HETATM   33  N   UNL     1      39.436 -10.700   5.121  1.00  0.00    -0.203 NA
HETATM   34  C   UNL     1      39.740 -11.611   6.061  1.00  0.00     0.155 A 
HETATM   35  C   UNL     1      40.016 -12.940   5.554  1.00  0.00     0.065 A 
BRANCH  34  36
HETATM   36  C   UNL     1      39.769 -11.223   7.481  1.00  0.00     0.270 C 
HETATM   37  N   UNL     1      40.940 -11.481   8.137  1.00  0.00    -0.365 N 
HETATM   38  H   UNL     1      41.737 -11.847   7.627  1.00  0.00     0.159 HD
HETATM   39  H   UNL     1      41.051 -11.181   9.094  1.00  0.00     0.159 HD
HETATM   40  O   UNL     1      38.814 -10.704   8.052  1.00  0.00    -0.266 OA
ENDBRANCH  34  36
BRANCH  35  41
HETATM   41  N   UNL     1      40.332 -14.024   6.321  1.00  0.00    -0.299 NA
HETATM   42  H   UNL     1      41.119 -13.892   6.973  1.00  0.00     0.124 HD
HETATM   43  H   UNL     1      39.571 -14.488   6.823  1.00  0.00     0.124 HD
ENDBRANCH  35  41
ENDBRANCH   2  31
TORSDOF 11
ENDMDL
MODEL 7
REMARK VINA RESULT:      -7.0      2.524      7.533
REMARK  11 active torsions:
REMARK  status: ('A' for Active; 'I' for Inactive)
REMARK    1  A    between atoms: O_2  and  C_3 
REMARK    2  A    between atoms: C_6  and  C_7 
REMARK    3  A    between atoms: C_7  and  N_8 
REMARK    4  A    between atoms: C_7  and  C_29 
REMARK       I    between atoms: N_8  and  C_9 
REMARK    5  A    between atoms: N_8  and  C_20 
REMARK    6  A    between atoms: C_9  and  C_10 
REMARK    7  A    between atoms: C_13  and  C_14 
REMARK       I    between atoms: C_14  and  N_15 
REMARK    8  A    between atoms: C_17  and  N_18 
REMARK    9  A    between atoms: C_20  and  C_21 
REMARK   10  A    between atoms: C_21  and  N_22 
REMARK       I    between atoms: C_29  and  N_30 
REMARK   11  A    between atoms: N_30  and  C_31 
ROOT
HETATM    1  N   UNL     1      40.849 -13.917   2.342  1.00  0.00    -0.328 N 
HETATM    2  C   UNL     1      39.880 -14.647   1.627  1.00  0.00     0.265 C 
HETATM    3  O   UNL     1      39.258 -15.560   2.165  1.00  0.00    -0.267 OA
ENDROOT
BRANCH   1   4
HETATM    4  C   UNL     1      41.124 -14.329   3.733  1.00  0.00     0.213 C 
BRANCH   4   5
HETATM    5  C   UNL     1      40.785 -13.349   4.845  1.00  0.00    -0.026 A 
HETATM    6  C   UNL     1      39.552 -13.351   5.509  1.00  0.00     0.012 A 
HETATM    7  C   UNL     1      39.334 -12.528   6.619  1.00  0.00     0.037 A 
HETATM    8  C   UNL     1      40.349 -11.708   7.110  1.00  0.00     0.068 A 
HETATM    9  C   UNL     1      41.575 -11.679   6.453  1.00  0.00     0.037 A 
HETATM   10  C   UNL     1      41.792 -12.494   5.336  1.00  0.00     0.012 A 
BRANCH   8  11
HETATM   11  O   UNL     1      40.023 -10.989   8.225  1.00  0.00    -0.356 OA
HETATM   12  C   UNL     1      41.111 -10.509   9.008  1.00  0.00     0.210 C 
ENDBRANCH   8  11
ENDBRANCH   4   5
BRANCH   4  13
HETATM   13  C   UNL     1      42.502 -15.027   3.772  1.00  0.00     0.245 C 
HETATM   14  N   UNL     1      42.637 -16.189   3.061  1.00  0.00    -0.354 N 
HETATM   15  H   UNL     1      41.758 -16.647   2.816  1.00  0.00     0.162 HD
HETATM   16  O   UNL     1      43.366 -14.568   4.528  1.00  0.00    -0.271 OA
BRANCH  14  17
HETATM   17  C   UNL     1      43.822 -17.036   2.982  1.00  0.00     0.084 C 
HETATM   18  C   UNL     1      43.790 -18.234   3.936  1.00  0.00     0.025 C 
HETATM   19  C   UNL     1      43.776 -19.492   3.069  1.00  0.00     0.002 C 
HETATM   20  C   UNL     1      43.559 -19.036   1.634  1.00  0.00     0.002 C 
HETATM   21  C   UNL     1      44.089 -17.613   1.593  1.00  0.00     0.025 C 
ENDBRANCH  14  17
ENDBRANCH   4  13
ENDBRANCH   1   4
BRANCH   1  22
HETATM   22  C   UNL     1      41.624 -12.790   1.790  1.00  0.00     0.155 C 
BRANCH  22  23
HETATM   23  C   UNL     1      40.827 -11.488   1.537  1.00  0.00     0.255 C 
BRANCH  23  24
HETATM   24  N   UNL     1      40.179 -10.904   2.772  1.00  0.00    -0.066 N 
HETATM   25  H   UNL     1      40.315 -11.554   3.573  1.00  0.00     0.280 HD
HETATM   26  C   UNL     1      40.723  -9.544   3.183  1.00  0.00     0.261 C 
HETATM   27  C   UNL     1      39.987  -9.037   4.429  1.00  0.00     0.195 C 
HETATM   28  O   UNL     1      38.578  -8.957   4.187  1.00  0.00    -0.388 OA
HETATM   29  C   UNL     1      38.030 -10.245   3.886  1.00  0.00     0.195 C 
HETATM   30  C   UNL     1      38.659 -10.824   2.613  1.00  0.00     0.261 C 
ENDBRANCH  23  24
ENDBRANCH  22  23
ENDBRANCH   1  22
BRANCH   2  31
HETATM   31  C   UNL     1      39.629 -14.271   0.263  1.00  0.00     0.115 A 
HETATM   32  S   UNL     1      38.198 -13.437  -0.136  1.00  0.00     0.019 SA
HETATM   33  N   UNL     1      38.467 -13.395  -1.769  1.00  0.00    -0.203 NA
HETATM   34  C   UNL     1      39.679 -13.912  -2.032  1.00  0.00     0.155 A 
HETATM   35  C   UNL     1      40.393 -14.411  -0.874  1.00  0.00     0.065 A 
BRANCH  34  36
HETATM   36  C   UNL     1      40.185 -13.936  -3.415  1.00  0.00     0.270 C 
HETATM   37  N   UNL     1      40.115 -12.748  -4.087  1.00  0.00    -0.365 N 
HETATM   38  H   UNL     1      39.799 -11.912  -3.608  1.00  0.00     0.159 HD
HETATM   39  H   UNL     1      40.504 -12.679  -5.016  1.00  0.00     0.159 HD
HETATM   40  O   UNL     1      40.639 -14.948  -3.943  1.00  0.00    -0.266 OA
ENDBRANCH  34  36
BRANCH  35  41
HETATM   41  N   UNL     1      41.640 -14.964  -0.898  1.00  0.00    -0.299 NA
HETATM   42  H   UNL     1      41.927 -15.373  -1.800  1.00  0.00     0.124 HD
HETATM   43  H   UNL     1      42.415 -14.403  -0.536  1.00  0.00     0.124 HD
ENDBRANCH  35  41
ENDBRANCH   2  31
TORSDOF 11
ENDMDL
MODEL 8
REMARK VINA RESULT:      -7.0      2.591      6.303
REMARK  11 active torsions:
REMARK  status: ('A' for Active; 'I' for Inactive)
REMARK    1  A    between atoms: O_2  and  C_3 
REMARK    2  A    between atoms: C_6  and  C_7 
REMARK    3  A    between atoms: C_7  and  N_8 
REMARK    4  A    between atoms: C_7  and  C_29 
REMARK       I    between atoms: N_8  and  C_9 
REMARK    5  A    between atoms: N_8  and  C_20 
REMARK    6  A    between atoms: C_9  and  C_10 
REMARK    7  A    between atoms: C_13  and  C_14 
REMARK       I    between atoms: C_14  and  N_15 
REMARK    8  A    between atoms: C_17  and  N_18 
REMARK    9  A    between atoms: C_20  and  C_21 
REMARK   10  A    between atoms: C_21  and  N_22 
REMARK       I    between atoms: C_29  and  N_30 
REMARK   11  A    between atoms: N_30  and  C_31 
ROOT
HETATM    1  N   UNL     1      40.975 -13.656   2.945  1.00  0.00    -0.328 N 
HETATM    2  C   UNL     1      41.777 -13.197   4.007  1.00  0.00     0.265 C 
HETATM    3  O   UNL     1      42.971 -13.486   4.063  1.00  0.00    -0.267 OA
ENDROOT
BRANCH   1   4
HETATM    4  C   UNL     1      41.608 -14.537   1.942  1.00  0.00     0.213 C 
BRANCH   4   5
HETATM    5  C   UNL     1      41.495 -14.143   0.479  1.00  0.00    -0.026 A 
HETATM    6  C   UNL     1      42.022 -12.949  -0.030  1.00  0.00     0.012 A 
HETATM    7  C   UNL     1      42.021 -12.693  -1.405  1.00  0.00     0.037 A 
HETATM    8  C   UNL     1      41.524 -13.633  -2.306  1.00  0.00     0.068 A 
HETATM    9  C   UNL     1      40.980 -14.817  -1.819  1.00  0.00     0.037 A 
HETATM   10  C   UNL     1      40.970 -15.071  -0.443  1.00  0.00     0.012 A 
BRANCH   8  11
HETATM   11  O   UNL     1      41.622 -13.282  -3.622  1.00  0.00    -0.356 OA
HETATM   12  C   UNL     1      41.312 -11.929  -3.940  1.00  0.00     0.210 C 
ENDBRANCH   8  11
ENDBRANCH   4   5
BRANCH   4  13
HETATM   13  C   UNL     1      41.316 -16.004   2.328  1.00  0.00     0.245 C 
HETATM   14  N   UNL     1      42.392 -16.817   2.566  1.00  0.00    -0.354 N 
HETATM   15  H   UNL     1      43.277 -16.479   2.186  1.00  0.00     0.162 HD
HETATM   16  O   UNL     1      40.143 -16.393   2.288  1.00  0.00    -0.271 OA
BRANCH  14  17
HETATM   17  C   UNL     1      42.361 -18.236   2.903  1.00  0.00     0.084 C 
HETATM   18  C   UNL     1      43.175 -19.115   1.950  1.00  0.00     0.025 C 
HETATM   19  C   UNL     1      44.305 -19.732   2.772  1.00  0.00     0.002 C 
HETATM   20  C   UNL     1      44.297 -19.037   4.125  1.00  0.00     0.002 C 
HETATM   21  C   UNL     1      42.867 -18.557   4.308  1.00  0.00     0.025 C 
ENDBRANCH  14  17
ENDBRANCH   4  13
ENDBRANCH   1   4
BRANCH   1  22
HETATM   22  C   UNL     1      39.543 -13.341   2.779  1.00  0.00     0.155 C 
BRANCH  22  23
HETATM   23  C   UNL     1      39.223 -12.149   1.847  1.00  0.00     0.255 C 
BRANCH  23  24
HETATM   24  N   UNL     1      37.911 -11.460   2.142  1.00  0.00    -0.066 N 
HETATM   25  H   UNL     1      37.349 -12.051   2.790  1.00  0.00     0.280 HD
HETATM   26  C   UNL     1      38.051 -10.084   2.776  1.00  0.00     0.261 C 
HETATM   27  C   UNL     1      36.667  -9.470   3.015  1.00  0.00     0.195 C 
HETATM   28  O   UNL     1      35.934  -9.381   1.788  1.00  0.00    -0.388 OA
HETATM   29  C   UNL     1      35.713 -10.676   1.221  1.00  0.00     0.195 C 
HETATM   30  C   UNL     1      37.042 -11.362   0.885  1.00  0.00     0.261 C 
ENDBRANCH  23  24
ENDBRANCH  22  23
ENDBRANCH   1  22
BRANCH   2  31
HETATM   31  C   UNL     1      41.159 -12.366   5.003  1.00  0.00     0.115 A 
HETATM   32  S   UNL     1      41.156 -10.673   4.808  1.00  0.00     0.019 SA
HETATM   33  N   UNL     1      40.422 -10.330   6.252  1.00  0.00    -0.203 NA
HETATM   34  C   UNL     1      40.076 -11.479   6.857  1.00  0.00     0.155 A 
HETATM   35  C   UNL     1      40.467 -12.682   6.150  1.00  0.00     0.065 A 
BRANCH  34  36
HETATM   36  C   UNL     1      39.350 -11.447   8.138  1.00  0.00     0.270 C 
HETATM   37  N   UNL     1      38.812 -12.638   8.539  1.00  0.00    -0.365 N 
HETATM   38  H   UNL     1      38.987 -13.479   8.001  1.00  0.00     0.159 HD
HETATM   39  H   UNL     1      38.358 -12.701   9.438  1.00  0.00     0.159 HD
HETATM   40  O   UNL     1      39.225 -10.426   8.810  1.00  0.00    -0.266 OA
ENDBRANCH  34  36
BRANCH  35  41
HETATM   41  N   UNL     1      40.210 -13.956   6.566  1.00  0.00    -0.299 NA
HETATM   42  H   UNL     1      39.216 -14.226   6.581  1.00  0.00     0.124 HD
HETATM   43  H   UNL     1      40.744 -14.713   6.132  1.00  0.00     0.124 HD
ENDBRANCH  35  41
ENDBRANCH   2  31
TORSDOF 11
ENDMDL
MODEL 9
REMARK VINA RESULT:      -7.0      2.716      8.050
REMARK  11 active torsions:
REMARK  status: ('A' for Active; 'I' for Inactive)
REMARK    1  A    between atoms: O_2  and  C_3 
REMARK    2  A    between atoms: C_6  and  C_7 
REMARK    3  A    between atoms: C_7  and  N_8 
REMARK    4  A    between atoms: C_7  and  C_29 
REMARK       I    between atoms: N_8  and  C_9 
REMARK    5  A    between atoms: N_8  and  C_20 
REMARK    6  A    between atoms: C_9  and  C_10 
REMARK    7  A    between atoms: C_13  and  C_14 
REMARK       I    between atoms: C_14  and  N_15 
REMARK    8  A    between atoms: C_17  and  N_18 
REMARK    9  A    between atoms: C_20  and  C_21 
REMARK   10  A    between atoms: C_21  and  N_22 
REMARK       I    between atoms: C_29  and  N_30 
REMARK   11  A    between atoms: N_30  and  C_31 
ROOT
HETATM    1  N   UNL     1      40.995 -14.086   2.629  1.00  0.00    -0.328 N 
HETATM    2  C   UNL     1      42.092 -13.478   1.991  1.00  0.00     0.265 C 
HETATM    3  O   UNL     1      43.156 -13.320   2.586  1.00  0.00    -0.267 OA
ENDROOT
BRANCH   1   4
HETATM    4  C   UNL     1      41.156 -14.472   4.046  1.00  0.00     0.213 C 
BRANCH   4   5
HETATM    5  C   UNL     1      40.895 -13.414   5.105  1.00  0.00    -0.026 A 
HETATM    6  C   UNL     1      41.671 -12.254   5.228  1.00  0.00     0.012 A 
HETATM    7  C   UNL     1      41.310 -11.242   6.123  1.00  0.00     0.037 A 
HETATM    8  C   UNL     1      40.152 -11.347   6.891  1.00  0.00     0.068 A 
HETATM    9  C   UNL     1      39.378 -12.500   6.797  1.00  0.00     0.037 A 
HETATM   10  C   UNL     1      39.743 -13.519   5.910  1.00  0.00     0.012 A 
BRANCH   8  11
HETATM   11  O   UNL     1      39.888 -10.272   7.690  1.00  0.00    -0.356 OA
HETATM   12  C   UNL     1      40.321  -9.004   7.208  1.00  0.00     0.210 C 
ENDBRANCH   8  11
ENDBRANCH   4   5
BRANCH   4  13
HETATM   13  C   UNL     1      42.431 -15.335   4.175  1.00  0.00     0.245 C 
HETATM   14  N   UNL     1      42.675 -16.247   3.184  1.00  0.00    -0.354 N 
HETATM   15  H   UNL     1      41.864 -16.489   2.614  1.00  0.00     0.162 HD
HETATM   16  O   UNL     1      43.095 -15.238   5.213  1.00  0.00    -0.271 OA
BRANCH  14  17
HETATM   17  C   UNL     1      43.787 -17.190   3.115  1.00  0.00     0.084 C 
HETATM   18  C   UNL     1      43.548 -18.484   3.896  1.00  0.00     0.025 C 
HETATM   19  C   UNL     1      43.526 -19.621   2.875  1.00  0.00     0.002 C 
HETATM   20  C   UNL     1      43.509 -18.977   1.498  1.00  0.00     0.002 C 
HETATM   21  C   UNL     1      44.157 -17.617   1.696  1.00  0.00     0.025 C 
ENDBRANCH  14  17
ENDBRANCH   4  13
ENDBRANCH   1   4
BRANCH   1  22
HETATM   22  C   UNL     1      39.689 -14.342   1.989  1.00  0.00     0.155 C 
BRANCH  22  23
HETATM   23  C   UNL     1      38.642 -13.211   2.129  1.00  0.00     0.255 C 
BRANCH  23  24
HETATM   24  N   UNL     1      38.014 -12.779   0.824  1.00  0.00    -0.066 N 
HETATM   25  H   UNL     1      36.981 -12.889   0.886  1.00  0.00     0.280 HD
HETATM   26  C   UNL     1      38.304 -11.337   0.434  1.00  0.00     0.261 C 
HETATM   27  C   UNL     1      37.638 -11.011  -0.908  1.00  0.00     0.195 C 
HETATM   28  O   UNL     1      38.094 -11.904  -1.930  1.00  0.00    -0.388 OA
HETATM   29  C   UNL     1      37.751 -13.260  -1.624  1.00  0.00     0.195 C 
HETATM   30  C   UNL     1      38.418 -13.712  -0.320  1.00  0.00     0.261 C 
ENDBRANCH  23  24
ENDBRANCH  22  23
ENDBRANCH   1  22
BRANCH   2  31
HETATM   31  C   UNL     1      41.931 -13.073   0.622  1.00  0.00     0.115 A 
HETATM   32  S   UNL     1      41.869 -11.415   0.232  1.00  0.00     0.019 SA
HETATM   33  N   UNL     1      41.593 -11.625  -1.387  1.00  0.00    -0.203 NA
HETATM   34  C   UNL     1      41.646 -12.935  -1.680  1.00  0.00     0.155 A 
HETATM   35  C   UNL     1      41.862 -13.805  -0.542  1.00  0.00     0.065 A 
BRANCH  34  36
HETATM   36  C   UNL     1      41.491 -13.385  -3.073  1.00  0.00     0.270 C 
HETATM   37  N   UNL     1      42.338 -14.383  -3.466  1.00  0.00    -0.365 N 
HETATM   38  H   UNL     1      42.965 -14.810  -2.794  1.00  0.00     0.159 HD
HETATM   39  H   UNL     1      42.241 -14.783  -4.388  1.00  0.00     0.159 HD
HETATM   40  O   UNL     1      40.664 -12.904  -3.843  1.00  0.00    -0.266 OA
ENDBRANCH  34  36
BRANCH  35  41
HETATM   41  N   UNL     1      41.963 -15.165  -0.600  1.00  0.00    -0.299 NA
HETATM   42  H   UNL     1      41.462 -15.614  -1.381  1.00  0.00     0.124 HD
HETATM   43  H   UNL     1      42.899 -15.574  -0.539  1.00  0.00     0.124 HD
ENDBRANCH  35  41
ENDBRANCH   2  31
TORSDOF 11
ENDMDL
MODEL 10
REMARK VINA RESULT:      -7.0      2.247      6.914
REMARK  11 active torsions:
REMARK  status: ('A' for Active; 'I' for Inactive)
REMARK    1  A    between atoms: O_2  and  C_3 
REMARK    2  A    between atoms: C_6  and  C_7 
REMARK    3  A    between atoms: C_7  and  N_8 
REMARK    4  A    between atoms: C_7  and  C_29 
REMARK       I    between atoms: N_8  and  C_9 
REMARK    5  A    between atoms: N_8  and  C_20 
REMARK    6  A    between atoms: C_9  and  C_10 
REMARK    7  A    between atoms: C_13  and  C_14 
REMARK       I    between atoms: C_14  and  N_15 
REMARK    8  A    between atoms: C_17  and  N_18 
REMARK    9  A    between atoms: C_20  and  C_21 
REMARK   10  A    between atoms: C_21  and  N_22 
REMARK       I    between atoms: C_29  and  N_30 
REMARK   11  A    between atoms: N_30  and  C_31 
ROOT
HETATM    1  N   UNL     1      40.734 -13.848   2.617  1.00  0.00    -0.328 N 
HETATM    2  C   UNL     1      40.935 -13.107   1.438  1.00  0.00     0.265 C 
HETATM    3  O   UNL     1      41.676 -12.126   1.431  1.00  0.00    -0.267 OA
ENDROOT
BRANCH   1   4
HETATM    4  C   UNL     1      41.398 -13.370   3.847  1.00  0.00     0.213 C 
BRANCH   4   5
HETATM    5  C   UNL     1      41.684 -14.385   4.941  1.00  0.00    -0.026 A 
HETATM    6  C   UNL     1      40.685 -15.177   5.523  1.00  0.00     0.012 A 
HETATM    7  C   UNL     1      41.012 -16.195   6.424  1.00  0.00     0.037 A 
HETATM    8  C   UNL     1      42.342 -16.468   6.742  1.00  0.00     0.068 A 
HETATM    9  C   UNL     1      43.347 -15.681   6.189  1.00  0.00     0.037 A 
HETATM   10  C   UNL     1      43.021 -14.654   5.294  1.00  0.00     0.012 A 
BRANCH   8  11
HETATM   11  O   UNL     1      42.528 -17.516   7.597  1.00  0.00    -0.356 OA
HETATM   12  C   UNL     1      43.392 -18.554   7.146  1.00  0.00     0.210 C 
ENDBRANCH   8  11
ENDBRANCH   4   5
BRANCH   4  13
HETATM   13  C   UNL     1      40.763 -12.020   4.251  1.00  0.00     0.245 C 
HETATM   14  N   UNL     1      41.594 -10.936   4.334  1.00  0.00    -0.354 N 
HETATM   15  H   UNL     1      42.586 -11.160   4.415  1.00  0.00     0.162 HD
HETATM   16  O   UNL     1      39.574 -12.016   4.588  1.00  0.00    -0.271 OA
BRANCH  14  17
HETATM   17  C   UNL     1      41.229  -9.580   4.731  1.00  0.00     0.084 C 
HETATM   18  C   UNL     1      39.842  -9.147   4.249  1.00  0.00     0.025 C 
HETATM   19  C   UNL     1      38.990  -8.918   5.496  1.00  0.00     0.002 C 
HETATM   20  C   UNL     1      39.790  -9.441   6.679  1.00  0.00     0.002 C 
HETATM   21  C   UNL     1      41.241  -9.346   6.240  1.00  0.00     0.025 C 
ENDBRANCH  14  17
ENDBRANCH   4  13
ENDBRANCH   1   4
BRANCH   1  22
HETATM   22  C   UNL     1      39.886 -15.052   2.716  1.00  0.00     0.155 C 
BRANCH  22  23
HETATM   23  C   UNL     1      40.405 -16.300   1.962  1.00  0.00     0.255 C 
BRANCH  23  24
HETATM   24  N   UNL     1      41.849 -16.643   2.245  1.00  0.00    -0.066 N 
HETATM   25  H   UNL     1      42.340 -15.801   2.608  1.00  0.00     0.280 HD
HETATM   26  C   UNL     1      42.043 -17.764   3.256  1.00  0.00     0.261 C 
HETATM   27  C   UNL     1      43.537 -18.043   3.454  1.00  0.00     0.195 C 
HETATM   28  O   UNL     1      44.157 -18.384   2.209  1.00  0.00    -0.388 OA
HETATM   29  C   UNL     1      44.065 -17.306   1.271  1.00  0.00     0.195 C 
HETATM   30  C   UNL     1      42.601 -16.981   0.954  1.00  0.00     0.261 C 
ENDBRANCH  23  24
ENDBRANCH  22  23
ENDBRANCH   1  22
BRANCH   2  31
HETATM   31  C   UNL     1      40.267 -13.550   0.245  1.00  0.00     0.115 A 
HETATM   32  S   UNL     1      38.577 -13.379   0.110  1.00  0.00     0.019 SA
HETATM   33  N   UNL     1      38.443 -14.122  -1.364  1.00  0.00    -0.203 NA
HETATM   34  C   UNL     1      39.669 -14.417  -1.825  1.00  0.00     0.155 A 
HETATM   35  C   UNL     1      40.756 -14.079  -0.928  1.00  0.00     0.065 A 
BRANCH  34  36
HETATM   36  C   UNL     1      39.828 -15.033  -3.154  1.00  0.00     0.270 C 
HETATM   37  N   UNL     1      38.846 -15.913  -3.514  1.00  0.00    -0.365 N 
HETATM   38  H   UNL     1      38.041 -16.049  -2.913  1.00  0.00     0.159 HD
HETATM   39  H   UNL     1      38.859 -16.321  -4.438  1.00  0.00     0.159 HD
HETATM   40  O   UNL     1      40.774 -14.786  -3.896  1.00  0.00    -0.266 OA
ENDBRANCH  34  36
BRANCH  35  41
HETATM   41  N   UNL     1      42.081 -14.274  -1.189  1.00  0.00    -0.299 NA
HETATM   42  H   UNL     1      42.442 -13.796  -2.029  1.00  0.00     0.124 HD
HETATM   43  H   UNL     1      42.742 -14.127  -0.424  1.00  0.00     0.124 HD
ENDBRANCH  35  41
ENDBRANCH   2  31
TORSDOF 11
ENDMDL
