MODEL 1
REMARK VINA RESULT:      -9.2      0.000      0.000
REMARK  7 active torsions:
REMARK  status: ('A' for Active; 'I' for Inactive)
REMARK    1  A    between atoms: C_2  and  O_3 
REMARK    2  A    between atoms: O_3  and  C_4 
REMARK    3  A    between atoms: C_4  and  C_5 
REMARK    4  A    between atoms: C_8  and  N_9 
REMARK       I    between atoms: N_9  and  C_10 
REMARK    5  A    between atoms: C_10  and  C_11 
REMARK    6  A    between atoms: C_11  and  N_12 
REMARK    7  A    between atoms: C_18  and  C_19 
ROOT
HETATM    1  N   UNL     1      42.152 -12.487   5.040  1.00  0.00    -0.063 N 
HETATM    2  H   UNL     1      42.816 -11.793   4.671  1.00  0.00     0.280 HD
HETATM    3  C   UNL     1      42.947 -13.319   6.037  1.00  0.00     0.240 C 
HETATM    4  C   UNL     1      43.725 -14.447   5.394  1.00  0.00     0.083 C 
HETATM    5  C   UNL     1      42.856 -15.237   4.427  1.00  0.00     0.131 A 
HETATM    6  N   UNL     1      43.664 -16.328   3.832  1.00  0.00    -0.251 NA
HETATM    7  C   UNL     1      43.027 -17.446   4.070  1.00  0.00     0.132 A 
HETATM    8  C   UNL     1      41.759 -17.211   4.863  1.00  0.00     0.272 A 
HETATM    9  O   UNL     1      40.939 -18.017   5.225  1.00  0.00    -0.266 OA
HETATM   10  N   UNL     1      41.748 -15.869   5.069  1.00  0.00    -0.327 N 
HETATM   11  C   UNL     1      42.431 -14.303   3.301  1.00  0.00     0.083 C 
HETATM   12  C   UNL     1      41.563 -13.184   3.826  1.00  0.00     0.240 C 
HETATM   13  H   UNL     1      40.983 -15.437   5.588  1.00  0.00     0.165 HD
ENDROOT
BRANCH   1  14
HETATM   14  C   UNL     1      41.030 -11.677   5.773  1.00  0.00     0.337 C 
BRANCH  14  15
HETATM   15  C   UNL     1      41.390 -10.201   6.019  1.00  0.00     0.248 C 
HETATM   16  N   UNL     1      41.572  -9.677   7.256  1.00  0.00    -0.326 N 
HETATM   17  H   UNL     1      41.857  -8.701   7.187  1.00  0.00     0.169 HD
HETATM   18  O   UNL     1      41.570  -9.439   5.058  1.00  0.00    -0.271 OA
BRANCH  16  19
HETATM   19  C   UNL     1      41.512 -10.179   8.566  1.00  0.00     0.034 A 
HETATM   20  C   UNL     1      42.599 -10.558   9.352  1.00  0.00     0.030 A 
HETATM   21  C   UNL     1      42.395 -11.010  10.666  1.00  0.00     0.020 A 
HETATM   22  C   UNL     1      41.107 -11.094  11.209  1.00  0.00     0.039 A 
HETATM   23  C   UNL     1      40.016 -10.745  10.414  1.00  0.00     0.020 A 
HETATM   24  C   UNL     1      40.222 -10.297   9.106  1.00  0.00     0.030 A 
BRANCH  22  25
HETATM   25  C   UNL     1      40.954 -11.557  12.616  1.00  0.00     0.293 C 
HETATM   26  O   UNL     1      39.975 -12.169  13.011  1.00  0.00    -0.259 OA
BRANCH  25  27
HETATM   27  O   UNL     1      42.049 -11.224  13.339  1.00  0.00    -0.318 OA
BRANCH  27  28
HETATM   28  C   UNL     1      41.877 -10.176  14.305  1.00  0.00     0.174 C 
HETATM   29  C   UNL     1      43.068  -9.238  14.261  1.00  0.00     0.034 C 
ENDBRANCH  27  28
ENDBRANCH  25  27
ENDBRANCH  22  25
ENDBRANCH  16  19
ENDBRANCH  14  15
ENDBRANCH   1  14
BRANCH   7  30
HETATM   30  C   UNL     1      43.493 -18.772   3.610  1.00  0.00    -0.001 A 
HETATM   31  C   UNL     1      44.121 -19.685   4.462  1.00  0.00     0.037 A 
HETATM   32  C   UNL     1      44.529 -20.928   3.972  1.00  0.00     0.035 A 
HETATM   33 CL   UNL     1      45.298 -22.048   5.027  1.00  0.00    -0.084 Cl
HETATM   34  C   UNL     1      44.319 -21.271   2.639  1.00  0.00     0.024 A 
HETATM   35  C   UNL     1      43.698 -20.364   1.783  1.00  0.00     0.003 A 
HETATM   36  C   UNL     1      43.286 -19.120   2.266  1.00  0.00     0.014 A 
ENDBRANCH   7  30
TORSDOF 7
ENDMDL
MODEL 2
REMARK VINA RESULT:      -9.0      1.520      1.945
REMARK  7 active torsions:
REMARK  status: ('A' for Active; 'I' for Inactive)
REMARK    1  A    between atoms: C_2  and  O_3 
REMARK    2  A    between atoms: O_3  and  C_4 
REMARK    3  A    between atoms: C_4  and  C_5 
REMARK    4  A    between atoms: C_8  and  N_9 
REMARK       I    between atoms: N_9  and  C_10 
REMARK    5  A    between atoms: C_10  and  C_11 
REMARK    6  A    between atoms: C_11  and  N_12 
REMARK    7  A    between atoms: C_18  and  C_19 
ROOT
HETATM    1  N   UNL     1      41.419 -13.385   6.168  1.00  0.00    -0.063 N 
HETATM    2  H   UNL     1      41.199 -13.417   7.173  1.00  0.00     0.280 HD
HETATM    3  C   UNL     1      40.413 -14.314   5.503  1.00  0.00     0.240 C 
HETATM    4  C   UNL     1      40.833 -15.769   5.520  1.00  0.00     0.083 C 
HETATM    5  C   UNL     1      42.276 -15.932   5.066  1.00  0.00     0.131 A 
HETATM    6  N   UNL     1      42.632 -17.370   5.098  1.00  0.00    -0.251 NA
HETATM    7  C   UNL     1      43.057 -17.683   3.900  1.00  0.00     0.132 A 
HETATM    8  C   UNL     1      42.998 -16.500   2.958  1.00  0.00     0.272 A 
HETATM    9  O   UNL     1      43.333 -16.443   1.801  1.00  0.00    -0.266 OA
HETATM   10  N   UNL     1      42.485 -15.501   3.720  1.00  0.00    -0.327 N 
HETATM   11  C   UNL     1      43.171 -15.207   6.063  1.00  0.00     0.083 C 
HETATM   12  C   UNL     1      42.896 -13.722   6.057  1.00  0.00     0.240 C 
HETATM   13  H   UNL     1      42.341 -14.573   3.321  1.00  0.00     0.165 HD
ENDROOT
BRANCH   1  14
HETATM   14  C   UNL     1      41.185 -11.906   5.713  1.00  0.00     0.337 C 
BRANCH  14  15
HETATM   15  C   UNL     1      39.869 -11.298   6.230  1.00  0.00     0.248 C 
HETATM   16  N   UNL     1      39.715 -10.821   7.490  1.00  0.00    -0.326 N 
HETATM   17  H   UNL     1      38.788 -10.416   7.603  1.00  0.00     0.169 HD
HETATM   18  O   UNL     1      38.897 -11.185   5.469  1.00  0.00    -0.271 OA
BRANCH  16  19
HETATM   19  C   UNL     1      40.542 -10.717   8.620  1.00  0.00     0.034 A 
HETATM   20  C   UNL     1      41.863 -10.273   8.634  1.00  0.00     0.030 A 
HETATM   21  C   UNL     1      42.564 -10.183   9.848  1.00  0.00     0.020 A 
HETATM   22  C   UNL     1      41.959 -10.539  11.059  1.00  0.00     0.039 A 
HETATM   23  C   UNL     1      40.647 -11.014  11.044  1.00  0.00     0.020 A 
HETATM   24  C   UNL     1      39.953 -11.103   9.835  1.00  0.00     0.030 A 
BRANCH  22  25
HETATM   25  C   UNL     1      42.742 -10.400  12.317  1.00  0.00     0.293 C 
HETATM   26  O   UNL     1      43.918 -10.076  12.335  1.00  0.00    -0.259 OA
BRANCH  25  27
HETATM   27  O   UNL     1      41.954 -10.652  13.388  1.00  0.00    -0.318 OA
BRANCH  27  28
HETATM   28  C   UNL     1      41.546  -9.511  14.159  1.00  0.00     0.174 C 
HETATM   29  C   UNL     1      42.070  -9.637  15.577  1.00  0.00     0.034 C 
ENDBRANCH  27  28
ENDBRANCH  25  27
ENDBRANCH  22  25
ENDBRANCH  16  19
ENDBRANCH  14  15
ENDBRANCH   1  14
BRANCH   7  30
HETATM   30  C   UNL     1      43.539 -19.029   3.524  1.00  0.00    -0.001 A 
HETATM   31  C   UNL     1      44.210 -19.865   4.422  1.00  0.00     0.037 A 
HETATM   32  C   UNL     1      44.632 -21.132   4.010  1.00  0.00     0.035 A 
HETATM   33 CL   UNL     1      45.454 -22.157   5.122  1.00  0.00    -0.084 Cl
HETATM   34  C   UNL     1      44.396 -21.575   2.712  1.00  0.00     0.024 A 
HETATM   35  C   UNL     1      43.732 -20.745   1.811  1.00  0.00     0.003 A 
HETATM   36  C   UNL     1      43.306 -19.478   2.214  1.00  0.00     0.014 A 
ENDBRANCH   7  30
TORSDOF 7
ENDMDL
MODEL 3
REMARK VINA RESULT:      -8.8      3.554     10.281
REMARK  7 active torsions:
REMARK  status: ('A' for Active; 'I' for Inactive)
REMARK    1  A    between atoms: C_2  and  O_3 
REMARK    2  A    between atoms: O_3  and  C_4 
REMARK    3  A    between atoms: C_4  and  C_5 
REMARK    4  A    between atoms: C_8  and  N_9 
REMARK       I    between atoms: N_9  and  C_10 
REMARK    5  A    between atoms: C_10  and  C_11 
REMARK    6  A    between atoms: C_11  and  N_12 
REMARK    7  A    between atoms: C_18  and  C_19 
ROOT
HETATM    1  N   UNL     1      40.363 -13.486   3.495  1.00  0.00    -0.063 N 
HETATM    2  H   UNL     1      39.554 -14.027   3.161  1.00  0.00     0.280 HD
HETATM    3  C   UNL     1      40.871 -14.230   4.721  1.00  0.00     0.240 C 
HETATM    4  C   UNL     1      40.137 -13.866   5.995  1.00  0.00     0.083 C 
HETATM    5  C   UNL     1      40.014 -12.357   6.148  1.00  0.00     0.131 A 
HETATM    6  N   UNL     1      39.293 -12.058   7.408  1.00  0.00    -0.251 NA
HETATM    7  C   UNL     1      40.065 -11.265   8.108  1.00  0.00     0.132 A 
HETATM    8  C   UNL     1      41.373 -10.987   7.398  1.00  0.00     0.272 A 
HETATM    9  O   UNL     1      42.287 -10.286   7.754  1.00  0.00    -0.266 OA
HETATM   10  N   UNL     1      41.280 -11.705   6.250  1.00  0.00    -0.327 N 
HETATM   11  C   UNL     1      39.172 -11.831   4.993  1.00  0.00     0.083 C 
HETATM   12  C   UNL     1      39.864 -12.062   3.670  1.00  0.00     0.240 C 
HETATM   13  H   UNL     1      42.044 -11.693   5.574  1.00  0.00     0.165 HD
ENDROOT
BRANCH   1  14
HETATM   14  C   UNL     1      41.426 -13.529   2.347  1.00  0.00     0.337 C 
BRANCH  14  15
HETATM   15  C   UNL     1      40.963 -14.303   1.100  1.00  0.00     0.248 C 
HETATM   16  N   UNL     1      41.294 -15.595   0.861  1.00  0.00    -0.326 N 
HETATM   17  H   UNL     1      40.838 -15.925   0.012  1.00  0.00     0.169 HD
HETATM   18  O   UNL     1      40.214 -13.757   0.275  1.00  0.00    -0.271 OA
BRANCH  16  19
HETATM   19  C   UNL     1      42.057 -16.565   1.531  1.00  0.00     0.034 A 
HETATM   20  C   UNL     1      43.326 -17.010   1.165  1.00  0.00     0.030 A 
HETATM   21  C   UNL     1      43.993 -17.964   1.953  1.00  0.00     0.020 A 
HETATM   22  C   UNL     1      43.401 -18.487   3.109  1.00  0.00     0.039 A 
HETATM   23  C   UNL     1      42.118 -18.066   3.459  1.00  0.00     0.020 A 
HETATM   24  C   UNL     1      41.456 -17.118   2.674  1.00  0.00     0.030 A 
BRANCH  22  25
HETATM   25  C   UNL     1      44.165 -19.476   3.917  1.00  0.00     0.293 C 
HETATM   26  O   UNL     1      44.058 -19.567   5.129  1.00  0.00    -0.259 OA
BRANCH  25  27
HETATM   27  O   UNL     1      44.939 -20.240   3.112  1.00  0.00    -0.318 OA
BRANCH  27  28
HETATM   28  C   UNL     1      44.541 -21.612   2.963  1.00  0.00     0.174 C 
HETATM   29  C   UNL     1      43.846 -21.803   1.629  1.00  0.00     0.034 C 
ENDBRANCH  27  28
ENDBRANCH  25  27
ENDBRANCH  22  25
ENDBRANCH  16  19
ENDBRANCH  14  15
ENDBRANCH   1  14
BRANCH   7  30
HETATM   30  C   UNL     1      39.694 -10.709   9.426  1.00  0.00    -0.001 A 
HETATM   31  C   UNL     1      40.344 -11.078  10.608  1.00  0.00     0.037 A 
HETATM   32  C   UNL     1      39.956 -10.508  11.823  1.00  0.00     0.035 A 
HETATM   33 CL   UNL     1      40.763 -10.965  13.273  1.00  0.00    -0.084 Cl
HETATM   34  C   UNL     1      38.923  -9.576  11.875  1.00  0.00     0.024 A 
HETATM   35  C   UNL     1      38.267  -9.208  10.703  1.00  0.00     0.003 A 
HETATM   36  C   UNL     1      38.651  -9.771   9.483  1.00  0.00     0.014 A 
ENDBRANCH   7  30
TORSDOF 7
ENDMDL
MODEL 4
REMARK VINA RESULT:      -8.8      1.851      2.450
REMARK  7 active torsions:
REMARK  status: ('A' for Active; 'I' for Inactive)
REMARK    1  A    between atoms: C_2  and  O_3 
REMARK    2  A    between atoms: O_3  and  C_4 
REMARK    3  A    between atoms: C_4  and  C_5 
REMARK    4  A    between atoms: C_8  and  N_9 
REMARK       I    between atoms: N_9  and  C_10 
REMARK    5  A    between atoms: C_10  and  C_11 
REMARK    6  A    between atoms: C_11  and  N_12 
REMARK    7  A    between atoms: C_18  and  C_19 
ROOT
HETATM    1  N   UNL     1      41.276 -13.294   6.034  1.00  0.00    -0.063 N 
HETATM    2  H   UNL     1      40.978 -13.244   7.017  1.00  0.00     0.280 HD
HETATM    3  C   UNL     1      40.358 -14.319   5.383  1.00  0.00     0.240 C 
HETATM    4  C   UNL     1      40.823 -15.748   5.568  1.00  0.00     0.083 C 
HETATM    5  C   UNL     1      42.303 -15.893   5.243  1.00  0.00     0.131 A 
HETATM    6  N   UNL     1      42.702 -17.308   5.437  1.00  0.00    -0.251 NA
HETATM    7  C   UNL     1      43.232 -17.711   4.310  1.00  0.00     0.132 A 
HETATM    8  C   UNL     1      43.210 -16.621   3.259  1.00  0.00     0.272 A 
HETATM    9  O   UNL     1      43.635 -16.655   2.131  1.00  0.00    -0.266 OA
HETATM   10  N   UNL     1      42.605 -15.578   3.884  1.00  0.00    -0.327 N 
HETATM   11  C   UNL     1      43.091 -15.046   6.234  1.00  0.00     0.083 C 
HETATM   12  C   UNL     1      42.768 -13.580   6.068  1.00  0.00     0.240 C 
HETATM   13  H   UNL     1      42.462 -14.697   3.389  1.00  0.00     0.165 HD
ENDROOT
BRANCH   1  14
HETATM   14  C   UNL     1      41.031 -11.873   5.425  1.00  0.00     0.337 C 
BRANCH  14  15
HETATM   15  C   UNL     1      39.680 -11.252   5.823  1.00  0.00     0.248 C 
HETATM   16  N   UNL     1      39.441 -10.712   7.043  1.00  0.00    -0.326 N 
HETATM   17  H   UNL     1      38.505 -10.310   7.074  1.00  0.00     0.169 HD
HETATM   18  O   UNL     1      38.759 -11.189   4.995  1.00  0.00    -0.271 OA
BRANCH  16  19
HETATM   19  C   UNL     1      40.192 -10.540   8.218  1.00  0.00     0.034 A 
HETATM   20  C   UNL     1      41.377  -9.818   8.337  1.00  0.00     0.030 A 
HETATM   21  C   UNL     1      42.006  -9.696   9.588  1.00  0.00     0.020 A 
HETATM   22  C   UNL     1      41.464 -10.298  10.730  1.00  0.00     0.039 A 
HETATM   23  C   UNL     1      40.294 -11.048  10.606  1.00  0.00     0.020 A 
HETATM   24  C   UNL     1      39.671 -11.168   9.361  1.00  0.00     0.030 A 
BRANCH  22  25
HETATM   25  C   UNL     1      42.161 -10.115  12.033  1.00  0.00     0.293 C 
HETATM   26  O   UNL     1      41.605  -9.680  13.028  1.00  0.00    -0.259 OA
BRANCH  25  27
HETATM   27  O   UNL     1      43.447 -10.524  11.936  1.00  0.00    -0.318 OA
BRANCH  27  28
HETATM   28  C   UNL     1      43.661 -11.944  11.896  1.00  0.00     0.174 C 
HETATM   29  C   UNL     1      44.690 -12.278  10.833  1.00  0.00     0.034 C 
ENDBRANCH  27  28
ENDBRANCH  25  27
ENDBRANCH  22  25
ENDBRANCH  16  19
ENDBRANCH  14  15
ENDBRANCH   1  14
BRANCH   7  30
HETATM   30  C   UNL     1      43.787 -19.064   4.099  1.00  0.00    -0.001 A 
HETATM   31  C   UNL     1      43.649 -19.754   2.891  1.00  0.00     0.037 A 
HETATM   32  C   UNL     1      44.207 -21.027   2.748  1.00  0.00     0.035 A 
HETATM   33 CL   UNL     1      44.036 -21.869   1.257  1.00  0.00    -0.084 Cl
HETATM   34  C   UNL     1      44.899 -21.624   3.799  1.00  0.00     0.024 A 
HETATM   35  C   UNL     1      45.036 -20.944   5.008  1.00  0.00     0.003 A 
HETATM   36  C   UNL     1      44.483 -19.670   5.158  1.00  0.00     0.014 A 
ENDBRANCH   7  30
TORSDOF 7
ENDMDL
MODEL 5
REMARK VINA RESULT:      -8.8      4.047      7.641
REMARK  7 active torsions:
REMARK  status: ('A' for Active; 'I' for Inactive)
REMARK    1  A    between atoms: C_2  and  O_3 
REMARK    2  A    between atoms: O_3  and  C_4 
REMARK    3  A    between atoms: C_4  and  C_5 
REMARK    4  A    between atoms: C_8  and  N_9 
REMARK       I    between atoms: N_9  and  C_10 
REMARK    5  A    between atoms: C_10  and  C_11 
REMARK    6  A    between atoms: C_11  and  N_12 
REMARK    7  A    between atoms: C_18  and  C_19 
ROOT
HETATM    1  N   UNL     1      41.644 -13.672   6.122  1.00  0.00    -0.063 N 
HETATM    2  H   UNL     1      41.635 -13.631   7.150  1.00  0.00     0.280 HD
HETATM    3  C   UNL     1      40.593 -14.706   5.746  1.00  0.00     0.240 C 
HETATM    4  C   UNL     1      41.108 -16.129   5.779  1.00  0.00     0.083 C 
HETATM    5  C   UNL     1      42.438 -16.251   5.049  1.00  0.00     0.131 A 
HETATM    6  N   UNL     1      42.892 -17.661   5.108  1.00  0.00    -0.251 NA
HETATM    7  C   UNL     1      43.087 -18.049   3.874  1.00  0.00     0.132 A 
HETATM    8  C   UNL     1      42.757 -16.954   2.882  1.00  0.00     0.272 A 
HETATM    9  O   UNL     1      42.847 -16.975   1.680  1.00  0.00    -0.266 OA
HETATM   10  N   UNL     1      42.340 -15.924   3.662  1.00  0.00    -0.327 N 
HETATM   11  C   UNL     1      43.462 -15.399   5.786  1.00  0.00     0.083 C 
HETATM   12  C   UNL     1      43.088 -13.936   5.731  1.00  0.00     0.240 C 
HETATM   13  H   UNL     1      42.054 -15.041   3.237  1.00  0.00     0.165 HD
ENDROOT
BRANCH   1  14
HETATM   14  C   UNL     1      41.220 -12.250   5.621  1.00  0.00     0.337 C 
BRANCH  14  15
HETATM   15  C   UNL     1      39.718 -12.125   5.308  1.00  0.00     0.248 C 
HETATM   16  N   UNL     1      39.198 -12.324   4.072  1.00  0.00    -0.326 N 
HETATM   17  H   UNL     1      38.182 -12.245   4.101  1.00  0.00     0.169 HD
HETATM   18  O   UNL     1      38.915 -11.872   6.218  1.00  0.00    -0.271 OA
BRANCH  16  19
HETATM   19  C   UNL     1      39.724 -12.657   2.814  1.00  0.00     0.034 A 
HETATM   20  C   UNL     1      40.429 -11.805   1.965  1.00  0.00     0.030 A 
HETATM   21  C   UNL     1      40.934 -12.284   0.745  1.00  0.00     0.020 A 
HETATM   22  C   UNL     1      40.738 -13.615   0.355  1.00  0.00     0.039 A 
HETATM   23  C   UNL     1      40.006 -14.461   1.189  1.00  0.00     0.020 A 
HETATM   24  C   UNL     1      39.504 -13.981   2.401  1.00  0.00     0.030 A 
BRANCH  22  25
HETATM   25  C   UNL     1      41.317 -14.073  -0.937  1.00  0.00     0.293 C 
HETATM   26  O   UNL     1      42.230 -13.492  -1.499  1.00  0.00    -0.259 OA
BRANCH  25  27
HETATM   27  O   UNL     1      40.705 -15.209  -1.346  1.00  0.00    -0.318 OA
BRANCH  27  28
HETATM   28  C   UNL     1      40.949 -15.607  -2.705  1.00  0.00     0.174 C 
HETATM   29  C   UNL     1      39.737 -15.285  -3.559  1.00  0.00     0.034 C 
ENDBRANCH  27  28
ENDBRANCH  25  27
ENDBRANCH  22  25
ENDBRANCH  16  19
ENDBRANCH  14  15
ENDBRANCH   1  14
BRANCH   7  30
HETATM   30  C   UNL     1      43.577 -19.394   3.502  1.00  0.00    -0.001 A 
HETATM   31  C   UNL     1      44.246 -20.226   4.404  1.00  0.00     0.037 A 
HETATM   32  C   UNL     1      44.675 -21.492   3.997  1.00  0.00     0.035 A 
HETATM   33 CL   UNL     1      45.496 -22.512   5.114  1.00  0.00    -0.084 Cl
HETATM   34  C   UNL     1      44.447 -21.938   2.698  1.00  0.00     0.024 A 
HETATM   35  C   UNL     1      43.785 -21.112   1.793  1.00  0.00     0.003 A 
HETATM   36  C   UNL     1      43.351 -19.845   2.192  1.00  0.00     0.014 A 
ENDBRANCH   7  30
TORSDOF 7
ENDMDL
MODEL 6
REMARK VINA RESULT:      -8.6      6.913     11.072
REMARK  7 active torsions:
REMARK  status: ('A' for Active; 'I' for Inactive)
REMARK    1  A    between atoms: C_2  and  O_3 
REMARK    2  A    between atoms: O_3  and  C_4 
REMARK    3  A    between atoms: C_4  and  C_5 
REMARK    4  A    between atoms: C_8  and  N_9 
REMARK       I    between atoms: N_9  and  C_10 
REMARK    5  A    between atoms: C_10  and  C_11 
REMARK    6  A    between atoms: C_11  and  N_12 
REMARK    7  A    between atoms: C_18  and  C_19 
ROOT
HETATM    1  N   UNL     1      39.645 -14.714   0.177  1.00  0.00    -0.063 N 
HETATM    2  H   UNL     1      38.965 -15.183  -0.436  1.00  0.00     0.280 HD
HETATM    3  C   UNL     1      41.014 -15.141  -0.333  1.00  0.00     0.240 C 
HETATM    4  C   UNL     1      41.475 -16.472   0.222  1.00  0.00     0.083 C 
HETATM    5  C   UNL     1      41.288 -16.536   1.731  1.00  0.00     0.131 A 
HETATM    6  N   UNL     1      41.758 -17.854   2.220  1.00  0.00    -0.251 NA
HETATM    7  C   UNL     1      42.656 -17.619   3.142  1.00  0.00     0.132 A 
HETATM    8  C   UNL     1      42.888 -16.135   3.333  1.00  0.00     0.272 A 
HETATM    9  O   UNL     1      43.627 -15.584   4.111  1.00  0.00    -0.266 OA
HETATM   10  N   UNL     1      42.060 -15.556   2.427  1.00  0.00    -0.327 N 
HETATM   11  C   UNL     1      39.797 -16.432   2.028  1.00  0.00     0.083 C 
HETATM   12  C   UNL     1      39.252 -15.091   1.595  1.00  0.00     0.240 C 
HETATM   13  H   UNL     1      42.017 -14.540   2.346  1.00  0.00     0.165 HD
ENDROOT
BRANCH   1  14
HETATM   14  C   UNL     1      39.437 -13.176  -0.030  1.00  0.00     0.337 C 
BRANCH  14  15
HETATM   15  C   UNL     1      40.269 -12.587  -1.184  1.00  0.00     0.248 C 
HETATM   16  N   UNL     1      39.849 -12.574  -2.472  1.00  0.00    -0.326 N 
HETATM   17  H   UNL     1      40.527 -12.090  -3.059  1.00  0.00     0.169 HD
HETATM   18  O   UNL     1      41.363 -12.053  -0.948  1.00  0.00    -0.271 OA
BRANCH  16  19
HETATM   19  C   UNL     1      38.700 -13.016  -3.147  1.00  0.00     0.034 A 
HETATM   20  C   UNL     1      38.313 -14.343  -3.330  1.00  0.00     0.030 A 
HETATM   21  C   UNL     1      37.113 -14.642  -3.996  1.00  0.00     0.020 A 
HETATM   22  C   UNL     1      36.289 -13.624  -4.491  1.00  0.00     0.039 A 
HETATM   23  C   UNL     1      36.690 -12.297  -4.337  1.00  0.00     0.020 A 
HETATM   24  C   UNL     1      37.885 -12.002  -3.675  1.00  0.00     0.030 A 
BRANCH  22  25
HETATM   25  C   UNL     1      35.017 -14.000  -5.166  1.00  0.00     0.293 C 
HETATM   26  O   UNL     1      33.918 -13.751  -4.699  1.00  0.00    -0.259 OA
BRANCH  25  27
HETATM   27  O   UNL     1      35.277 -14.609  -6.346  1.00  0.00    -0.318 OA
BRANCH  27  28
HETATM   28  C   UNL     1      35.364 -13.754  -7.497  1.00  0.00     0.174 C 
HETATM   29  C   UNL     1      35.976 -14.517  -8.656  1.00  0.00     0.034 C 
ENDBRANCH  27  28
ENDBRANCH  25  27
ENDBRANCH  22  25
ENDBRANCH  16  19
ENDBRANCH  14  15
ENDBRANCH   1  14
BRANCH   7  30
HETATM   30  C   UNL     1      43.350 -18.679   3.903  1.00  0.00    -0.001 A 
HETATM   31  C   UNL     1      43.230 -18.810   5.290  1.00  0.00     0.037 A 
HETATM   32  C   UNL     1      43.901 -19.840   5.953  1.00  0.00     0.035 A 
HETATM   33 CL   UNL     1      43.745 -19.997   7.660  1.00  0.00    -0.084 Cl
HETATM   34  C   UNL     1      44.695 -20.742   5.249  1.00  0.00     0.024 A 
HETATM   35  C   UNL     1      44.823 -20.614   3.868  1.00  0.00     0.003 A 
HETATM   36  C   UNL     1      44.154 -19.588   3.197  1.00  0.00     0.014 A 
ENDBRANCH   7  30
TORSDOF 7
ENDMDL
MODEL 7
REMARK VINA RESULT:      -8.4      4.044     10.287
REMARK  7 active torsions:
REMARK  status: ('A' for Active; 'I' for Inactive)
REMARK    1  A    between atoms: C_2  and  O_3 
REMARK    2  A    between atoms: O_3  and  C_4 
REMARK    3  A    between atoms: C_4  and  C_5 
REMARK    4  A    between atoms: C_8  and  N_9 
REMARK       I    between atoms: N_9  and  C_10 
REMARK    5  A    between atoms: C_10  and  C_11 
REMARK    6  A    between atoms: C_11  and  N_12 
REMARK    7  A    between atoms: C_18  and  C_19 
ROOT
HETATM    1  N   UNL     1      39.940 -13.550   3.444  1.00  0.00    -0.063 N 
HETATM    2  H   UNL     1      39.124 -14.128   3.201  1.00  0.00     0.280 HD
HETATM    3  C   UNL     1      40.568 -14.223   4.656  1.00  0.00     0.240 C 
HETATM    4  C   UNL     1      39.929 -13.821   5.968  1.00  0.00     0.083 C 
HETATM    5  C   UNL     1      39.772 -12.310   6.065  1.00  0.00     0.131 A 
HETATM    6  N   UNL     1      39.147 -11.973   7.366  1.00  0.00    -0.251 NA
HETATM    7  C   UNL     1      39.947 -11.129   7.965  1.00  0.00     0.132 A 
HETATM    8  C   UNL     1      41.185 -10.848   7.139  1.00  0.00     0.272 A 
HETATM    9  O   UNL     1      42.102 -10.106   7.388  1.00  0.00    -0.266 OA
HETATM   10  N   UNL     1      41.022 -11.621   6.035  1.00  0.00    -0.327 N 
HETATM   11  C   UNL     1      38.823 -11.861   4.961  1.00  0.00     0.083 C 
HETATM   12  C   UNL     1      39.414 -12.134   3.597  1.00  0.00     0.240 C 
HETATM   13  H   UNL     1      41.728 -11.618   5.298  1.00  0.00     0.165 HD
ENDROOT
BRANCH   1  14
HETATM   14  C   UNL     1      40.908 -13.617   2.216  1.00  0.00     0.337 C 
BRANCH  14  15
HETATM   15  C   UNL     1      40.373 -14.466   1.049  1.00  0.00     0.248 C 
HETATM   16  N   UNL     1      40.720 -15.761   0.850  1.00  0.00    -0.326 N 
HETATM   17  H   UNL     1      40.210 -16.145   0.057  1.00  0.00     0.169 HD
HETATM   18  O   UNL     1      39.549 -13.982   0.258  1.00  0.00    -0.271 OA
BRANCH  16  19
HETATM   19  C   UNL     1      41.558 -16.676   1.508  1.00  0.00     0.034 A 
HETATM   20  C   UNL     1      41.375 -17.181   2.794  1.00  0.00     0.030 A 
HETATM   21  C   UNL     1      42.275 -18.125   3.316  1.00  0.00     0.020 A 
HETATM   22  C   UNL     1      43.370 -18.570   2.565  1.00  0.00     0.039 A 
HETATM   23  C   UNL     1      43.573 -18.042   1.290  1.00  0.00     0.020 A 
HETATM   24  C   UNL     1      42.676 -17.103   0.773  1.00  0.00     0.030 A 
BRANCH  22  25
HETATM   25  C   UNL     1      44.277 -19.589   3.160  1.00  0.00     0.293 C 
HETATM   26  O   UNL     1      44.717 -20.536   2.529  1.00  0.00    -0.259 OA
BRANCH  25  27
HETATM   27  O   UNL     1      44.541 -19.283   4.451  1.00  0.00    -0.318 OA
BRANCH  27  28
HETATM   28  C   UNL     1      44.506 -20.375   5.383  1.00  0.00     0.174 C 
HETATM   29  C   UNL     1      43.784 -19.949   6.647  1.00  0.00     0.034 C 
ENDBRANCH  27  28
ENDBRANCH  25  27
ENDBRANCH  22  25
ENDBRANCH  16  19
ENDBRANCH  14  15
ENDBRANCH   1  14
BRANCH   7  30
HETATM   30  C   UNL     1      39.667 -10.523   9.284  1.00  0.00    -0.001 A 
HETATM   31  C   UNL     1      38.814  -9.426   9.441  1.00  0.00     0.037 A 
HETATM   32  C   UNL     1      38.579  -8.905  10.716  1.00  0.00     0.035 A 
HETATM   33 CL   UNL     1      37.526  -7.556  10.903  1.00  0.00    -0.084 Cl
HETATM   34  C   UNL     1      39.187  -9.463  11.837  1.00  0.00     0.024 A 
HETATM   35  C   UNL     1      40.041 -10.553  11.687  1.00  0.00     0.003 A 
HETATM   36  C   UNL     1      40.281 -11.081  10.416  1.00  0.00     0.014 A 
ENDBRANCH   7  30
TORSDOF 7
ENDMDL
MODEL 8
REMARK VINA RESULT:      -8.3      5.060      8.623
REMARK  7 active torsions:
REMARK  status: ('A' for Active; 'I' for Inactive)
REMARK    1  A    between atoms: C_2  and  O_3 
REMARK    2  A    between atoms: O_3  and  C_4 
REMARK    3  A    between atoms: C_4  and  C_5 
REMARK    4  A    between atoms: C_8  and  N_9 
REMARK       I    between atoms: N_9  and  C_10 
REMARK    5  A    between atoms: C_10  and  C_11 
REMARK    6  A    between atoms: C_11  and  N_12 
REMARK    7  A    between atoms: C_18  and  C_19 
ROOT
HETATM    1  N   UNL     1      41.918 -12.590   2.891  1.00  0.00    -0.063 N 
HETATM    2  H   UNL     1      42.570 -12.027   2.329  1.00  0.00     0.280 HD
HETATM    3  C   UNL     1      42.682 -12.953   4.156  1.00  0.00     0.240 C 
HETATM    4  C   UNL     1      43.560 -14.177   4.000  1.00  0.00     0.083 C 
HETATM    5  C   UNL     1      42.801 -15.320   3.341  1.00  0.00     0.131 A 
HETATM    6  N   UNL     1      43.704 -16.489   3.217  1.00  0.00    -0.251 NA
HETATM    7  C   UNL     1      43.109 -17.493   3.810  1.00  0.00     0.132 A 
HETATM    8  C   UNL     1      41.778 -17.084   4.404  1.00  0.00     0.272 A 
HETATM    9  O   UNL     1      40.977 -17.765   4.993  1.00  0.00    -0.266 OA
HETATM   10  N   UNL     1      41.685 -15.761   4.114  1.00  0.00    -0.327 N 
HETATM   11  C   UNL     1      42.410 -14.881   1.936  1.00  0.00     0.083 C 
HETATM   12  C   UNL     1      41.451 -13.714   1.982  1.00  0.00     0.240 C 
HETATM   13  H   UNL     1      40.864 -15.229   4.406  1.00  0.00     0.165 HD
ENDROOT
BRANCH   1  14
HETATM   14  C   UNL     1      40.708 -11.657   3.230  1.00  0.00     0.337 C 
BRANCH  14  15
HETATM   15  C   UNL     1      40.711 -10.328   2.452  1.00  0.00     0.248 C 
HETATM   16  N   UNL     1      40.726 -10.260   1.098  1.00  0.00    -0.326 N 
HETATM   17  H   UNL     1      40.669  -9.290   0.793  1.00  0.00     0.169 HD
HETATM   18  O   UNL     1      40.655  -9.252   3.064  1.00  0.00    -0.271 OA
BRANCH  16  19
HETATM   19  C   UNL     1      40.746 -11.201   0.056  1.00  0.00     0.034 A 
HETATM   20  C   UNL     1      41.859 -11.571  -0.696  1.00  0.00     0.030 A 
HETATM   21  C   UNL     1      41.743 -12.559  -1.689  1.00  0.00     0.020 A 
HETATM   22  C   UNL     1      40.516 -13.183  -1.945  1.00  0.00     0.039 A 
HETATM   23  C   UNL     1      39.394 -12.792  -1.215  1.00  0.00     0.020 A 
HETATM   24  C   UNL     1      39.512 -11.809  -0.229  1.00  0.00     0.030 A 
BRANCH  22  25
HETATM   25  C   UNL     1      40.458 -14.240  -2.992  1.00  0.00     0.293 C 
HETATM   26  O   UNL     1      41.289 -14.343  -3.879  1.00  0.00    -0.259 OA
BRANCH  25  27
HETATM   27  O   UNL     1      39.392 -15.047  -2.782  1.00  0.00    -0.318 OA
BRANCH  27  28
HETATM   28  C   UNL     1      38.645 -15.429  -3.948  1.00  0.00     0.174 C 
HETATM   29  C   UNL     1      37.216 -14.938  -3.826  1.00  0.00     0.034 C 
ENDBRANCH  27  28
ENDBRANCH  25  27
ENDBRANCH  22  25
ENDBRANCH  16  19
ENDBRANCH  14  15
ENDBRANCH   1  14
BRANCH   7  30
HETATM   30  C   UNL     1      43.672 -18.858   3.879  1.00  0.00    -0.001 A 
HETATM   31  C   UNL     1      43.753 -19.696   2.763  1.00  0.00     0.037 A 
HETATM   32  C   UNL     1      44.306 -20.973   2.889  1.00  0.00     0.035 A 
HETATM   33 CL   UNL     1      44.405 -21.997   1.510  1.00  0.00    -0.084 Cl
HETATM   34  C   UNL     1      44.779 -21.425   4.118  1.00  0.00     0.024 A 
HETATM   35  C   UNL     1      44.698 -20.597   5.235  1.00  0.00     0.003 A 
HETATM   36  C   UNL     1      44.147 -19.319   5.117  1.00  0.00     0.014 A 
ENDBRANCH   7  30
TORSDOF 7
ENDMDL
MODEL 9
REMARK VINA RESULT:      -8.2      3.564      9.371
REMARK  7 active torsions:
REMARK  status: ('A' for Active; 'I' for Inactive)
REMARK    1  A    between atoms: C_2  and  O_3 
REMARK    2  A    between atoms: O_3  and  C_4 
REMARK    3  A    between atoms: C_4  and  C_5 
REMARK    4  A    between atoms: C_8  and  N_9 
REMARK       I    between atoms: N_9  and  C_10 
REMARK    5  A    between atoms: C_10  and  C_11 
REMARK    6  A    between atoms: C_11  and  N_12 
REMARK    7  A    between atoms: C_18  and  C_19 
ROOT
HETATM    1  N   UNL     1      40.998 -13.593   3.689  1.00  0.00    -0.063 N 
HETATM    2  H   UNL     1      41.839 -13.603   3.095  1.00  0.00     0.280 HD
HETATM    3  C   UNL     1      40.488 -12.160   3.645  1.00  0.00     0.240 C 
HETATM    4  C   UNL     1      41.168 -11.247   4.643  1.00  0.00     0.083 C 
HETATM    5  C   UNL     1      41.222 -11.883   6.025  1.00  0.00     0.131 A 
HETATM    6  N   UNL     1      41.893 -10.948   6.960  1.00  0.00    -0.251 NA
HETATM    7  C   UNL     1      41.068 -10.751   7.957  1.00  0.00     0.132 A 
HETATM    8  C   UNL     1      39.770 -11.507   7.768  1.00  0.00     0.272 A 
HETATM    9  O   UNL     1      38.817 -11.559   8.505  1.00  0.00    -0.266 OA
HETATM   10  N   UNL     1      39.926 -12.129   6.572  1.00  0.00    -0.327 N 
HETATM   11  C   UNL     1      42.074 -13.142   5.934  1.00  0.00     0.083 C 
HETATM   12  C   UNL     1      41.430 -14.166   5.028  1.00  0.00     0.240 C 
HETATM   13  H   UNL     1      39.182 -12.720   6.200  1.00  0.00     0.165 HD
ENDROOT
BRANCH   1  14
HETATM   14  C   UNL     1      39.970 -14.562   3.014  1.00  0.00     0.337 C 
BRANCH  14  15
HETATM   15  C   UNL     1      40.522 -15.286   1.772  1.00  0.00     0.248 C 
HETATM   16  N   UNL     1      41.368 -16.343   1.843  1.00  0.00    -0.326 N 
HETATM   17  H   UNL     1      41.563 -16.701   0.909  1.00  0.00     0.169 HD
HETATM   18  O   UNL     1      40.161 -14.935   0.639  1.00  0.00    -0.271 OA
BRANCH  16  19
HETATM   19  C   UNL     1      41.972 -17.064   2.886  1.00  0.00     0.034 A 
HETATM   20  C   UNL     1      41.335 -17.550   4.025  1.00  0.00     0.030 A 
HETATM   21  C   UNL     1      42.057 -18.292   4.975  1.00  0.00     0.020 A 
HETATM   22  C   UNL     1      43.422 -18.551   4.802  1.00  0.00     0.039 A 
HETATM   23  C   UNL     1      44.069 -18.039   3.677  1.00  0.00     0.020 A 
HETATM   24  C   UNL     1      43.348 -17.300   2.735  1.00  0.00     0.030 A 
BRANCH  22  25
HETATM   25  C   UNL     1      44.130 -19.364   5.829  1.00  0.00     0.293 C 
HETATM   26  O   UNL     1      44.162 -20.583   5.805  1.00  0.00    -0.259 OA
BRANCH  25  27
HETATM   27  O   UNL     1      44.729 -18.554   6.733  1.00  0.00    -0.318 OA
BRANCH  27  28
HETATM   28  C   UNL     1      44.157 -18.542   8.051  1.00  0.00     0.174 C 
HETATM   29  C   UNL     1      43.388 -17.253   8.264  1.00  0.00     0.034 C 
ENDBRANCH  27  28
ENDBRANCH  25  27
ENDBRANCH  22  25
ENDBRANCH  16  19
ENDBRANCH  14  15
ENDBRANCH   1  14
BRANCH   7  30
HETATM   30  C   UNL     1      41.378  -9.898   9.124  1.00  0.00    -0.001 A 
HETATM   31  C   UNL     1      42.287 -10.280  10.114  1.00  0.00     0.037 A 
HETATM   32  C   UNL     1      42.547  -9.424  11.188  1.00  0.00     0.035 A 
HETATM   33 CL   UNL     1      43.671  -9.900  12.402  1.00  0.00    -0.084 Cl
HETATM   34  C   UNL     1      41.907  -8.192  11.288  1.00  0.00     0.024 A 
HETATM   35  C   UNL     1      40.996  -7.807  10.307  1.00  0.00     0.003 A 
HETATM   36  C   UNL     1      40.732  -8.655   9.229  1.00  0.00     0.014 A 
ENDBRANCH   7  30
TORSDOF 7
ENDMDL
MODEL 10
REMARK VINA RESULT:      -8.2      3.500     10.209
REMARK  7 active torsions:
REMARK  status: ('A' for Active; 'I' for Inactive)
REMARK    1  A    between atoms: C_2  and  O_3 
REMARK    2  A    between atoms: O_3  and  C_4 
REMARK    3  A    between atoms: C_4  and  C_5 
REMARK    4  A    between atoms: C_8  and  N_9 
REMARK       I    between atoms: N_9  and  C_10 
REMARK    5  A    between atoms: C_10  and  C_11 
REMARK    6  A    between atoms: C_11  and  N_12 
REMARK    7  A    between atoms: C_18  and  C_19 
ROOT
HETATM    1  N   UNL     1      40.705 -13.286   3.340  1.00  0.00    -0.063 N 
HETATM    2  H   UNL     1      41.477 -13.160   2.671  1.00  0.00     0.280 HD
HETATM    3  C   UNL     1      40.060 -11.914   3.479  1.00  0.00     0.240 C 
HETATM    4  C   UNL     1      40.751 -11.022   4.488  1.00  0.00     0.083 C 
HETATM    5  C   UNL     1      41.008 -11.762   5.794  1.00  0.00     0.131 A 
HETATM    6  N   UNL     1      41.681 -10.843   6.743  1.00  0.00    -0.251 NA
HETATM    7  C   UNL     1      40.949 -10.816   7.828  1.00  0.00     0.132 A 
HETATM    8  C   UNL     1      39.716 -11.684   7.694  1.00  0.00     0.272 A 
HETATM    9  O   UNL     1      38.853 -11.896   8.510  1.00  0.00    -0.266 OA
HETATM   10  N   UNL     1      39.805 -12.185   6.436  1.00  0.00    -0.327 N 
HETATM   11  C   UNL     1      41.961 -12.915   5.505  1.00  0.00     0.083 C 
HETATM   12  C   UNL     1      41.326 -13.920   4.573  1.00  0.00     0.240 C 
HETATM   13  H   UNL     1      39.085 -12.817   6.083  1.00  0.00     0.165 HD
ENDROOT
BRANCH   1  14
HETATM   14  C   UNL     1      39.709 -14.296   2.678  1.00  0.00     0.337 C 
BRANCH  14  15
HETATM   15  C   UNL     1      40.100 -14.706   1.247  1.00  0.00     0.248 C 
HETATM   16  N   UNL     1      41.007 -15.675   0.972  1.00  0.00    -0.326 N 
HETATM   17  H   UNL     1      41.072 -15.822  -0.034  1.00  0.00     0.169 HD
HETATM   18  O   UNL     1      39.544 -14.170   0.276  1.00  0.00    -0.271 OA
BRANCH  16  19
HETATM   19  C   UNL     1      41.808 -16.533   1.743  1.00  0.00     0.034 A 
HETATM   20  C   UNL     1      41.443 -17.144   2.941  1.00  0.00     0.030 A 
HETATM   21  C   UNL     1      42.336 -18.012   3.590  1.00  0.00     0.020 A 
HETATM   22  C   UNL     1      43.603 -18.276   3.056  1.00  0.00     0.039 A 
HETATM   23  C   UNL     1      43.983 -17.641   1.874  1.00  0.00     0.020 A 
HETATM   24  C   UNL     1      43.093 -16.777   1.231  1.00  0.00     0.030 A 
BRANCH  22  25
HETATM   25  C   UNL     1      44.498 -19.224   3.775  1.00  0.00     0.293 C 
HETATM   26  O   UNL     1      44.781 -19.105   4.956  1.00  0.00    -0.259 OA
BRANCH  25  27
HETATM   27  O   UNL     1      44.899 -20.211   2.941  1.00  0.00    -0.318 OA
BRANCH  27  28
HETATM   28  C   UNL     1      43.993 -21.314   2.780  1.00  0.00     0.174 C 
HETATM   29  C   UNL     1      44.284 -22.030   1.475  1.00  0.00     0.034 C 
ENDBRANCH  27  28
ENDBRANCH  25  27
ENDBRANCH  22  25
ENDBRANCH  16  19
ENDBRANCH  14  15
ENDBRANCH   1  14
BRANCH   7  30
HETATM   30  C   UNL     1      41.295 -10.036   9.035  1.00  0.00    -0.001 A 
HETATM   31  C   UNL     1      42.314 -10.421   9.912  1.00  0.00     0.037 A 
HETATM   32  C   UNL     1      42.603  -9.635  11.031  1.00  0.00     0.035 A 
HETATM   33 CL   UNL     1      43.860 -10.113  12.104  1.00  0.00    -0.084 Cl
HETATM   34  C   UNL     1      41.885  -8.469  11.287  1.00  0.00     0.024 A 
HETATM   35  C   UNL     1      40.866  -8.082  10.419  1.00  0.00     0.003 A 
HETATM   36  C   UNL     1      40.572  -8.862   9.298  1.00  0.00     0.014 A 
ENDBRANCH   7  30
TORSDOF 7
ENDMDL
