MODEL 1
REMARK VINA RESULT:      -8.5      0.000      0.000
REMARK  10 active torsions:
REMARK  status: ('A' for Active; 'I' for Inactive)
REMARK    1  A    between atoms: C_3  and  C_4 
REMARK    2  A    between atoms: C_4  and  C_5 
REMARK       I    between atoms: C_5  and  N_6 
REMARK    3  A    between atoms: N_6  and  C_7 
REMARK    4  A    between atoms: C_7  and  C_8 
REMARK    5  A    between atoms: C_18  and  N_19 
REMARK       I    between atoms: N_19  and  C_20 
REMARK    6  A    between atoms: C_20  and  C_21 
REMARK    7  A    between atoms: C_21  and  O_22 
REMARK    8  A    between atoms: C_28  and  C_29 
REMARK    9  A    between atoms: C_29  and  O_30 
REMARK   10  A    between atoms: C_32  and  O_33 
ROOT
HETATM    1  C   UNL     1      40.880 -17.364   5.109  1.00  0.00     0.016 C 
HETATM    2  C   UNL     1      41.755 -16.129   4.693  1.00  0.00    -0.030 C 
HETATM    3  C   UNL     1      41.959 -16.290   3.102  1.00  0.00     0.056 C 
HETATM    4  C   UNL     1      40.915 -15.505   2.331  1.00  0.00     0.056 A 
HETATM    5  C   UNL     1      39.894 -14.789   2.914  1.00  0.00     0.012 A 
HETATM    6  S   UNL     1      38.904 -14.083   1.725  1.00  0.00    -0.055 SA
HETATM    7  C   UNL     1      39.907 -14.737   0.514  1.00  0.00     0.174 A 
HETATM    8  N   UNL     1      40.922 -15.458   0.943  1.00  0.00    -0.227 NA
HETATM    9  C   UNL     1      39.650 -14.624   4.365  1.00  0.00     0.055 C 
HETATM   10  C   UNL     1      40.964 -14.825   5.165  1.00  0.00     0.012 C 
HETATM   11  C   UNL     1      41.818 -13.505   5.365  1.00  0.00     0.008 C 
HETATM   12  C   UNL     1      40.993 -12.476   6.194  1.00  0.00     0.020 C 
HETATM   13  C   UNL     1      43.079 -13.848   6.215  1.00  0.00     0.128 C 
HETATM   14  C   UNL     1      43.888 -15.002   5.639  1.00  0.00     0.033 C 
HETATM   15  C   UNL     1      43.053 -16.269   5.532  1.00  0.00     0.013 C 
ENDROOT
BRANCH   3  16
HETATM   16  C   UNL     1      43.375 -16.061   2.542  1.00  0.00     0.114 C 
BRANCH  16  17
HETATM   17  C   UNL     1      43.933 -17.311   1.884  1.00  0.00     0.218 C 
HETATM   18  N   UNL     1      43.295 -18.466   2.249  1.00  0.00    -0.357 N 
HETATM   19  H   UNL     1      42.865 -18.450   3.172  1.00  0.00     0.162 HD
HETATM   20  O   UNL     1      44.861 -17.264   1.083  1.00  0.00    -0.274 OA
BRANCH  18  21
HETATM   21  C   UNL     1      43.715 -19.749   1.747  1.00  0.00     0.161 C 
BRANCH  21  22
HETATM   22  C   UNL     1      44.169 -20.623   2.884  1.00  0.00    -0.041 A 
HETATM   23  C   UNL     1      44.330 -22.003   2.685  1.00  0.00     0.009 A 
HETATM   24  C   UNL     1      44.716 -22.833   3.738  1.00  0.00     0.001 A 
HETATM   25  C   UNL     1      44.945 -22.292   5.001  1.00  0.00     0.000 A 
HETATM   26  C   UNL     1      44.789 -20.923   5.210  1.00  0.00     0.001 A 
HETATM   27  C   UNL     1      44.402 -20.091   4.158  1.00  0.00     0.009 A 
ENDBRANCH  21  22
ENDBRANCH  18  21
ENDBRANCH  16  17
ENDBRANCH   3  16
BRANCH  11  28
HETATM   28  C   UNL     1      42.202 -12.803   4.035  1.00  0.00     0.176 C 
BRANCH  28  29
HETATM   29  O   UNL     1      41.999 -11.394   4.070  1.00  0.00    -0.400 OA
HETATM   30  H   UNL     1      41.520 -11.202   4.905  1.00  0.00     0.209 HD
ENDBRANCH  28  29
ENDBRANCH  11  28
BRANCH   7  31
HETATM   31  N   UNL     1      39.689 -14.525  -0.822  1.00  0.00    -0.304 N 
HETATM   32  C   UNL     1      40.587 -14.041  -1.749  1.00  0.00     0.247 C 
HETATM   33  O   UNL     1      41.752 -13.703  -1.563  1.00  0.00    -0.271 OA
HETATM   34  H   UNL     1      38.752 -14.737  -1.144  1.00  0.00     0.171 HD
BRANCH  32  35
HETATM   35  C   UNL     1      39.978 -13.996  -3.154  1.00  0.00     0.270 C 
BRANCH  35  36
HETATM   36  O   UNL     1      40.285 -15.146  -3.936  1.00  0.00    -0.387 OA
HETATM   37  C   UNL     1      39.151 -15.990  -4.111  1.00  0.00     0.202 C 
ENDBRANCH  35  36
ENDBRANCH  32  35
ENDBRANCH   7  31
BRANCH  13  38
HETATM   38  O   UNL     1      43.942 -12.715   6.329  1.00  0.00    -0.395 OA
HETATM   39  H   UNL     1      44.207 -12.642   7.265  1.00  0.00     0.210 HD
ENDBRANCH  13  38
TORSDOF 10
ENDMDL
MODEL 2
REMARK VINA RESULT:      -7.9      3.288      7.591
REMARK  10 active torsions:
REMARK  status: ('A' for Active; 'I' for Inactive)
REMARK    1  A    between atoms: C_3  and  C_4 
REMARK    2  A    between atoms: C_4  and  C_5 
REMARK       I    between atoms: C_5  and  N_6 
REMARK    3  A    between atoms: N_6  and  C_7 
REMARK    4  A    between atoms: C_7  and  C_8 
REMARK    5  A    between atoms: C_18  and  N_19 
REMARK       I    between atoms: N_19  and  C_20 
REMARK    6  A    between atoms: C_20  and  C_21 
REMARK    7  A    between atoms: C_21  and  O_22 
REMARK    8  A    between atoms: C_28  and  C_29 
REMARK    9  A    between atoms: C_29  and  O_30 
REMARK   10  A    between atoms: C_32  and  O_33 
ROOT
HETATM    1  C   UNL     1      39.655 -13.968   6.259  1.00  0.00     0.016 C 
HETATM    2  C   UNL     1      40.729 -13.387   5.272  1.00  0.00    -0.030 C 
HETATM    3  C   UNL     1      42.002 -14.362   5.432  1.00  0.00     0.056 C 
HETATM    4  C   UNL     1      41.988 -15.463   4.389  1.00  0.00     0.056 A 
HETATM    5  C   UNL     1      40.990 -15.637   3.457  1.00  0.00     0.012 A 
HETATM    6  S   UNL     1      41.305 -17.001   2.492  1.00  0.00    -0.055 SA
HETATM    7  C   UNL     1      42.759 -17.255   3.340  1.00  0.00     0.174 A 
HETATM    8  N   UNL     1      43.013 -16.396   4.305  1.00  0.00    -0.227 NA
HETATM    9  C   UNL     1      39.793 -14.784   3.279  1.00  0.00     0.055 C 
HETATM   10  C   UNL     1      40.053 -13.357   3.826  1.00  0.00     0.012 C 
HETATM   11  C   UNL     1      40.676 -12.353   2.768  1.00  0.00     0.008 C 
HETATM   12  C   UNL     1      39.676 -12.158   1.589  1.00  0.00     0.020 C 
HETATM   13  C   UNL     1      40.843 -10.957   3.441  1.00  0.00     0.128 C 
HETATM   14  C   UNL     1      41.629 -11.015   4.743  1.00  0.00     0.033 C 
HETATM   15  C   UNL     1      40.960 -11.932   5.757  1.00  0.00     0.013 C 
ENDROOT
BRANCH   3  16
HETATM   16  C   UNL     1      43.389 -13.704   5.550  1.00  0.00     0.114 C 
BRANCH  16  17
HETATM   17  C   UNL     1      43.981 -13.872   6.938  1.00  0.00     0.218 C 
HETATM   18  N   UNL     1      44.013 -12.717   7.674  1.00  0.00    -0.357 N 
HETATM   19  H   UNL     1      44.067 -11.859   7.131  1.00  0.00     0.162 HD
HETATM   20  O   UNL     1      44.371 -14.959   7.351  1.00  0.00    -0.274 OA
BRANCH  18  21
HETATM   21  C   UNL     1      44.572 -12.686   9.002  1.00  0.00     0.161 C 
BRANCH  21  22
HETATM   22  C   UNL     1      43.962 -11.560   9.791  1.00  0.00    -0.041 A 
HETATM   23  C   UNL     1      44.488 -11.220  11.047  1.00  0.00     0.009 A 
HETATM   24  C   UNL     1      43.912 -10.201  11.807  1.00  0.00     0.001 A 
HETATM   25  C   UNL     1      42.803  -9.513  11.320  1.00  0.00     0.000 A 
HETATM   26  C   UNL     1      42.273  -9.842  10.074  1.00  0.00     0.001 A 
HETATM   27  C   UNL     1      42.848 -10.861   9.311  1.00  0.00     0.009 A 
ENDBRANCH  21  22
ENDBRANCH  18  21
ENDBRANCH  16  17
ENDBRANCH   3  16
BRANCH  11  28
HETATM   28  C   UNL     1      42.008 -12.849   2.146  1.00  0.00     0.176 C 
BRANCH  28  29
HETATM   29  O   UNL     1      42.436 -12.061   1.040  1.00  0.00    -0.400 OA
HETATM   30  H   UNL     1      42.619 -11.163   1.393  1.00  0.00     0.209 HD
ENDBRANCH  28  29
ENDBRANCH  11  28
BRANCH   7  31
HETATM   31  N   UNL     1      43.621 -18.278   3.042  1.00  0.00    -0.304 N 
HETATM   32  C   UNL     1      44.041 -19.289   3.880  1.00  0.00     0.247 C 
HETATM   33  O   UNL     1      43.732 -19.470   5.053  1.00  0.00    -0.271 OA
HETATM   34  H   UNL     1      43.995 -18.264   2.100  1.00  0.00     0.171 HD
BRANCH  32  35
HETATM   35  C   UNL     1      44.969 -20.271   3.158  1.00  0.00     0.270 C 
BRANCH  35  36
HETATM   36  O   UNL     1      44.394 -21.564   2.989  1.00  0.00    -0.387 OA
HETATM   37  C   UNL     1      44.124 -21.852   1.621  1.00  0.00     0.202 C 
ENDBRANCH  35  36
ENDBRANCH  32  35
ENDBRANCH   7  31
BRANCH  13  38
HETATM   38  O   UNL     1      41.506 -10.044   2.564  1.00  0.00    -0.395 OA
HETATM   39  H   UNL     1      42.040  -9.443   3.117  1.00  0.00     0.210 HD
ENDBRANCH  13  38
TORSDOF 10
ENDMDL
MODEL 3
REMARK VINA RESULT:      -7.8      3.995      6.598
REMARK  10 active torsions:
REMARK  status: ('A' for Active; 'I' for Inactive)
REMARK    1  A    between atoms: C_3  and  C_4 
REMARK    2  A    between atoms: C_4  and  C_5 
REMARK       I    between atoms: C_5  and  N_6 
REMARK    3  A    between atoms: N_6  and  C_7 
REMARK    4  A    between atoms: C_7  and  C_8 
REMARK    5  A    between atoms: C_18  and  N_19 
REMARK       I    between atoms: N_19  and  C_20 
REMARK    6  A    between atoms: C_20  and  C_21 
REMARK    7  A    between atoms: C_21  and  O_22 
REMARK    8  A    between atoms: C_28  and  C_29 
REMARK    9  A    between atoms: C_29  and  O_30 
REMARK   10  A    between atoms: C_32  and  O_33 
ROOT
HETATM    1  C   UNL     1      42.119 -12.237   0.846  1.00  0.00     0.016 C 
HETATM    2  C   UNL     1      41.035 -13.251   0.333  1.00  0.00    -0.030 C 
HETATM    3  C   UNL     1      39.843 -13.156   1.415  1.00  0.00     0.056 C 
HETATM    4  C   UNL     1      38.779 -12.168   0.977  1.00  0.00     0.056 A 
HETATM    5  C   UNL     1      38.847 -11.411  -0.171  1.00  0.00     0.012 A 
HETATM    6  S   UNL     1      37.491 -10.392  -0.295  1.00  0.00    -0.055 SA
HETATM    7  C   UNL     1      36.881 -11.040   1.156  1.00  0.00     0.174 A 
HETATM    8  N   UNL     1      37.633 -11.956   1.731  1.00  0.00    -0.227 NA
HETATM    9  C   UNL     1      39.924 -11.445  -1.186  1.00  0.00     0.055 C 
HETATM   10  C   UNL     1      40.661 -12.809  -1.155  1.00  0.00     0.012 C 
HETATM   11  C   UNL     1      40.023 -13.920  -2.090  1.00  0.00     0.008 C 
HETATM   12  C   UNL     1      40.100 -13.452  -3.574  1.00  0.00     0.020 C 
HETATM   13  C   UNL     1      40.885 -15.214  -1.989  1.00  0.00     0.128 C 
HETATM   14  C   UNL     1      41.086 -15.685  -0.555  1.00  0.00     0.033 C 
HETATM   15  C   UNL     1      41.766 -14.618   0.291  1.00  0.00     0.013 C 
ENDROOT
BRANCH   3  16
HETATM   16  C   UNL     1      39.227 -14.479   1.908  1.00  0.00     0.114 C 
BRANCH  16  17
HETATM   17  C   UNL     1      39.931 -15.005   3.146  1.00  0.00     0.218 C 
HETATM   18  N   UNL     1      40.433 -16.271   3.006  1.00  0.00    -0.357 N 
HETATM   19  H   UNL     1      39.944 -16.859   2.335  1.00  0.00     0.162 HD
HETATM   20  O   UNL     1      40.046 -14.330   4.164  1.00  0.00    -0.274 OA
BRANCH  18  21
HETATM   21  C   UNL     1      41.102 -16.940   4.093  1.00  0.00     0.161 C 
BRANCH  21  22
HETATM   22  C   UNL     1      42.179 -17.843   3.556  1.00  0.00    -0.041 A 
HETATM   23  C   UNL     1      43.021 -18.532   4.443  1.00  0.00     0.009 A 
HETATM   24  C   UNL     1      44.047 -19.345   3.962  1.00  0.00     0.001 A 
HETATM   25  C   UNL     1      44.243 -19.478   2.589  1.00  0.00     0.000 A 
HETATM   26  C   UNL     1      43.412 -18.799   1.699  1.00  0.00     0.001 A 
HETATM   27  C   UNL     1      42.385 -17.985   2.179  1.00  0.00     0.009 A 
ENDBRANCH  21  22
ENDBRANCH  18  21
ENDBRANCH  16  17
ENDBRANCH   3  16
BRANCH  11  28
HETATM   28  C   UNL     1      38.528 -14.206  -1.788  1.00  0.00     0.176 C 
BRANCH  28  29
HETATM   29  O   UNL     1      37.902 -15.010  -2.783  1.00  0.00    -0.400 OA
HETATM   30  H   UNL     1      37.073 -15.351  -2.384  1.00  0.00     0.209 HD
ENDBRANCH  28  29
ENDBRANCH  11  28
BRANCH   7  31
HETATM   31  N   UNL     1      35.683 -10.649   1.695  1.00  0.00    -0.304 N 
HETATM   32  C   UNL     1      34.446 -10.676   1.089  1.00  0.00     0.247 C 
HETATM   33  O   UNL     1      34.173 -11.049  -0.048  1.00  0.00    -0.271 OA
HETATM   34  H   UNL     1      35.735 -10.287   2.640  1.00  0.00     0.171 HD
BRANCH  32  35
HETATM   35  C   UNL     1      33.342 -10.204   2.040  1.00  0.00     0.270 C 
BRANCH  35  36
HETATM   36  O   UNL     1      32.106 -10.888   1.848  1.00  0.00    -0.387 OA
HETATM   37  C   UNL     1      31.634 -11.483   3.052  1.00  0.00     0.202 C 
ENDBRANCH  35  36
ENDBRANCH  32  35
ENDBRANCH   7  31
BRANCH  13  38
HETATM   38  O   UNL     1      40.288 -16.284  -2.726  1.00  0.00    -0.395 OA
HETATM   39  H   UNL     1      39.959 -15.912  -3.566  1.00  0.00     0.210 HD
ENDBRANCH  13  38
TORSDOF 10
ENDMDL
MODEL 4
REMARK VINA RESULT:      -7.7      3.332      6.928
REMARK  10 active torsions:
REMARK  status: ('A' for Active; 'I' for Inactive)
REMARK    1  A    between atoms: C_3  and  C_4 
REMARK    2  A    between atoms: C_4  and  C_5 
REMARK       I    between atoms: C_5  and  N_6 
REMARK    3  A    between atoms: N_6  and  C_7 
REMARK    4  A    between atoms: C_7  and  C_8 
REMARK    5  A    between atoms: C_18  and  N_19 
REMARK       I    between atoms: N_19  and  C_20 
REMARK    6  A    between atoms: C_20  and  C_21 
REMARK    7  A    between atoms: C_21  and  O_22 
REMARK    8  A    between atoms: C_28  and  C_29 
REMARK    9  A    between atoms: C_29  and  O_30 
REMARK   10  A    between atoms: C_32  and  O_33 
ROOT
HETATM    1  C   UNL     1      43.056 -14.398   2.571  1.00  0.00     0.016 C 
HETATM    2  C   UNL     1      41.512 -14.312   2.847  1.00  0.00    -0.030 C 
HETATM    3  C   UNL     1      41.388 -14.236   4.452  1.00  0.00     0.056 C 
HETATM    4  C   UNL     1      41.309 -12.799   4.930  1.00  0.00     0.056 A 
HETATM    5  C   UNL     1      41.386 -11.700   4.105  1.00  0.00     0.012 A 
HETATM    6  S   UNL     1      41.304 -10.264   5.012  1.00  0.00    -0.055 SA
HETATM    7  C   UNL     1      41.135 -11.183   6.436  1.00  0.00     0.174 A 
HETATM    8  N   UNL     1      41.151 -12.490   6.275  1.00  0.00    -0.227 NA
HETATM    9  C   UNL     1      41.519 -11.713   2.630  1.00  0.00     0.055 C 
HETATM   10  C   UNL     1      40.973 -13.042   2.045  1.00  0.00     0.012 C 
HETATM   11  C   UNL     1      39.425 -13.018   1.702  1.00  0.00     0.008 C 
HETATM   12  C   UNL     1      39.156 -11.950   0.600  1.00  0.00     0.020 C 
HETATM   13  C   UNL     1      39.028 -14.395   1.088  1.00  0.00     0.128 C 
HETATM   14  C   UNL     1      39.428 -15.574   1.965  1.00  0.00     0.033 C 
HETATM   15  C   UNL     1      40.929 -15.601   2.210  1.00  0.00     0.013 C 
ENDROOT
BRANCH   3  16
HETATM   16  C   UNL     1      40.321 -15.121   5.123  1.00  0.00     0.114 C 
BRANCH  16  17
HETATM   17  C   UNL     1      40.935 -16.330   5.806  1.00  0.00     0.218 C 
HETATM   18  N   UNL     1      42.231 -16.579   5.440  1.00  0.00    -0.357 N 
HETATM   19  H   UNL     1      42.486 -16.259   4.508  1.00  0.00     0.162 HD
HETATM   20  O   UNL     1      40.314 -16.998   6.627  1.00  0.00    -0.274 OA
BRANCH  18  21
HETATM   21  C   UNL     1      42.958 -17.707   5.965  1.00  0.00     0.161 C 
BRANCH  21  22
HETATM   22  C   UNL     1      43.502 -18.539   4.836  1.00  0.00    -0.041 A 
HETATM   23  C   UNL     1      43.068 -18.305   3.522  1.00  0.00     0.009 A 
HETATM   24  C   UNL     1      43.535 -19.090   2.468  1.00  0.00     0.001 A 
HETATM   25  C   UNL     1      44.441 -20.118   2.716  1.00  0.00     0.000 A 
HETATM   26  C   UNL     1      44.880 -20.360   4.017  1.00  0.00     0.001 A 
HETATM   27  C   UNL     1      44.413 -19.575   5.073  1.00  0.00     0.009 A 
ENDBRANCH  21  22
ENDBRANCH  18  21
ENDBRANCH  16  17
ENDBRANCH   3  16
BRANCH  11  28
HETATM   28  C   UNL     1      38.524 -12.652   2.910  1.00  0.00     0.176 C 
BRANCH  28  29
HETATM   29  O   UNL     1      37.919 -11.368   2.786  1.00  0.00    -0.400 OA
HETATM   30  H   UNL     1      37.477 -11.185   3.643  1.00  0.00     0.209 HD
ENDBRANCH  28  29
ENDBRANCH  11  28
BRANCH   7  31
HETATM   31  N   UNL     1      40.981 -10.612   7.672  1.00  0.00    -0.304 N 
HETATM   32  C   UNL     1      41.959 -10.392   8.618  1.00  0.00     0.247 C 
HETATM   33  O   UNL     1      43.153 -10.667   8.545  1.00  0.00    -0.271 OA
HETATM   34  H   UNL     1      40.033 -10.342   7.906  1.00  0.00     0.171 HD
BRANCH  32  35
HETATM   35  C   UNL     1      41.398  -9.682   9.854  1.00  0.00     0.270 C 
BRANCH  35  36
HETATM   36  O   UNL     1      41.625 -10.400  11.064  1.00  0.00    -0.387 OA
HETATM   37  C   UNL     1      40.443 -11.040  11.533  1.00  0.00     0.202 C 
ENDBRANCH  35  36
ENDBRANCH  32  35
ENDBRANCH   7  31
BRANCH  13  38
HETATM   38  O   UNL     1      37.618 -14.467   0.865  1.00  0.00    -0.395 OA
HETATM   39  H   UNL     1      37.219 -13.668   1.257  1.00  0.00     0.210 HD
ENDBRANCH  13  38
TORSDOF 10
ENDMDL
MODEL 5
REMARK VINA RESULT:      -7.4      2.874      6.698
REMARK  10 active torsions:
REMARK  status: ('A' for Active; 'I' for Inactive)
REMARK    1  A    between atoms: C_3  and  C_4 
REMARK    2  A    between atoms: C_4  and  C_5 
REMARK       I    between atoms: C_5  and  N_6 
REMARK    3  A    between atoms: N_6  and  C_7 
REMARK    4  A    between atoms: C_7  and  C_8 
REMARK    5  A    between atoms: C_18  and  N_19 
REMARK       I    between atoms: N_19  and  C_20 
REMARK    6  A    between atoms: C_20  and  C_21 
REMARK    7  A    between atoms: C_21  and  O_22 
REMARK    8  A    between atoms: C_28  and  C_29 
REMARK    9  A    between atoms: C_29  and  O_30 
REMARK   10  A    between atoms: C_32  and  O_33 
ROOT
HETATM    1  C   UNL     1      42.369 -11.699  -0.054  1.00  0.00     0.016 C 
HETATM    2  C   UNL     1      41.269 -12.812   0.074  1.00  0.00    -0.030 C 
HETATM    3  C   UNL     1      41.408 -13.352   1.586  1.00  0.00     0.056 C 
HETATM    4  C   UNL     1      40.449 -12.635   2.517  1.00  0.00     0.056 A 
HETATM    5  C   UNL     1      39.605 -11.618   2.130  1.00  0.00     0.012 A 
HETATM    6  S   UNL     1      38.719 -11.038   3.461  1.00  0.00    -0.055 SA
HETATM    7  C   UNL     1      39.478 -12.190   4.458  1.00  0.00     0.174 A 
HETATM    8  N   UNL     1      40.359 -12.967   3.862  1.00  0.00    -0.227 NA
HETATM    9  C   UNL     1      39.451 -11.073   0.762  1.00  0.00     0.055 C 
HETATM   10  C   UNL     1      39.876 -12.125  -0.295  1.00  0.00     0.012 C 
HETATM   11  C   UNL     1      38.708 -13.088  -0.767  1.00  0.00     0.008 C 
HETATM   12  C   UNL     1      37.592 -12.247  -1.458  1.00  0.00     0.020 C 
HETATM   13  C   UNL     1      39.266 -14.057  -1.852  1.00  0.00     0.128 C 
HETATM   14  C   UNL     1      40.510 -14.807  -1.396  1.00  0.00     0.033 C 
HETATM   15  C   UNL     1      41.631 -13.849  -1.022  1.00  0.00     0.013 C 
ENDROOT
BRANCH   3  16
HETATM   16  C   UNL     1      41.379 -14.877   1.800  1.00  0.00     0.114 C 
BRANCH  16  17
HETATM   17  C   UNL     1      42.553 -15.354   2.636  1.00  0.00     0.218 C 
HETATM   18  N   UNL     1      42.442 -16.649   3.065  1.00  0.00    -0.357 N 
HETATM   19  H   UNL     1      41.489 -16.989   3.174  1.00  0.00     0.162 HD
HETATM   20  O   UNL     1      43.516 -14.632   2.876  1.00  0.00    -0.274 OA
BRANCH  18  21
HETATM   21  C   UNL     1      43.450 -17.255   3.899  1.00  0.00     0.161 C 
BRANCH  21  22
HETATM   22  C   UNL     1      43.714 -18.665   3.443  1.00  0.00    -0.041 A 
HETATM   23  C   UNL     1      44.497 -19.520   4.233  1.00  0.00     0.009 A 
HETATM   24  C   UNL     1      44.781 -20.819   3.810  1.00  0.00     0.001 A 
HETATM   25  C   UNL     1      44.285 -21.276   2.591  1.00  0.00     0.000 A 
HETATM   26  C   UNL     1      43.506 -20.435   1.798  1.00  0.00     0.001 A 
HETATM   27  C   UNL     1      43.221 -19.135   2.220  1.00  0.00     0.009 A 
ENDBRANCH  21  22
ENDBRANCH  18  21
ENDBRANCH  16  17
ENDBRANCH   3  16
BRANCH  11  28
HETATM   28  C   UNL     1      38.030 -13.862   0.395  1.00  0.00     0.176 C 
BRANCH  28  29
HETATM   29  O   UNL     1      36.788 -13.291   0.795  1.00  0.00    -0.400 OA
HETATM   30  H   UNL     1      36.563 -13.696   1.661  1.00  0.00     0.209 HD
ENDBRANCH  28  29
ENDBRANCH  11  28
BRANCH   7  31
HETATM   31  N   UNL     1      39.192 -12.318   5.792  1.00  0.00    -0.304 N 
HETATM   32  C   UNL     1      39.862 -11.740   6.849  1.00  0.00     0.247 C 
HETATM   33  O   UNL     1      40.844 -11.004   6.807  1.00  0.00    -0.271 OA
HETATM   34  H   UNL     1      38.408 -12.922   6.009  1.00  0.00     0.171 HD
BRANCH  32  35
HETATM   35  C   UNL     1      39.205 -12.083   8.189  1.00  0.00     0.270 C 
BRANCH  35  36
HETATM   36  O   UNL     1      39.043 -10.953   9.041  1.00  0.00    -0.387 OA
HETATM   37  C   UNL     1      39.948 -10.980  10.141  1.00  0.00     0.202 C 
ENDBRANCH  35  36
ENDBRANCH  32  35
ENDBRANCH   7  31
BRANCH  13  38
HETATM   38  O   UNL     1      38.281 -15.022  -2.230  1.00  0.00    -0.395 OA
HETATM   39  H   UNL     1      38.262 -15.707  -1.536  1.00  0.00     0.210 HD
ENDBRANCH  13  38
TORSDOF 10
ENDMDL
MODEL 6
REMARK VINA RESULT:      -7.3      1.738      2.128
REMARK  10 active torsions:
REMARK  status: ('A' for Active; 'I' for Inactive)
REMARK    1  A    between atoms: C_3  and  C_4 
REMARK    2  A    between atoms: C_4  and  C_5 
REMARK       I    between atoms: C_5  and  N_6 
REMARK    3  A    between atoms: N_6  and  C_7 
REMARK    4  A    between atoms: C_7  and  C_8 
REMARK    5  A    between atoms: C_18  and  N_19 
REMARK       I    between atoms: N_19  and  C_20 
REMARK    6  A    between atoms: C_20  and  C_21 
REMARK    7  A    between atoms: C_21  and  O_22 
REMARK    8  A    between atoms: C_28  and  C_29 
REMARK    9  A    between atoms: C_29  and  O_30 
REMARK   10  A    between atoms: C_32  and  O_33 
ROOT
HETATM    1  C   UNL     1      39.852 -17.320   2.859  1.00  0.00     0.016 C 
HETATM    2  C   UNL     1      40.885 -16.176   3.158  1.00  0.00    -0.030 C 
HETATM    3  C   UNL     1      41.737 -16.030   1.798  1.00  0.00     0.056 C 
HETATM    4  C   UNL     1      41.164 -14.950   0.901  1.00  0.00     0.056 A 
HETATM    5  C   UNL     1      40.031 -14.222   1.188  1.00  0.00     0.012 A 
HETATM    6  S   UNL     1      39.680 -13.139  -0.075  1.00  0.00    -0.055 SA
HETATM    7  C   UNL     1      41.067 -13.673  -0.907  1.00  0.00     0.174 A 
HETATM    8  N   UNL     1      41.763 -14.616  -0.306  1.00  0.00    -0.227 NA
HETATM    9  C   UNL     1      39.202 -14.329   2.410  1.00  0.00     0.055 C 
HETATM   10  C   UNL     1      40.037 -14.893   3.588  1.00  0.00     0.012 C 
HETATM   11  C   UNL     1      40.794 -13.792   4.442  1.00  0.00     0.008 C 
HETATM   12  C   UNL     1      39.749 -12.844   5.104  1.00  0.00     0.020 C 
HETATM   13  C   UNL     1      41.552 -14.496   5.608  1.00  0.00     0.128 C 
HETATM   14  C   UNL     1      42.468 -15.615   5.131  1.00  0.00     0.033 C 
HETATM   15  C   UNL     1      41.693 -16.687   4.379  1.00  0.00     0.013 C 
ENDROOT
BRANCH   3  16
HETATM   16  C   UNL     1      43.267 -15.911   1.929  1.00  0.00     0.114 C 
BRANCH  16  17
HETATM   17  C   UNL     1      43.971 -17.204   1.556  1.00  0.00     0.218 C 
HETATM   18  N   UNL     1      43.225 -18.330   1.784  1.00  0.00    -0.357 N 
HETATM   19  H   UNL     1      42.536 -18.250   2.528  1.00  0.00     0.162 HD
HETATM   20  O   UNL     1      45.099 -17.215   1.076  1.00  0.00    -0.274 OA
BRANCH  18  21
HETATM   21  C   UNL     1      43.749 -19.647   1.519  1.00  0.00     0.161 C 
BRANCH  21  22
HETATM   22  C   UNL     1      44.133 -20.317   2.810  1.00  0.00    -0.041 A 
HETATM   23  C   UNL     1      44.392 -21.696   2.832  1.00  0.00     0.009 A 
HETATM   24  C   UNL     1      44.715 -22.340   4.027  1.00  0.00     0.001 A 
HETATM   25  C   UNL     1      44.780 -21.612   5.213  1.00  0.00     0.000 A 
HETATM   26  C   UNL     1      44.524 -20.241   5.203  1.00  0.00     0.001 A 
HETATM   27  C   UNL     1      44.202 -19.595   4.008  1.00  0.00     0.009 A 
ENDBRANCH  21  22
ENDBRANCH  18  21
ENDBRANCH  16  17
ENDBRANCH   3  16
BRANCH  11  28
HETATM   28  C   UNL     1      41.743 -12.896   3.604  1.00  0.00     0.176 C 
BRANCH  28  29
HETATM   29  O   UNL     1      41.930 -11.602   4.167  1.00  0.00    -0.400 OA
HETATM   30  H   UNL     1      42.234 -11.021   3.436  1.00  0.00     0.209 HD
ENDBRANCH  28  29
ENDBRANCH  11  28
BRANCH   7  31
HETATM   31  N   UNL     1      41.450 -13.155  -2.116  1.00  0.00    -0.304 N 
HETATM   32  C   UNL     1      42.445 -12.231  -2.353  1.00  0.00     0.247 C 
HETATM   33  O   UNL     1      43.178 -11.688  -1.532  1.00  0.00    -0.271 OA
HETATM   34  H   UNL     1      40.920 -13.488  -2.913  1.00  0.00     0.171 HD
BRANCH  32  35
HETATM   35  C   UNL     1      42.603 -11.943  -3.849  1.00  0.00     0.270 C 
BRANCH  35  36
HETATM   36  O   UNL     1      41.714 -10.935  -4.322  1.00  0.00    -0.387 OA
HETATM   37  C   UNL     1      42.394  -9.717  -4.610  1.00  0.00     0.202 C 
ENDBRANCH  35  36
ENDBRANCH  32  35
ENDBRANCH   7  31
BRANCH  13  38
HETATM   38  O   UNL     1      42.343 -13.559   6.342  1.00  0.00    -0.395 OA
HETATM   39  H   UNL     1      42.104 -13.649   7.283  1.00  0.00     0.210 HD
ENDBRANCH  13  38
TORSDOF 10
ENDMDL
MODEL 7
REMARK VINA RESULT:      -7.2      3.911      7.271
REMARK  10 active torsions:
REMARK  status: ('A' for Active; 'I' for Inactive)
REMARK    1  A    between atoms: C_3  and  C_4 
REMARK    2  A    between atoms: C_4  and  C_5 
REMARK       I    between atoms: C_5  and  N_6 
REMARK    3  A    between atoms: N_6  and  C_7 
REMARK    4  A    between atoms: C_7  and  C_8 
REMARK    5  A    between atoms: C_18  and  N_19 
REMARK       I    between atoms: N_19  and  C_20 
REMARK    6  A    between atoms: C_20  and  C_21 
REMARK    7  A    between atoms: C_21  and  O_22 
REMARK    8  A    between atoms: C_28  and  C_29 
REMARK    9  A    between atoms: C_29  and  O_30 
REMARK   10  A    between atoms: C_32  and  O_33 
ROOT
HETATM    1  C   UNL     1      44.180 -13.963   5.547  1.00  0.00     0.016 C 
HETATM    2  C   UNL     1      42.719 -14.449   5.242  1.00  0.00    -0.030 C 
HETATM    3  C   UNL     1      41.856 -13.094   5.109  1.00  0.00     0.056 C 
HETATM    4  C   UNL     1      41.751 -12.648   3.663  1.00  0.00     0.056 A 
HETATM    5  C   UNL     1      42.358 -13.289   2.606  1.00  0.00     0.012 A 
HETATM    6  S   UNL     1      42.046 -12.467   1.150  1.00  0.00    -0.055 SA
HETATM    7  C   UNL     1      41.099 -11.337   2.001  1.00  0.00     0.174 A 
HETATM    8  N   UNL     1      41.015 -11.528   3.301  1.00  0.00    -0.227 NA
HETATM    9  C   UNL     1      43.175 -14.522   2.675  1.00  0.00     0.055 C 
HETATM   10  C   UNL     1      42.801 -15.354   3.930  1.00  0.00     0.012 C 
HETATM   11  C   UNL     1      41.622 -16.390   3.702  1.00  0.00     0.008 C 
HETATM   12  C   UNL     1      42.055 -17.439   2.634  1.00  0.00     0.020 C 
HETATM   13  C   UNL     1      41.386 -17.178   5.025  1.00  0.00     0.128 C 
HETATM   14  C   UNL     1      41.158 -16.270   6.226  1.00  0.00     0.033 C 
HETATM   15  C   UNL     1      42.343 -15.342   6.454  1.00  0.00     0.013 C 
ENDROOT
BRANCH   3  16
HETATM   16  C   UNL     1      40.491 -13.050   5.821  1.00  0.00     0.114 C 
BRANCH  16  17
HETATM   17  C   UNL     1      40.430 -11.945   6.861  1.00  0.00     0.218 C 
HETATM   18  N   UNL     1      41.648 -11.605   7.385  1.00  0.00    -0.357 N 
HETATM   19  H   UNL     1      42.343 -12.348   7.383  1.00  0.00     0.162 HD
HETATM   20  O   UNL     1      39.373 -11.405   7.173  1.00  0.00    -0.274 OA
BRANCH  18  21
HETATM   21  C   UNL     1      41.772 -10.599   8.410  1.00  0.00     0.161 C 
BRANCH  21  22
HETATM   22  C   UNL     1      43.010 -10.849   9.228  1.00  0.00    -0.041 A 
HETATM   23  C   UNL     1      44.009 -11.706   8.742  1.00  0.00     0.009 A 
HETATM   24  C   UNL     1      45.147 -11.976   9.503  1.00  0.00     0.001 A 
HETATM   25  C   UNL     1      45.297 -11.392  10.759  1.00  0.00     0.000 A 
HETATM   26  C   UNL     1      44.311 -10.539  11.252  1.00  0.00     0.001 A 
HETATM   27  C   UNL     1      43.172 -10.268  10.491  1.00  0.00     0.009 A 
ENDBRANCH  21  22
ENDBRANCH  18  21
ENDBRANCH  16  17
ENDBRANCH   3  16
BRANCH  11  28
HETATM   28  C   UNL     1      40.312 -15.740   3.184  1.00  0.00     0.176 C 
BRANCH  28  29
HETATM   29  O   UNL     1      39.586 -16.581   2.293  1.00  0.00    -0.400 OA
HETATM   30  H   UNL     1      39.780 -17.505   2.562  1.00  0.00     0.209 HD
ENDBRANCH  28  29
ENDBRANCH  11  28
BRANCH   7  31
HETATM   31  N   UNL     1      40.453 -10.298   1.383  1.00  0.00    -0.304 N 
HETATM   32  C   UNL     1      39.297 -10.360   0.634  1.00  0.00     0.247 C 
HETATM   33  O   UNL     1      38.624 -11.351   0.370  1.00  0.00    -0.271 OA
HETATM   34  H   UNL     1      40.898  -9.394   1.484  1.00  0.00     0.171 HD
BRANCH  32  35
HETATM   35  C   UNL     1      38.863  -8.972   0.153  1.00  0.00     0.270 C 
BRANCH  35  36
HETATM   36  O   UNL     1      38.827  -8.003   1.196  1.00  0.00    -0.387 OA
HETATM   37  C   UNL     1      37.597  -8.035   1.912  1.00  0.00     0.202 C 
ENDBRANCH  35  36
ENDBRANCH  32  35
ENDBRANCH   7  31
BRANCH  13  38
HETATM   38  O   UNL     1      40.257 -18.047   4.907  1.00  0.00    -0.395 OA
HETATM   39  H   UNL     1      39.479 -17.563   5.243  1.00  0.00     0.210 HD
ENDBRANCH  13  38
TORSDOF 10
ENDMDL
MODEL 8
REMARK VINA RESULT:      -7.0      3.158      6.209
REMARK  10 active torsions:
REMARK  status: ('A' for Active; 'I' for Inactive)
REMARK    1  A    between atoms: C_3  and  C_4 
REMARK    2  A    between atoms: C_4  and  C_5 
REMARK       I    between atoms: C_5  and  N_6 
REMARK    3  A    between atoms: N_6  and  C_7 
REMARK    4  A    between atoms: C_7  and  C_8 
REMARK    5  A    between atoms: C_18  and  N_19 
REMARK       I    between atoms: N_19  and  C_20 
REMARK    6  A    between atoms: C_20  and  C_21 
REMARK    7  A    between atoms: C_21  and  O_22 
REMARK    8  A    between atoms: C_28  and  C_29 
REMARK    9  A    between atoms: C_29  and  O_30 
REMARK   10  A    between atoms: C_32  and  O_33 
ROOT
HETATM    1  C   UNL     1      44.422 -14.522   3.586  1.00  0.00     0.016 C 
HETATM    2  C   UNL     1      42.943 -15.035   3.459  1.00  0.00    -0.030 C 
HETATM    3  C   UNL     1      42.233 -14.580   4.833  1.00  0.00     0.056 C 
HETATM    4  C   UNL     1      41.530 -13.246   4.674  1.00  0.00     0.056 A 
HETATM    5  C   UNL     1      41.539 -12.496   3.520  1.00  0.00     0.012 A 
HETATM    6  S   UNL     1      40.678 -11.046   3.743  1.00  0.00    -0.055 SA
HETATM    7  C   UNL     1      40.316 -11.517   5.339  1.00  0.00     0.174 A 
HETATM    8  N   UNL     1      40.809 -12.678   5.716  1.00  0.00    -0.227 NA
HETATM    9  C   UNL     1      42.189 -12.857   2.240  1.00  0.00     0.055 C 
HETATM   10  C   UNL     1      42.348 -14.395   2.123  1.00  0.00     0.012 C 
HETATM   11  C   UNL     1      41.108 -15.134   1.468  1.00  0.00     0.008 C 
HETATM   12  C   UNL     1      40.923 -14.635   0.004  1.00  0.00     0.020 C 
HETATM   13  C   UNL     1      41.424 -16.658   1.378  1.00  0.00     0.128 C 
HETATM   14  C   UNL     1      41.840 -17.259   2.714  1.00  0.00     0.033 C 
HETATM   15  C   UNL     1      43.076 -16.569   3.273  1.00  0.00     0.013 C 
ENDROOT
BRANCH   3  16
HETATM   16  C   UNL     1      41.344 -15.615   5.547  1.00  0.00     0.114 C 
BRANCH  16  17
HETATM   17  C   UNL     1      42.141 -16.486   6.501  1.00  0.00     0.218 C 
HETATM   18  N   UNL     1      43.494 -16.447   6.293  1.00  0.00    -0.357 N 
HETATM   19  H   UNL     1      43.780 -16.235   5.340  1.00  0.00     0.162 HD
HETATM   20  O   UNL     1      41.602 -17.143   7.386  1.00  0.00    -0.274 OA
BRANCH  18  21
HETATM   21  C   UNL     1      44.401 -17.239   7.085  1.00  0.00     0.161 C 
BRANCH  21  22
HETATM   22  C   UNL     1      44.428 -18.654   6.574  1.00  0.00    -0.041 A 
HETATM   23  C   UNL     1      44.970 -18.931   5.310  1.00  0.00     0.009 A 
HETATM   24  C   UNL     1      44.972 -20.232   4.806  1.00  0.00     0.001 A 
HETATM   25  C   UNL     1      44.430 -21.270   5.561  1.00  0.00     0.000 A 
HETATM   26  C   UNL     1      43.890 -21.007   6.819  1.00  0.00     0.001 A 
HETATM   27  C   UNL     1      43.888 -19.705   7.325  1.00  0.00     0.009 A 
ENDBRANCH  21  22
ENDBRANCH  18  21
ENDBRANCH  16  17
ENDBRANCH   3  16
BRANCH  11  28
HETATM   28  C   UNL     1      39.767 -14.873   2.203  1.00  0.00     0.176 C 
BRANCH  28  29
HETATM   29  O   UNL     1      38.626 -15.136   1.392  1.00  0.00    -0.400 OA
HETATM   30  H   UNL     1      37.844 -14.848   1.910  1.00  0.00     0.209 HD
ENDBRANCH  28  29
ENDBRANCH  11  28
BRANCH   7  31
HETATM   31  N   UNL     1      39.554 -10.750   6.182  1.00  0.00    -0.304 N 
HETATM   32  C   UNL     1      40.000  -9.869   7.144  1.00  0.00     0.247 C 
HETATM   33  O   UNL     1      41.161  -9.601   7.438  1.00  0.00    -0.271 OA
HETATM   34  H   UNL     1      38.552 -10.870   6.084  1.00  0.00     0.171 HD
BRANCH  32  35
HETATM   35  C   UNL     1      38.836  -9.164   7.845  1.00  0.00     0.270 C 
BRANCH  35  36
HETATM   36  O   UNL     1      37.998  -8.439   6.950  1.00  0.00    -0.387 OA
HETATM   37  C   UNL     1      38.657  -7.299   6.408  1.00  0.00     0.202 C 
ENDBRANCH  35  36
ENDBRANCH  32  35
ENDBRANCH   7  31
BRANCH  13  38
HETATM   38  O   UNL     1      40.292 -17.387   0.898  1.00  0.00    -0.395 OA
HETATM   39  H   UNL     1      40.415 -17.520  -0.060  1.00  0.00     0.210 HD
ENDBRANCH  13  38
TORSDOF 10
ENDMDL
MODEL 9
REMARK VINA RESULT:      -7.0      2.777      6.642
REMARK  10 active torsions:
REMARK  status: ('A' for Active; 'I' for Inactive)
REMARK    1  A    between atoms: C_3  and  C_4 
REMARK    2  A    between atoms: C_4  and  C_5 
REMARK       I    between atoms: C_5  and  N_6 
REMARK    3  A    between atoms: N_6  and  C_7 
REMARK    4  A    between atoms: C_7  and  C_8 
REMARK    5  A    between atoms: C_18  and  N_19 
REMARK       I    between atoms: N_19  and  C_20 
REMARK    6  A    between atoms: C_20  and  C_21 
REMARK    7  A    between atoms: C_21  and  O_22 
REMARK    8  A    between atoms: C_28  and  C_29 
REMARK    9  A    between atoms: C_29  and  O_30 
REMARK   10  A    between atoms: C_32  and  O_33 
ROOT
HETATM    1  C   UNL     1      44.009 -13.711   4.442  1.00  0.00     0.016 C 
HETATM    2  C   UNL     1      42.957 -14.846   4.711  1.00  0.00    -0.030 C 
HETATM    3  C   UNL     1      41.571 -14.265   4.130  1.00  0.00     0.056 C 
HETATM    4  C   UNL     1      41.338 -14.719   2.702  1.00  0.00     0.056 A 
HETATM    5  C   UNL     1      42.222 -15.488   1.978  1.00  0.00     0.012 A 
HETATM    6  S   UNL     1      41.632 -15.755   0.405  1.00  0.00    -0.055 SA
HETATM    7  C   UNL     1      40.229 -14.870   0.790  1.00  0.00     0.174 A 
HETATM    8  N   UNL     1      40.183 -14.378   2.011  1.00  0.00    -0.227 NA
HETATM    9  C   UNL     1      43.514 -16.031   2.456  1.00  0.00     0.055 C 
HETATM   10  C   UNL     1      43.512 -16.164   4.001  1.00  0.00     0.012 C 
HETATM   11  C   UNL     1      42.962 -17.550   4.539  1.00  0.00     0.008 C 
HETATM   12  C   UNL     1      43.882 -18.702   4.035  1.00  0.00     0.020 C 
HETATM   13  C   UNL     1      43.058 -17.556   6.094  1.00  0.00     0.128 C 
HETATM   14  C   UNL     1      42.378 -16.355   6.737  1.00  0.00     0.033 C 
HETATM   15  C   UNL     1      42.983 -15.047   6.249  1.00  0.00     0.013 C 
ENDROOT
BRANCH   3  16
HETATM   16  C   UNL     1      40.310 -14.438   4.998  1.00  0.00     0.114 C 
BRANCH  16  17
HETATM   17  C   UNL     1      39.831 -13.117   5.572  1.00  0.00     0.218 C 
HETATM   18  N   UNL     1      40.810 -12.164   5.670  1.00  0.00    -0.357 N 
HETATM   19  H   UNL     1      41.755 -12.523   5.778  1.00  0.00     0.162 HD
HETATM   20  O   UNL     1      38.662 -12.934   5.895  1.00  0.00    -0.274 OA
BRANCH  18  21
HETATM   21  C   UNL     1      40.540 -10.861   6.224  1.00  0.00     0.161 C 
BRANCH  21  22
HETATM   22  C   UNL     1      40.878 -10.847   7.690  1.00  0.00    -0.041 A 
HETATM   23  C   UNL     1      39.854 -10.949   8.645  1.00  0.00     0.009 A 
HETATM   24  C   UNL     1      40.146 -10.901  10.009  1.00  0.00     0.001 A 
HETATM   25  C   UNL     1      41.465 -10.750  10.432  1.00  0.00     0.000 A 
HETATM   26  C   UNL     1      42.489 -10.648   9.492  1.00  0.00     0.001 A 
HETATM   27  C   UNL     1      42.199 -10.696   8.127  1.00  0.00     0.009 A 
ENDBRANCH  21  22
ENDBRANCH  18  21
ENDBRANCH  16  17
ENDBRANCH   3  16
BRANCH  11  28
HETATM   28  C   UNL     1      41.525 -17.881   4.055  1.00  0.00     0.176 C 
BRANCH  28  29
HETATM   29  O   UNL     1      40.540 -17.699   5.067  1.00  0.00    -0.400 OA
HETATM   30  H   UNL     1      40.677 -18.419   5.721  1.00  0.00     0.209 HD
ENDBRANCH  28  29
ENDBRANCH  11  28
BRANCH   7  31
HETATM   31  N   UNL     1      39.204 -14.683  -0.100  1.00  0.00    -0.304 N 
HETATM   32  C   UNL     1      39.237 -13.960  -1.273  1.00  0.00     0.247 C 
HETATM   33  O   UNL     1      40.183 -13.340  -1.748  1.00  0.00    -0.271 OA
HETATM   34  H   UNL     1      38.327 -15.119   0.158  1.00  0.00     0.171 HD
BRANCH  32  35
HETATM   35  C   UNL     1      37.901 -14.032  -2.017  1.00  0.00     0.270 C 
BRANCH  35  36
HETATM   36  O   UNL     1      37.934 -14.902  -3.146  1.00  0.00    -0.387 OA
HETATM   37  C   UNL     1      36.848 -14.661  -4.036  1.00  0.00     0.202 C 
ENDBRANCH  35  36
ENDBRANCH  32  35
ENDBRANCH   7  31
BRANCH  13  38
HETATM   38  O   UNL     1      42.469 -18.741   6.637  1.00  0.00    -0.395 OA
HETATM   39  H   UNL     1      41.508 -18.692   6.473  1.00  0.00     0.210 HD
ENDBRANCH  13  38
TORSDOF 10
ENDMDL
MODEL 10
REMARK VINA RESULT:      -6.9      2.282      6.276
REMARK  10 active torsions:
REMARK  status: ('A' for Active; 'I' for Inactive)
REMARK    1  A    between atoms: C_3  and  C_4 
REMARK    2  A    between atoms: C_4  and  C_5 
REMARK       I    between atoms: C_5  and  N_6 
REMARK    3  A    between atoms: N_6  and  C_7 
REMARK    4  A    between atoms: C_7  and  C_8 
REMARK    5  A    between atoms: C_18  and  N_19 
REMARK       I    between atoms: N_19  and  C_20 
REMARK    6  A    between atoms: C_20  and  C_21 
REMARK    7  A    between atoms: C_21  and  O_22 
REMARK    8  A    between atoms: C_28  and  C_29 
REMARK    9  A    between atoms: C_29  and  O_30 
REMARK   10  A    between atoms: C_32  and  O_33 
ROOT
HETATM    1  C   UNL     1      38.500 -12.261   1.013  1.00  0.00     0.016 C 
HETATM    2  C   UNL     1      39.995 -12.125   0.553  1.00  0.00    -0.030 C 
HETATM    3  C   UNL     1      40.822 -13.062   1.570  1.00  0.00     0.056 C 
HETATM    4  C   UNL     1      41.024 -14.453   0.999  1.00  0.00     0.056 A 
HETATM    5  C   UNL     1      40.520 -14.876  -0.211  1.00  0.00     0.012 A 
HETATM    6  S   UNL     1      40.917 -16.507  -0.485  1.00  0.00    -0.055 SA
HETATM    7  C   UNL     1      41.761 -16.542   0.993  1.00  0.00     0.174 A 
HETATM    8  N   UNL     1      41.750 -15.419   1.682  1.00  0.00    -0.227 NA
HETATM    9  C   UNL     1      39.740 -14.065  -1.172  1.00  0.00     0.055 C 
HETATM   10  C   UNL     1      40.042 -12.555  -0.984  1.00  0.00     0.012 C 
HETATM   11  C   UNL     1      41.267 -12.021  -1.838  1.00  0.00     0.008 C 
HETATM   12  C   UNL     1      40.950 -12.184  -3.354  1.00  0.00     0.020 C 
HETATM   13  C   UNL     1      41.425 -10.492  -1.581  1.00  0.00     0.128 C 
HETATM   14  C   UNL     1      41.531 -10.144  -0.103  1.00  0.00     0.033 C 
HETATM   15  C   UNL     1      40.304 -10.610   0.667  1.00  0.00     0.013 C 
ENDROOT
BRANCH   3  16
HETATM   16  C   UNL     1      42.127 -12.491   2.158  1.00  0.00     0.114 C 
BRANCH  16  17
HETATM   17  C   UNL     1      42.146 -12.568   3.674  1.00  0.00     0.218 C 
HETATM   18  N   UNL     1      42.724 -13.707   4.168  1.00  0.00    -0.357 N 
HETATM   19  H   UNL     1      42.672 -14.519   3.556  1.00  0.00     0.162 HD
HETATM   20  O   UNL     1      41.696 -11.668   4.376  1.00  0.00    -0.274 OA
BRANCH  18  21
HETATM   21  C   UNL     1      42.798 -13.961   5.584  1.00  0.00     0.161 C 
BRANCH  21  22
HETATM   22  C   UNL     1      43.050 -15.423   5.832  1.00  0.00    -0.041 A 
HETATM   23  C   UNL     1      42.502 -16.384   4.969  1.00  0.00     0.009 A 
HETATM   24  C   UNL     1      42.697 -17.746   5.204  1.00  0.00     0.001 A 
HETATM   25  C   UNL     1      43.442 -18.161   6.306  1.00  0.00     0.000 A 
HETATM   26  C   UNL     1      43.991 -17.215   7.170  1.00  0.00     0.001 A 
HETATM   27  C   UNL     1      43.797 -15.852   6.936  1.00  0.00     0.009 A 
ENDBRANCH  21  22
ENDBRANCH  18  21
ENDBRANCH  16  17
ENDBRANCH   3  16
BRANCH  11  28
HETATM   28  C   UNL     1      42.591 -12.783  -1.573  1.00  0.00     0.176 C 
BRANCH  28  29
HETATM   29  O   UNL     1      43.247 -13.194  -2.769  1.00  0.00    -0.400 OA
HETATM   30  H   UNL     1      42.576 -13.149  -3.483  1.00  0.00     0.209 HD
ENDBRANCH  28  29
ENDBRANCH  11  28
BRANCH   7  31
HETATM   31  N   UNL     1      42.419 -17.656   1.443  1.00  0.00    -0.304 N 
HETATM   32  C   UNL     1      43.781 -17.826   1.574  1.00  0.00     0.247 C 
HETATM   33  O   UNL     1      44.669 -17.021   1.311  1.00  0.00    -0.271 OA
HETATM   34  H   UNL     1      41.824 -18.439   1.687  1.00  0.00     0.171 HD
BRANCH  32  35
HETATM   35  C   UNL     1      44.124 -19.199   2.161  1.00  0.00     0.270 C 
BRANCH  35  36
HETATM   36  O   UNL     1      43.102 -20.169   1.951  1.00  0.00    -0.387 OA
HETATM   37  C   UNL     1      43.636 -21.481   1.801  1.00  0.00     0.202 C 
ENDBRANCH  35  36
ENDBRANCH  32  35
ENDBRANCH   7  31
BRANCH  13  38
HETATM   38  O   UNL     1      42.586  -9.981  -2.240  1.00  0.00    -0.395 OA
HETATM   39  H   UNL     1      42.721 -10.512  -3.048  1.00  0.00     0.210 HD
ENDBRANCH  13  38
TORSDOF 10
ENDMDL
