MODEL 1
REMARK VINA RESULT:      -7.7      0.000      0.000
REMARK  8 active torsions:
REMARK  status: ('A' for Active; 'I' for Inactive)
REMARK    1  A    between atoms: C_2  and  C_3 
REMARK    2  A    between atoms: C_3  and  O_4 
REMARK    3  A    between atoms: O_4  and  C_5 
REMARK    4  A    between atoms: C_6  and  O_7 
REMARK    5  A    between atoms: C_10  and  C_11 
REMARK    6  A    between atoms: C_11  and  N_12 
REMARK    7  A    between atoms: N_12  and  C_13 
REMARK    8  A    between atoms: C_20  and  C_21 
REMARK       I    between atoms: C_21  and  N_22 
ROOT
HETATM    1  C   UNL     1      44.014 -15.092   6.662  1.00  0.00     0.009 A 
HETATM    2  C   UNL     1      44.082 -16.497   6.645  1.00  0.00     0.039 A 
HETATM    3  C   UNL     1      43.649 -17.223   5.516  1.00  0.00     0.030 A 
HETATM    4  C   UNL     1      43.120 -16.526   4.439  1.00  0.00     0.063 A 
HETATM    5  N   UNL     1      42.783 -17.479   3.521  1.00  0.00    -0.277 N 
HETATM    6  H   UNL     1      42.362 -17.332   2.611  1.00  0.00     0.189 HD
HETATM    7  N   UNL     1      43.051 -18.740   3.902  1.00  0.00    -0.168 NA
HETATM    8  C   UNL     1      43.585 -18.596   5.136  1.00  0.00     0.156 A 
HETATM    9  C   UNL     1      42.994 -15.137   4.425  1.00  0.00     0.034 A 
HETATM   10  C   UNL     1      43.440 -14.443   5.561  1.00  0.00     0.026 A 
ENDROOT
BRANCH   1  11
HETATM   11  N   UNL     1      44.387 -14.427   7.836  1.00  0.00    -0.289 NA
HETATM   12  H   UNL     1      44.719 -15.071   8.551  1.00  0.00     0.128 HD
BRANCH  11  13
HETATM   13  C   UNL     1      45.198 -13.221   7.758  1.00  0.00     0.131 C 
BRANCH  13  14
HETATM   14  C   UNL     1      44.761 -12.253   8.834  1.00  0.00    -0.042 A 
HETATM   15  C   UNL     1      43.553 -11.549   8.726  1.00  0.00     0.048 A 
HETATM   16  C   UNL     1      43.148 -10.665   9.736  1.00  0.00     0.102 A 
HETATM   17  C   UNL     1      43.944 -10.499  10.885  1.00  0.00     0.102 A 
HETATM   18  C   UNL     1      45.159 -11.182  10.981  1.00  0.00     0.040 A 
HETATM   19  C   UNL     1      45.564 -12.049   9.963  1.00  0.00     0.011 A 
BRANCH  16  20
HETATM   20  O   UNL     1      41.964  -9.970   9.701  1.00  0.00    -0.353 OA
HETATM   21  C   UNL     1      40.783 -10.734   9.904  1.00  0.00     0.210 C 
ENDBRANCH  16  20
BRANCH  17  22
HETATM   22  O   UNL     1      43.460  -9.636  11.836  1.00  0.00    -0.348 OA
BRANCH  22  23
HETATM   23  C   UNL     1      43.145 -10.176  13.118  1.00  0.00     0.175 C 
BRANCH  23  24
HETATM   24  C   UNL     1      43.141  -9.026  14.121  1.00  0.00     0.022 C 
HETATM   25  C   UNL     1      42.308  -9.351  15.348  1.00  0.00     0.007 C 
ENDBRANCH  23  24
ENDBRANCH  22  23
ENDBRANCH  17  22
ENDBRANCH  13  14
ENDBRANCH  11  13
ENDBRANCH   1  11
BRANCH   8  26
HETATM   26  C   UNL     1      44.023 -19.760   5.920  1.00  0.00     0.270 C 
HETATM   27  N   UNL     1      44.781 -20.655   5.214  1.00  0.00    -0.365 N 
HETATM   28  H   UNL     1      44.979 -20.461   4.240  1.00  0.00     0.159 HD
HETATM   29  H   UNL     1      45.129 -21.485   5.668  1.00  0.00     0.159 HD
HETATM   30  O   UNL     1      43.756 -19.944   7.103  1.00  0.00    -0.266 OA
ENDBRANCH   8  26
TORSDOF 8
ENDMDL
MODEL 2
REMARK VINA RESULT:      -7.5      7.278     10.784
REMARK  8 active torsions:
REMARK  status: ('A' for Active; 'I' for Inactive)
REMARK    1  A    between atoms: C_2  and  C_3 
REMARK    2  A    between atoms: C_3  and  O_4 
REMARK    3  A    between atoms: O_4  and  C_5 
REMARK    4  A    between atoms: C_6  and  O_7 
REMARK    5  A    between atoms: C_10  and  C_11 
REMARK    6  A    between atoms: C_11  and  N_12 
REMARK    7  A    between atoms: N_12  and  C_13 
REMARK    8  A    between atoms: C_20  and  C_21 
REMARK       I    between atoms: C_21  and  N_22 
ROOT
HETATM    1  C   UNL     1      41.048 -15.226  -0.956  1.00  0.00     0.009 A 
HETATM    2  C   UNL     1      41.593 -13.945  -0.753  1.00  0.00     0.039 A 
HETATM    3  C   UNL     1      41.917 -13.121  -1.851  1.00  0.00     0.030 A 
HETATM    4  C   UNL     1      41.721 -13.613  -3.133  1.00  0.00     0.063 A 
HETATM    5  N   UNL     1      42.128 -12.615  -3.971  1.00  0.00    -0.277 N 
HETATM    6  H   UNL     1      42.132 -12.628  -4.985  1.00  0.00     0.189 HD
HETATM    7  N   UNL     1      42.569 -11.508  -3.347  1.00  0.00    -0.168 NA
HETATM    8  C   UNL     1      42.446 -11.809  -2.035  1.00  0.00     0.156 A 
HETATM    9  C   UNL     1      41.220 -14.891  -3.385  1.00  0.00     0.034 A 
HETATM   10  C   UNL     1      40.902 -15.684  -2.272  1.00  0.00     0.026 A 
ENDROOT
BRANCH   1  11
HETATM   11  N   UNL     1      40.816 -16.029   0.167  1.00  0.00    -0.289 NA
HETATM   12  H   UNL     1      40.944 -17.018  -0.036  1.00  0.00     0.128 HD
BRANCH  11  13
HETATM   13  C   UNL     1      41.379 -15.652   1.455  1.00  0.00     0.131 C 
BRANCH  13  14
HETATM   14  C   UNL     1      42.241 -16.780   1.975  1.00  0.00    -0.042 A 
HETATM   15  C   UNL     1      42.057 -17.293   3.268  1.00  0.00     0.048 A 
HETATM   16  C   UNL     1      42.851 -18.349   3.736  1.00  0.00     0.102 A 
HETATM   17  C   UNL     1      43.824 -18.923   2.896  1.00  0.00     0.102 A 
HETATM   18  C   UNL     1      44.023 -18.395   1.618  1.00  0.00     0.040 A 
HETATM   19  C   UNL     1      43.240 -17.331   1.164  1.00  0.00     0.011 A 
BRANCH  16  20
HETATM   20  O   UNL     1      42.700 -18.913   4.979  1.00  0.00    -0.353 OA
HETATM   21  C   UNL     1      43.128 -18.123   6.081  1.00  0.00     0.210 C 
ENDBRANCH  16  20
BRANCH  17  22
HETATM   22  O   UNL     1      44.538 -19.970   3.425  1.00  0.00    -0.348 OA
BRANCH  22  23
HETATM   23  C   UNL     1      44.621 -21.167   2.654  1.00  0.00     0.175 C 
BRANCH  23  24
HETATM   24  C   UNL     1      44.504 -22.349   3.613  1.00  0.00     0.022 C 
HETATM   25  C   UNL     1      44.875 -21.961   5.033  1.00  0.00     0.007 C 
ENDBRANCH  23  24
ENDBRANCH  22  23
ENDBRANCH  17  22
ENDBRANCH  13  14
ENDBRANCH  11  13
ENDBRANCH   1  11
BRANCH   8  26
HETATM   26  C   UNL     1      42.828 -10.848  -0.991  1.00  0.00     0.270 C 
HETATM   27  N   UNL     1      41.781 -10.403  -0.231  1.00  0.00    -0.365 N 
HETATM   28  H   UNL     1      40.852 -10.755  -0.432  1.00  0.00     0.159 HD
HETATM   29  H   UNL     1      41.945  -9.742   0.512  1.00  0.00     0.159 HD
HETATM   30  O   UNL     1      43.974 -10.458  -0.788  1.00  0.00    -0.266 OA
ENDBRANCH   8  26
TORSDOF 8
ENDMDL
MODEL 3
REMARK VINA RESULT:      -7.5      7.017     10.344
REMARK  8 active torsions:
REMARK  status: ('A' for Active; 'I' for Inactive)
REMARK    1  A    between atoms: C_2  and  C_3 
REMARK    2  A    between atoms: C_3  and  O_4 
REMARK    3  A    between atoms: O_4  and  C_5 
REMARK    4  A    between atoms: C_6  and  O_7 
REMARK    5  A    between atoms: C_10  and  C_11 
REMARK    6  A    between atoms: C_11  and  N_12 
REMARK    7  A    between atoms: N_12  and  C_13 
REMARK    8  A    between atoms: C_20  and  C_21 
REMARK       I    between atoms: C_21  and  N_22 
ROOT
HETATM    1  C   UNL     1      39.585 -15.199   1.370  1.00  0.00     0.009 A 
HETATM    2  C   UNL     1      40.298 -15.117   0.160  1.00  0.00     0.039 A 
HETATM    3  C   UNL     1      39.930 -14.180  -0.828  1.00  0.00     0.030 A 
HETATM    4  C   UNL     1      38.830 -13.367  -0.598  1.00  0.00     0.063 A 
HETATM    5  N   UNL     1      38.714 -12.588  -1.714  1.00  0.00    -0.277 N 
HETATM    6  H   UNL     1      38.013 -11.879  -1.897  1.00  0.00     0.189 HD
HETATM    7  N   UNL     1      39.648 -12.818  -2.653  1.00  0.00    -0.168 NA
HETATM    8  C   UNL     1      40.406 -13.803  -2.119  1.00  0.00     0.156 A 
HETATM    9  C   UNL     1      38.068 -13.438   0.569  1.00  0.00     0.034 A 
HETATM   10  C   UNL     1      38.463 -14.377   1.535  1.00  0.00     0.026 A 
ENDROOT
BRANCH   1  11
HETATM   11  N   UNL     1      39.947 -16.197   2.282  1.00  0.00    -0.289 NA
HETATM   12  H   UNL     1      40.101 -17.094   1.827  1.00  0.00     0.128 HD
BRANCH  11  13
HETATM   13  C   UNL     1      40.945 -15.917   3.303  1.00  0.00     0.131 C 
BRANCH  13  14
HETATM   14  C   UNL     1      41.926 -17.065   3.374  1.00  0.00    -0.042 A 
HETATM   15  C   UNL     1      42.558 -17.403   4.580  1.00  0.00     0.048 A 
HETATM   16  C   UNL     1      43.454 -18.479   4.638  1.00  0.00     0.102 A 
HETATM   17  C   UNL     1      43.707 -19.248   3.487  1.00  0.00     0.102 A 
HETATM   18  C   UNL     1      43.097 -18.895   2.280  1.00  0.00     0.040 A 
HETATM   19  C   UNL     1      42.218 -17.811   2.224  1.00  0.00     0.011 A 
BRANCH  16  20
HETATM   20  O   UNL     1      44.081 -18.877   5.794  1.00  0.00    -0.353 OA
HETATM   21  C   UNL     1      45.139 -18.045   6.251  1.00  0.00     0.210 C 
ENDBRANCH  16  20
BRANCH  17  22
HETATM   22  O   UNL     1      44.577 -20.299   3.640  1.00  0.00    -0.348 OA
BRANCH  22  23
HETATM   23  C   UNL     1      44.495 -21.364   2.695  1.00  0.00     0.175 C 
BRANCH  23  24
HETATM   24  C   UNL     1      44.612 -22.678   3.464  1.00  0.00     0.022 C 
HETATM   25  C   UNL     1      44.850 -22.446   4.945  1.00  0.00     0.007 C 
ENDBRANCH  23  24
ENDBRANCH  22  23
ENDBRANCH  17  22
ENDBRANCH  13  14
ENDBRANCH  11  13
ENDBRANCH   1  11
BRANCH   8  26
HETATM   26  C   UNL     1      41.559 -14.357  -2.842  1.00  0.00     0.270 C 
HETATM   27  N   UNL     1      42.687 -13.585  -2.769  1.00  0.00    -0.365 N 
HETATM   28  H   UNL     1      42.649 -12.720  -2.243  1.00  0.00     0.159 HD
HETATM   29  H   UNL     1      43.530 -13.884  -3.232  1.00  0.00     0.159 HD
HETATM   30  O   UNL     1      41.550 -15.415  -3.462  1.00  0.00    -0.266 OA
ENDBRANCH   8  26
TORSDOF 8
ENDMDL
MODEL 4
REMARK VINA RESULT:      -7.5      7.806     10.702
REMARK  8 active torsions:
REMARK  status: ('A' for Active; 'I' for Inactive)
REMARK    1  A    between atoms: C_2  and  C_3 
REMARK    2  A    between atoms: C_3  and  O_4 
REMARK    3  A    between atoms: O_4  and  C_5 
REMARK    4  A    between atoms: C_6  and  O_7 
REMARK    5  A    between atoms: C_10  and  C_11 
REMARK    6  A    between atoms: C_11  and  N_12 
REMARK    7  A    between atoms: N_12  and  C_13 
REMARK    8  A    between atoms: C_20  and  C_21 
REMARK       I    between atoms: C_21  and  N_22 
ROOT
HETATM    1  C   UNL     1      41.745 -14.735  -0.129  1.00  0.00     0.009 A 
HETATM    2  C   UNL     1      40.861 -15.133  -1.148  1.00  0.00     0.039 A 
HETATM    3  C   UNL     1      40.085 -14.178  -1.839  1.00  0.00     0.030 A 
HETATM    4  C   UNL     1      40.185 -12.845  -1.468  1.00  0.00     0.063 A 
HETATM    5  N   UNL     1      39.325 -12.175  -2.290  1.00  0.00    -0.277 N 
HETATM    6  H   UNL     1      39.134 -11.179  -2.298  1.00  0.00     0.189 HD
HETATM    7  N   UNL     1      38.674 -12.954  -3.172  1.00  0.00    -0.168 NA
HETATM    8  C   UNL     1      39.133 -14.197  -2.902  1.00  0.00     0.156 A 
HETATM    9  C   UNL     1      41.017 -12.407  -0.438  1.00  0.00     0.034 A 
HETATM   10  C   UNL     1      41.780 -13.380   0.226  1.00  0.00     0.026 A 
ENDROOT
BRANCH   1  11
HETATM   11  N   UNL     1      42.433 -15.731   0.574  1.00  0.00    -0.289 NA
HETATM   12  H   UNL     1      42.898 -15.365   1.401  1.00  0.00     0.128 HD
BRANCH  11  13
HETATM   13  C   UNL     1      41.793 -17.015   0.822  1.00  0.00     0.131 C 
BRANCH  13  14
HETATM   14  C   UNL     1      42.547 -17.749   1.907  1.00  0.00    -0.042 A 
HETATM   15  C   UNL     1      43.265 -18.920   1.623  1.00  0.00     0.048 A 
HETATM   16  C   UNL     1      43.973 -19.585   2.633  1.00  0.00     0.102 A 
HETATM   17  C   UNL     1      43.991 -19.063   3.940  1.00  0.00     0.102 A 
HETATM   18  C   UNL     1      43.255 -17.911   4.228  1.00  0.00     0.040 A 
HETATM   19  C   UNL     1      42.537 -17.262   3.221  1.00  0.00     0.011 A 
BRANCH  16  20
HETATM   20  O   UNL     1      44.718 -20.718   2.412  1.00  0.00    -0.353 OA
HETATM   21  C   UNL     1      44.051 -21.787   1.754  1.00  0.00     0.210 C 
ENDBRANCH  16  20
BRANCH  17  22
HETATM   22  O   UNL     1      44.731 -19.763   4.861  1.00  0.00    -0.348 OA
BRANCH  22  23
HETATM   23  C   UNL     1      44.156 -19.969   6.150  1.00  0.00     0.175 C 
BRANCH  23  24
HETATM   24  C   UNL     1      44.030 -21.475   6.369  1.00  0.00     0.022 C 
HETATM   25  C   UNL     1      44.901 -22.260   5.405  1.00  0.00     0.007 C 
ENDBRANCH  23  24
ENDBRANCH  22  23
ENDBRANCH  17  22
ENDBRANCH  13  14
ENDBRANCH  11  13
ENDBRANCH   1  11
BRANCH   8  26
HETATM   26  C   UNL     1      38.663 -15.367  -3.657  1.00  0.00     0.270 C 
HETATM   27  N   UNL     1      37.379 -15.740  -3.367  1.00  0.00    -0.365 N 
HETATM   28  H   UNL     1      36.863 -15.204  -2.680  1.00  0.00     0.159 HD
HETATM   29  H   UNL     1      36.968 -16.530  -3.837  1.00  0.00     0.159 HD
HETATM   30  O   UNL     1      39.333 -15.978  -4.484  1.00  0.00    -0.266 OA
ENDBRANCH   8  26
TORSDOF 8
ENDMDL
MODEL 5
REMARK VINA RESULT:      -7.5      6.335      9.686
REMARK  8 active torsions:
REMARK  status: ('A' for Active; 'I' for Inactive)
REMARK    1  A    between atoms: C_2  and  C_3 
REMARK    2  A    between atoms: C_3  and  O_4 
REMARK    3  A    between atoms: O_4  and  C_5 
REMARK    4  A    between atoms: C_6  and  O_7 
REMARK    5  A    between atoms: C_10  and  C_11 
REMARK    6  A    between atoms: C_11  and  N_12 
REMARK    7  A    between atoms: N_12  and  C_13 
REMARK    8  A    between atoms: C_20  and  C_21 
REMARK       I    between atoms: C_21  and  N_22 
ROOT
HETATM    1  C   UNL     1      40.150 -15.454   1.216  1.00  0.00     0.009 A 
HETATM    2  C   UNL     1      40.642 -15.185  -0.074  1.00  0.00     0.039 A 
HETATM    3  C   UNL     1      40.502 -13.902  -0.643  1.00  0.00     0.030 A 
HETATM    4  C   UNL     1      39.836 -12.923   0.079  1.00  0.00     0.063 A 
HETATM    5  N   UNL     1      39.846 -11.814  -0.718  1.00  0.00    -0.277 N 
HETATM    6  H   UNL     1      39.442 -10.907  -0.513  1.00  0.00     0.189 HD
HETATM    7  N   UNL     1      40.467 -11.982  -1.899  1.00  0.00    -0.168 NA
HETATM    8  C   UNL     1      40.875 -13.271  -1.867  1.00  0.00     0.156 A 
HETATM    9  C   UNL     1      39.295 -13.152   1.344  1.00  0.00     0.034 A 
HETATM   10  C   UNL     1      39.457 -14.437   1.886  1.00  0.00     0.026 A 
ENDROOT
BRANCH   1  11
HETATM   11  N   UNL     1      40.250 -16.763   1.701  1.00  0.00    -0.289 NA
HETATM   12  H   UNL     1      39.344 -17.223   1.751  1.00  0.00     0.128 HD
BRANCH  11  13
HETATM   13  C   UNL     1      41.290 -17.645   1.193  1.00  0.00     0.131 C 
BRANCH  13  14
HETATM   14  C   UNL     1      42.247 -17.987   2.312  1.00  0.00    -0.042 A 
HETATM   15  C   UNL     1      43.085 -19.109   2.229  1.00  0.00     0.048 A 
HETATM   16  C   UNL     1      43.981 -19.409   3.264  1.00  0.00     0.102 A 
HETATM   17  C   UNL     1      44.064 -18.567   4.389  1.00  0.00     0.102 A 
HETATM   18  C   UNL     1      43.211 -17.464   4.483  1.00  0.00     0.040 A 
HETATM   19  C   UNL     1      42.309 -17.180   3.455  1.00  0.00     0.011 A 
BRANCH  16  20
HETATM   20  O   UNL     1      44.846 -20.476   3.228  1.00  0.00    -0.353 OA
HETATM   21  C   UNL     1      44.423 -21.600   2.468  1.00  0.00     0.210 C 
ENDBRANCH  16  20
BRANCH  17  22
HETATM   22  O   UNL     1      44.985 -18.921   5.343  1.00  0.00    -0.348 OA
BRANCH  22  23
HETATM   23  C   UNL     1      45.139 -18.053   6.464  1.00  0.00     0.175 C 
BRANCH  23  24
HETATM   24  C   UNL     1      44.229 -18.565   7.578  1.00  0.00     0.022 C 
HETATM   25  C   UNL     1      43.447 -17.439   8.230  1.00  0.00     0.007 C 
ENDBRANCH  23  24
ENDBRANCH  22  23
ENDBRANCH  17  22
ENDBRANCH  13  14
ENDBRANCH  11  13
ENDBRANCH   1  11
BRANCH   8  26
HETATM   26  C   UNL     1      41.610 -13.868  -2.991  1.00  0.00     0.270 C 
HETATM   27  N   UNL     1      42.947 -13.577  -3.002  1.00  0.00    -0.365 N 
HETATM   28  H   UNL     1      43.322 -12.993  -2.263  1.00  0.00     0.159 HD
HETATM   29  H   UNL     1      43.534 -13.943  -3.733  1.00  0.00     0.159 HD
HETATM   30  O   UNL     1      41.104 -14.573  -3.858  1.00  0.00    -0.266 OA
ENDBRANCH   8  26
TORSDOF 8
ENDMDL
MODEL 6
REMARK VINA RESULT:      -7.5      4.931      9.122
REMARK  8 active torsions:
REMARK  status: ('A' for Active; 'I' for Inactive)
REMARK    1  A    between atoms: C_2  and  C_3 
REMARK    2  A    between atoms: C_3  and  O_4 
REMARK    3  A    between atoms: O_4  and  C_5 
REMARK    4  A    between atoms: C_6  and  O_7 
REMARK    5  A    between atoms: C_10  and  C_11 
REMARK    6  A    between atoms: C_11  and  N_12 
REMARK    7  A    between atoms: N_12  and  C_13 
REMARK    8  A    between atoms: C_20  and  C_21 
REMARK       I    between atoms: C_21  and  N_22 
ROOT
HETATM    1  C   UNL     1      44.507 -19.447   4.997  1.00  0.00     0.009 A 
HETATM    2  C   UNL     1      44.415 -18.085   5.338  1.00  0.00     0.039 A 
HETATM    3  C   UNL     1      44.071 -17.694   6.649  1.00  0.00     0.030 A 
HETATM    4  C   UNL     1      43.790 -18.679   7.585  1.00  0.00     0.063 A 
HETATM    5  N   UNL     1      43.483 -18.011   8.735  1.00  0.00    -0.277 N 
HETATM    6  H   UNL     1      43.220 -18.413   9.628  1.00  0.00     0.189 HD
HETATM    7  N   UNL     1      43.545 -16.671   8.635  1.00  0.00    -0.168 NA
HETATM    8  C   UNL     1      43.905 -16.462   7.348  1.00  0.00     0.156 A 
HETATM    9  C   UNL     1      43.829 -20.041   7.285  1.00  0.00     0.034 A 
HETATM   10  C   UNL     1      44.180 -20.398   5.973  1.00  0.00     0.026 A 
ENDROOT
BRANCH   1  11
HETATM   11  N   UNL     1      44.778 -19.776   3.664  1.00  0.00    -0.289 NA
HETATM   12  H   UNL     1      45.522 -20.466   3.584  1.00  0.00     0.128 HD
BRANCH  11  13
HETATM   13  C   UNL     1      43.680 -20.037   2.746  1.00  0.00     0.131 C 
BRANCH  13  14
HETATM   14  C   UNL     1      43.111 -18.724   2.259  1.00  0.00    -0.042 A 
HETATM   15  C   UNL     1      42.053 -18.099   2.935  1.00  0.00     0.048 A 
HETATM   16  C   UNL     1      41.543 -16.874   2.485  1.00  0.00     0.102 A 
HETATM   17  C   UNL     1      42.111 -16.245   1.361  1.00  0.00     0.102 A 
HETATM   18  C   UNL     1      43.148 -16.880   0.673  1.00  0.00     0.040 A 
HETATM   19  C   UNL     1      43.641 -18.110   1.116  1.00  0.00     0.011 A 
BRANCH  16  20
HETATM   20  O   UNL     1      40.528 -16.199   3.120  1.00  0.00    -0.353 OA
HETATM   21  C   UNL     1      40.865 -15.580   4.355  1.00  0.00     0.210 C 
ENDBRANCH  16  20
BRANCH  17  22
HETATM   22  O   UNL     1      41.568 -15.036   1.005  1.00  0.00    -0.348 OA
BRANCH  22  23
HETATM   23  C   UNL     1      40.692 -15.012  -0.121  1.00  0.00     0.175 C 
BRANCH  23  24
HETATM   24  C   UNL     1      41.448 -14.378  -1.286  1.00  0.00     0.022 C 
HETATM   25  C   UNL     1      41.038 -14.979  -2.618  1.00  0.00     0.007 C 
ENDBRANCH  23  24
ENDBRANCH  22  23
ENDBRANCH  17  22
ENDBRANCH  13  14
ENDBRANCH  11  13
ENDBRANCH   1  11
BRANCH   8  26
HETATM   26  C   UNL     1      44.087 -15.104   6.816  1.00  0.00     0.270 C 
HETATM   27  N   UNL     1      44.344 -14.159   7.772  1.00  0.00    -0.365 N 
HETATM   28  H   UNL     1      44.390 -14.451   8.741  1.00  0.00     0.159 HD
HETATM   29  H   UNL     1      44.484 -13.199   7.504  1.00  0.00     0.159 HD
HETATM   30  O   UNL     1      44.023 -14.807   5.628  1.00  0.00    -0.266 OA
ENDBRANCH   8  26
TORSDOF 8
ENDMDL
MODEL 7
REMARK VINA RESULT:      -7.5      1.689      2.492
REMARK  8 active torsions:
REMARK  status: ('A' for Active; 'I' for Inactive)
REMARK    1  A    between atoms: C_2  and  C_3 
REMARK    2  A    between atoms: C_3  and  O_4 
REMARK    3  A    between atoms: O_4  and  C_5 
REMARK    4  A    between atoms: C_6  and  O_7 
REMARK    5  A    between atoms: C_10  and  C_11 
REMARK    6  A    between atoms: C_11  and  N_12 
REMARK    7  A    between atoms: N_12  and  C_13 
REMARK    8  A    between atoms: C_20  and  C_21 
REMARK       I    between atoms: C_21  and  N_22 
ROOT
HETATM    1  C   UNL     1      43.712 -15.287   6.428  1.00  0.00     0.009 A 
HETATM    2  C   UNL     1      42.997 -15.474   5.231  1.00  0.00     0.039 A 
HETATM    3  C   UNL     1      43.015 -16.720   4.571  1.00  0.00     0.030 A 
HETATM    4  C   UNL     1      43.782 -17.745   5.105  1.00  0.00     0.063 A 
HETATM    5  N   UNL     1      43.615 -18.803   4.258  1.00  0.00    -0.277 N 
HETATM    6  H   UNL     1      44.035 -19.723   4.334  1.00  0.00     0.189 HD
HETATM    7  N   UNL     1      42.800 -18.560   3.217  1.00  0.00    -0.168 NA
HETATM    8  C   UNL     1      42.423 -17.274   3.397  1.00  0.00     0.156 A 
HETATM    9  C   UNL     1      44.540 -17.596   6.267  1.00  0.00     0.034 A 
HETATM   10  C   UNL     1      44.496 -16.346   6.904  1.00  0.00     0.026 A 
ENDROOT
BRANCH   1  11
HETATM   11  N   UNL     1      43.718 -14.009   7.000  1.00  0.00    -0.289 NA
HETATM   12  H   UNL     1      42.953 -13.880   7.657  1.00  0.00     0.128 HD
BRANCH  11  13
HETATM   13  C   UNL     1      44.967 -13.441   7.487  1.00  0.00     0.131 C 
BRANCH  13  14
HETATM   14  C   UNL     1      44.670 -12.448   8.588  1.00  0.00    -0.042 A 
HETATM   15  C   UNL     1      43.514 -11.655   8.553  1.00  0.00     0.048 A 
HETATM   16  C   UNL     1      43.239 -10.748   9.586  1.00  0.00     0.102 A 
HETATM   17  C   UNL     1      44.113 -10.648  10.685  1.00  0.00     0.102 A 
HETATM   18  C   UNL     1      45.277 -11.421  10.707  1.00  0.00     0.040 A 
HETATM   19  C   UNL     1      45.554 -12.310   9.666  1.00  0.00     0.011 A 
BRANCH  16  20
HETATM   20  O   UNL     1      42.111  -9.965   9.623  1.00  0.00    -0.353 OA
HETATM   21  C   UNL     1      40.880 -10.650   9.821  1.00  0.00     0.210 C 
ENDBRANCH  16  20
BRANCH  17  22
HETATM   22  O   UNL     1      43.754  -9.756  11.664  1.00  0.00    -0.348 OA
BRANCH  22  23
HETATM   23  C   UNL     1      43.256 -10.287  12.890  1.00  0.00     0.175 C 
BRANCH  23  24
HETATM   24  C   UNL     1      43.306  -9.176  13.935  1.00  0.00     0.022 C 
HETATM   25  C   UNL     1      42.380  -9.459  15.105  1.00  0.00     0.007 C 
ENDBRANCH  23  24
ENDBRANCH  22  23
ENDBRANCH  17  22
ENDBRANCH  13  14
ENDBRANCH  11  13
ENDBRANCH   1  11
BRANCH   8  26
HETATM   26  C   UNL     1      41.513 -16.605   2.457  1.00  0.00     0.270 C 
HETATM   27  N   UNL     1      40.228 -16.486   2.914  1.00  0.00    -0.365 N 
HETATM   28  H   UNL     1      40.004 -16.852   3.831  1.00  0.00     0.159 HD
HETATM   29  H   UNL     1      39.531 -16.040   2.340  1.00  0.00     0.159 HD
HETATM   30  O   UNL     1      41.839 -16.176   1.355  1.00  0.00    -0.266 OA
ENDBRANCH   8  26
TORSDOF 8
ENDMDL
MODEL 8
REMARK VINA RESULT:      -7.4      6.295     10.258
REMARK  8 active torsions:
REMARK  status: ('A' for Active; 'I' for Inactive)
REMARK    1  A    between atoms: C_2  and  C_3 
REMARK    2  A    between atoms: C_3  and  O_4 
REMARK    3  A    between atoms: O_4  and  C_5 
REMARK    4  A    between atoms: C_6  and  O_7 
REMARK    5  A    between atoms: C_10  and  C_11 
REMARK    6  A    between atoms: C_11  and  N_12 
REMARK    7  A    between atoms: N_12  and  C_13 
REMARK    8  A    between atoms: C_20  and  C_21 
REMARK       I    between atoms: C_21  and  N_22 
ROOT
HETATM    1  C   UNL     1      40.516 -13.783   0.624  1.00  0.00     0.009 A 
HETATM    2  C   UNL     1      39.905 -14.357  -0.505  1.00  0.00     0.039 A 
HETATM    3  C   UNL     1      40.535 -14.308  -1.766  1.00  0.00     0.030 A 
HETATM    4  C   UNL     1      41.751 -13.650  -1.877  1.00  0.00     0.063 A 
HETATM    5  N   UNL     1      42.102 -13.756  -3.193  1.00  0.00    -0.277 N 
HETATM    6  H   UNL     1      42.934 -13.384  -3.638  1.00  0.00     0.189 HD
HETATM    7  N   UNL     1      41.222 -14.432  -3.952  1.00  0.00    -0.168 NA
HETATM    8  C   UNL     1      40.246 -14.778  -3.082  1.00  0.00     0.156 A 
HETATM    9  C   UNL     1      42.378 -13.031  -0.796  1.00  0.00     0.034 A 
HETATM   10  C   UNL     1      41.728 -13.102   0.447  1.00  0.00     0.026 A 
ENDROOT
BRANCH   1  11
HETATM   11  N   UNL     1      39.812 -13.795   1.834  1.00  0.00    -0.289 NA
HETATM   12  H   UNL     1      39.117 -13.053   1.880  1.00  0.00     0.128 HD
BRANCH  11  13
HETATM   13  C   UNL     1      39.313 -15.053   2.368  1.00  0.00     0.131 C 
BRANCH  13  14
HETATM   14  C   UNL     1      40.475 -15.989   2.614  1.00  0.00    -0.042 A 
HETATM   15  C   UNL     1      41.334 -15.802   3.707  1.00  0.00     0.048 A 
HETATM   16  C   UNL     1      42.400 -16.683   3.937  1.00  0.00     0.102 A 
HETATM   17  C   UNL     1      42.599 -17.784   3.082  1.00  0.00     0.102 A 
HETATM   18  C   UNL     1      41.758 -17.955   1.980  1.00  0.00     0.040 A 
HETATM   19  C   UNL     1      40.708 -17.064   1.747  1.00  0.00     0.011 A 
BRANCH  16  20
HETATM   20  O   UNL     1      43.257 -16.569   5.004  1.00  0.00    -0.353 OA
HETATM   21  C   UNL     1      42.733 -15.934   6.163  1.00  0.00     0.210 C 
ENDBRANCH  16  20
BRANCH  17  22
HETATM   22  O   UNL     1      43.648 -18.611   3.395  1.00  0.00    -0.348 OA
BRANCH  22  23
HETATM   23  C   UNL     1      44.230 -19.367   2.336  1.00  0.00     0.175 C 
BRANCH  23  24
HETATM   24  C   UNL     1      44.353 -20.814   2.807  1.00  0.00     0.022 C 
HETATM   25  C   UNL     1      43.977 -21.797   1.714  1.00  0.00     0.007 C 
ENDBRANCH  23  24
ENDBRANCH  22  23
ENDBRANCH  17  22
ENDBRANCH  13  14
ENDBRANCH  11  13
ENDBRANCH   1  11
BRANCH   8  26
HETATM   26  C   UNL     1      39.070 -15.544  -3.517  1.00  0.00     0.270 C 
HETATM   27  N   UNL     1      39.286 -16.892  -3.614  1.00  0.00    -0.365 N 
HETATM   28  H   UNL     1      40.205 -17.252  -3.386  1.00  0.00     0.159 HD
HETATM   29  H   UNL     1      38.538 -17.500  -3.903  1.00  0.00     0.159 HD
HETATM   30  O   UNL     1      37.975 -15.054  -3.776  1.00  0.00    -0.266 OA
ENDBRANCH   8  26
TORSDOF 8
ENDMDL
MODEL 9
REMARK VINA RESULT:      -7.3      7.467     10.446
REMARK  8 active torsions:
REMARK  status: ('A' for Active; 'I' for Inactive)
REMARK    1  A    between atoms: C_2  and  C_3 
REMARK    2  A    between atoms: C_3  and  O_4 
REMARK    3  A    between atoms: O_4  and  C_5 
REMARK    4  A    between atoms: C_6  and  O_7 
REMARK    5  A    between atoms: C_10  and  C_11 
REMARK    6  A    between atoms: C_11  and  N_12 
REMARK    7  A    between atoms: N_12  and  C_13 
REMARK    8  A    between atoms: C_20  and  C_21 
REMARK       I    between atoms: C_21  and  N_22 
ROOT
HETATM    1  C   UNL     1      41.180 -15.251  -0.370  1.00  0.00     0.009 A 
HETATM    2  C   UNL     1      41.769 -13.974  -0.417  1.00  0.00     0.039 A 
HETATM    3  C   UNL     1      41.996 -13.334  -1.654  1.00  0.00     0.030 A 
HETATM    4  C   UNL     1      41.661 -14.004  -2.821  1.00  0.00     0.063 A 
HETATM    5  N   UNL     1      42.000 -13.156  -3.836  1.00  0.00    -0.277 N 
HETATM    6  H   UNL     1      41.901 -13.320  -4.832  1.00  0.00     0.189 HD
HETATM    7  N   UNL     1      42.525 -11.985  -3.433  1.00  0.00    -0.168 NA
HETATM    8  C   UNL     1      42.530 -12.083  -2.084  1.00  0.00     0.156 A 
HETATM    9  C   UNL     1      41.111 -15.286  -2.827  1.00  0.00     0.034 A 
HETATM   10  C   UNL     1      40.892 -15.894  -1.581  1.00  0.00     0.026 A 
ENDROOT
BRANCH   1  11
HETATM   11  N   UNL     1      41.047 -15.870   0.879  1.00  0.00    -0.289 NA
HETATM   12  H   UNL     1      40.295 -15.464   1.430  1.00  0.00     0.128 HD
BRANCH  11  13
HETATM   13  C   UNL     1      41.080 -17.322   0.974  1.00  0.00     0.131 C 
BRANCH  13  14
HETATM   14  C   UNL     1      42.092 -17.733   2.019  1.00  0.00    -0.042 A 
HETATM   15  C   UNL     1      42.932 -18.838   1.816  1.00  0.00     0.048 A 
HETATM   16  C   UNL     1      43.878 -19.202   2.784  1.00  0.00     0.102 A 
HETATM   17  C   UNL     1      44.011 -18.440   3.960  1.00  0.00     0.102 A 
HETATM   18  C   UNL     1      43.157 -17.355   4.173  1.00  0.00     0.040 A 
HETATM   19  C   UNL     1      42.204 -17.007   3.212  1.00  0.00     0.011 A 
BRANCH  16  20
HETATM   20  O   UNL     1      44.747 -20.255   2.632  1.00  0.00    -0.353 OA
HETATM   21  C   UNL     1      44.174 -21.483   2.202  1.00  0.00     0.210 C 
ENDBRANCH  16  20
BRANCH  17  22
HETATM   22  O   UNL     1      44.979 -18.851   4.842  1.00  0.00    -0.348 OA
BRANCH  22  23
HETATM   23  C   UNL     1      44.588 -19.073   6.195  1.00  0.00     0.175 C 
BRANCH  23  24
HETATM   24  C   UNL     1      43.655 -20.280   6.219  1.00  0.00     0.022 C 
HETATM   25  C   UNL     1      44.411 -21.581   6.018  1.00  0.00     0.007 C 
ENDBRANCH  23  24
ENDBRANCH  22  23
ENDBRANCH  17  22
ENDBRANCH  13  14
ENDBRANCH  11  13
ENDBRANCH   1  11
BRANCH   8  26
HETATM   26  C   UNL     1      43.036 -10.992  -1.240  1.00  0.00     0.270 C 
HETATM   27  N   UNL     1      43.502  -9.913  -1.942  1.00  0.00    -0.365 N 
HETATM   28  H   UNL     1      43.467  -9.942  -2.954  1.00  0.00     0.159 HD
HETATM   29  H   UNL     1      43.868  -9.115  -1.449  1.00  0.00     0.159 HD
HETATM   30  O   UNL     1      43.051 -11.009  -0.013  1.00  0.00    -0.266 OA
ENDBRANCH   8  26
TORSDOF 8
ENDMDL
MODEL 10
REMARK VINA RESULT:      -7.3      3.296      9.406
REMARK  8 active torsions:
REMARK  status: ('A' for Active; 'I' for Inactive)
REMARK    1  A    between atoms: C_2  and  C_3 
REMARK    2  A    between atoms: C_3  and  O_4 
REMARK    3  A    between atoms: O_4  and  C_5 
REMARK    4  A    between atoms: C_6  and  O_7 
REMARK    5  A    between atoms: C_10  and  C_11 
REMARK    6  A    between atoms: C_11  and  N_12 
REMARK    7  A    between atoms: N_12  and  C_13 
REMARK    8  A    between atoms: C_20  and  C_21 
REMARK       I    between atoms: C_21  and  N_22 
ROOT
HETATM    1  C   UNL     1      43.799 -11.618   9.264  1.00  0.00     0.009 A 
HETATM    2  C   UNL     1      42.620 -11.540  10.027  1.00  0.00     0.039 A 
HETATM    3  C   UNL     1      42.621 -10.905  11.287  1.00  0.00     0.030 A 
HETATM    4  C   UNL     1      43.815 -10.392  11.773  1.00  0.00     0.063 A 
HETATM    5  N   UNL     1      43.511  -9.860  12.993  1.00  0.00    -0.277 N 
HETATM    6  H   UNL     1      44.146  -9.404  13.639  1.00  0.00     0.189 HD
HETATM    7  N   UNL     1      42.219  -9.976  13.346  1.00  0.00    -0.168 NA
HETATM    8  C   UNL     1      41.657 -10.623  12.300  1.00  0.00     0.156 A 
HETATM    9  C   UNL     1      45.017 -10.480  11.071  1.00  0.00     0.034 A 
HETATM   10  C   UNL     1      44.983 -11.112   9.818  1.00  0.00     0.026 A 
ENDROOT
BRANCH   1  11
HETATM   11  N   UNL     1      43.758 -12.325   8.056  1.00  0.00    -0.289 NA
HETATM   12  H   UNL     1      43.575 -11.716   7.262  1.00  0.00     0.128 HD
BRANCH  11  13
HETATM   13  C   UNL     1      44.778 -13.321   7.766  1.00  0.00     0.131 C 
BRANCH  13  14
HETATM   14  C   UNL     1      44.220 -14.345   6.804  1.00  0.00    -0.042 A 
HETATM   15  C   UNL     1      43.593 -13.951   5.612  1.00  0.00     0.048 A 
HETATM   16  C   UNL     1      43.092 -14.908   4.720  1.00  0.00     0.102 A 
HETATM   17  C   UNL     1      43.240 -16.279   5.002  1.00  0.00     0.102 A 
HETATM   18  C   UNL     1      43.842 -16.670   6.200  1.00  0.00     0.040 A 
HETATM   19  C   UNL     1      44.324 -15.711   7.094  1.00  0.00     0.011 A 
BRANCH  16  20
HETATM   20  O   UNL     1      42.495 -14.586   3.525  1.00  0.00    -0.353 OA
HETATM   21  C   UNL     1      42.649 -13.242   3.090  1.00  0.00     0.210 C 
ENDBRANCH  16  20
BRANCH  17  22
HETATM   22  O   UNL     1      42.744 -17.148   4.061  1.00  0.00    -0.348 OA
BRANCH  22  23
HETATM   23  C   UNL     1      43.666 -17.696   3.120  1.00  0.00     0.175 C 
BRANCH  23  24
HETATM   24  C   UNL     1      43.693 -19.209   3.321  1.00  0.00     0.022 C 
HETATM   25  C   UNL     1      43.458 -19.955   2.020  1.00  0.00     0.007 C 
ENDBRANCH  23  24
ENDBRANCH  22  23
ENDBRANCH  17  22
ENDBRANCH  13  14
ENDBRANCH  11  13
ENDBRANCH   1  11
BRANCH   8  26
HETATM   26  C   UNL     1      40.225 -10.953  12.285  1.00  0.00     0.270 C 
HETATM   27  N   UNL     1      39.943 -12.233  12.679  1.00  0.00    -0.365 N 
HETATM   28  H   UNL     1      40.711 -12.839  12.944  1.00  0.00     0.159 HD
HETATM   29  H   UNL     1      38.988 -12.552  12.703  1.00  0.00     0.159 HD
HETATM   30  O   UNL     1      39.334 -10.177  11.957  1.00  0.00    -0.266 OA
ENDBRANCH   8  26
TORSDOF 8
ENDMDL
