MODEL 1
REMARK VINA RESULT:      -8.1      0.000      0.000
REMARK  3 active torsions:
REMARK  status: ('A' for Active; 'I' for Inactive)
REMARK    1  A    between atoms: C_6  and  N_7 
REMARK       I    between atoms: N_7  and  C_8 
REMARK    2  A    between atoms: C_8  and  C_9 
REMARK    3  A    between atoms: C_9  and  C_10 
ROOT
HETATM    1  C   UNL     1      41.258 -15.429   0.398  1.00  0.00     0.286 C 
HETATM    2  N   UNL     1      41.898 -14.931  -0.899  1.00  0.00    -0.056 N 
HETATM    3  H   UNL     1      42.448 -14.098  -0.653  1.00  0.00     0.278 HD
HETATM    4  H   UNL     1      42.635 -15.610  -1.186  1.00  0.00     0.278 HD
HETATM    5  C   UNL     1      40.991 -14.566  -2.034  1.00  0.00     0.209 C 
HETATM    6  C   UNL     1      39.853 -13.665  -1.502  1.00  0.00     0.115 C 
HETATM    7  N   UNL     1      39.179 -14.267  -0.355  1.00  0.00    -0.353 N 
HETATM    8  C   UNL     1      39.814 -14.961   0.638  1.00  0.00     0.249 C 
HETATM    9  O   UNL     1      39.214 -15.231   1.674  1.00  0.00    -0.271 OA
HETATM   10  C   UNL     1      40.474 -15.816  -2.744  1.00  0.00     0.035 C 
HETATM   11  C   UNL     1      39.505 -15.438  -3.864  1.00  0.00     0.002 C 
HETATM   12  C   UNL     1      38.353 -14.582  -3.342  1.00  0.00     0.002 C 
HETATM   13  C   UNL     1      38.855 -13.334  -2.615  1.00  0.00     0.027 C 
HETATM   14  H   UNL     1      38.259 -13.922  -0.085  1.00  0.00     0.163 HD
ENDROOT
BRANCH   1  15
HETATM   15  C   UNL     1      41.338 -16.956   0.544  1.00  0.00     0.146 C 
BRANCH  15  16
HETATM   16  C   UNL     1      42.559 -17.330   1.349  1.00  0.00     0.224 C 
HETATM   17  N   UNL     1      42.415 -18.478   2.091  1.00  0.00    -0.327 N 
HETATM   18  H   UNL     1      41.543 -18.992   2.011  1.00  0.00     0.169 HD
HETATM   19  O   UNL     1      43.557 -16.614   1.256  1.00  0.00    -0.273 OA
BRANCH  17  20
HETATM   20  C   UNL     1      43.350 -19.036   2.994  1.00  0.00     0.036 A 
HETATM   21  C   UNL     1      43.757 -18.421   4.179  1.00  0.00     0.053 A 
HETATM   22  C   UNL     1      44.670 -19.060   5.023  1.00  0.00     0.036 A 
HETATM   23  C   UNL     1      45.186 -20.311   4.699  1.00  0.00     0.024 A 
HETATM   24 CL   UNL     1      45.155 -18.290   6.486  1.00  0.00    -0.084 Cl
HETATM   25  C   UNL     1      44.789 -20.930   3.517  1.00  0.00     0.004 A 
HETATM   26  C   UNL     1      43.878 -20.295   2.670  1.00  0.00     0.029 A 
ENDBRANCH  17  20
ENDBRANCH  15  16
ENDBRANCH   1  15
TORSDOF 3
ENDMDL
MODEL 2
REMARK VINA RESULT:      -8.1      4.176      5.159
REMARK  3 active torsions:
REMARK  status: ('A' for Active; 'I' for Inactive)
REMARK    1  A    between atoms: C_6  and  N_7 
REMARK       I    between atoms: N_7  and  C_8 
REMARK    2  A    between atoms: C_8  and  C_9 
REMARK    3  A    between atoms: C_9  and  C_10 
ROOT
HETATM    1  C   UNL     1      41.698 -15.153   3.344  1.00  0.00     0.286 C 
HETATM    2  N   UNL     1      40.270 -15.342   3.859  1.00  0.00    -0.056 N 
HETATM    3  H   UNL     1      39.703 -15.627   3.049  1.00  0.00     0.278 HD
HETATM    4  H   UNL     1      40.245 -16.192   4.461  1.00  0.00     0.278 HD
HETATM    5  C   UNL     1      39.595 -14.170   4.503  1.00  0.00     0.209 C 
HETATM    6  C   UNL     1      39.788 -12.922   3.612  1.00  0.00     0.115 C 
HETATM    7  N   UNL     1      41.194 -12.707   3.281  1.00  0.00    -0.353 N 
HETATM    8  C   UNL     1      42.082 -13.707   2.992  1.00  0.00     0.249 C 
HETATM    9  O   UNL     1      43.172 -13.432   2.502  1.00  0.00    -0.271 OA
HETATM   10  C   UNL     1      40.103 -13.964   5.930  1.00  0.00     0.035 C 
HETATM   11  C   UNL     1      39.454 -12.734   6.561  1.00  0.00     0.002 C 
HETATM   12  C   UNL     1      39.673 -11.485   5.710  1.00  0.00     0.002 C 
HETATM   13  C   UNL     1      39.183 -11.681   4.275  1.00  0.00     0.027 C 
HETATM   14  H   UNL     1      41.488 -11.793   2.941  1.00  0.00     0.163 HD
ENDROOT
BRANCH   1  15
HETATM   15  C   UNL     1      42.747 -15.751   4.294  1.00  0.00     0.146 C 
BRANCH  15  16
HETATM   16  C   UNL     1      42.695 -17.258   4.230  1.00  0.00     0.224 C 
HETATM   17  N   UNL     1      43.820 -17.839   3.695  1.00  0.00    -0.327 N 
HETATM   18  H   UNL     1      44.591 -17.233   3.430  1.00  0.00     0.169 HD
HETATM   19  O   UNL     1      41.695 -17.823   4.673  1.00  0.00    -0.273 OA
BRANCH  17  20
HETATM   20  C   UNL     1      44.034 -19.214   3.439  1.00  0.00     0.036 A 
HETATM   21  C   UNL     1      44.575 -20.107   4.366  1.00  0.00     0.053 A 
HETATM   22  C   UNL     1      44.729 -21.456   4.032  1.00  0.00     0.036 A 
HETATM   23  C   UNL     1      44.348 -21.928   2.778  1.00  0.00     0.024 A 
HETATM   24 CL   UNL     1      45.390 -22.546   5.189  1.00  0.00    -0.084 Cl
HETATM   25  C   UNL     1      43.812 -21.044   1.847  1.00  0.00     0.004 A 
HETATM   26  C   UNL     1      43.658 -19.694   2.176  1.00  0.00     0.029 A 
ENDBRANCH  17  20
ENDBRANCH  15  16
ENDBRANCH   1  15
TORSDOF 3
ENDMDL
MODEL 3
REMARK VINA RESULT:      -8.0      2.771      3.388
REMARK  3 active torsions:
REMARK  status: ('A' for Active; 'I' for Inactive)
REMARK    1  A    between atoms: C_6  and  N_7 
REMARK       I    between atoms: N_7  and  C_8 
REMARK    2  A    between atoms: C_8  and  C_9 
REMARK    3  A    between atoms: C_9  and  C_10 
ROOT
HETATM    1  C   UNL     1      42.782 -15.543   2.542  1.00  0.00     0.286 C 
HETATM    2  N   UNL     1      41.869 -16.181   1.493  1.00  0.00    -0.056 N 
HETATM    3  H   UNL     1      42.472 -16.445   0.703  1.00  0.00     0.278 HD
HETATM    4  H   UNL     1      41.549 -17.106   1.851  1.00  0.00     0.278 HD
HETATM    5  C   UNL     1      40.739 -15.359   0.954  1.00  0.00     0.209 C 
HETATM    6  C   UNL     1      41.269 -13.961   0.566  1.00  0.00     0.115 C 
HETATM    7  N   UNL     1      42.003 -13.337   1.664  1.00  0.00    -0.353 N 
HETATM    8  C   UNL     1      42.844 -14.008   2.511  1.00  0.00     0.249 C 
HETATM    9  O   UNL     1      43.593 -13.379   3.251  1.00  0.00    -0.271 OA
HETATM   10  C   UNL     1      39.583 -15.299   1.952  1.00  0.00     0.035 C 
HETATM   11  C   UNL     1      38.457 -14.413   1.421  1.00  0.00     0.002 C 
HETATM   12  C   UNL     1      38.962 -13.014   1.073  1.00  0.00     0.002 C 
HETATM   13  C   UNL     1      40.128 -13.059   0.086  1.00  0.00     0.027 C 
HETATM   14  H   UNL     1      42.165 -12.332   1.644  1.00  0.00     0.163 HD
ENDROOT
BRANCH   1  15
HETATM   15  C   UNL     1      42.461 -16.020   3.966  1.00  0.00     0.146 C 
BRANCH  15  16
HETATM   16  C   UNL     1      42.527 -17.526   4.029  1.00  0.00     0.224 C 
HETATM   17  N   UNL     1      43.635 -18.068   3.422  1.00  0.00    -0.327 N 
HETATM   18  H   UNL     1      44.322 -17.432   3.028  1.00  0.00     0.169 HD
HETATM   19  O   UNL     1      41.628 -18.122   4.622  1.00  0.00    -0.273 OA
BRANCH  17  20
HETATM   20  C   UNL     1      43.935 -19.440   3.255  1.00  0.00     0.036 A 
HETATM   21  C   UNL     1      44.495 -20.246   4.249  1.00  0.00     0.053 A 
HETATM   22  C   UNL     1      44.735 -21.600   4.000  1.00  0.00     0.036 A 
HETATM   23  C   UNL     1      44.423 -22.166   2.767  1.00  0.00     0.024 A 
HETATM   24 CL   UNL     1      45.419 -22.582   5.239  1.00  0.00    -0.084 Cl
HETATM   25  C   UNL     1      43.868 -21.369   1.769  1.00  0.00     0.004 A 
HETATM   26  C   UNL     1      43.628 -20.014   2.013  1.00  0.00     0.029 A 
ENDBRANCH  17  20
ENDBRANCH  15  16
ENDBRANCH   1  15
TORSDOF 3
ENDMDL
MODEL 4
REMARK VINA RESULT:      -8.0      4.260      5.040
REMARK  3 active torsions:
REMARK  status: ('A' for Active; 'I' for Inactive)
REMARK    1  A    between atoms: C_6  and  N_7 
REMARK       I    between atoms: N_7  and  C_8 
REMARK    2  A    between atoms: C_8  and  C_9 
REMARK    3  A    between atoms: C_9  and  C_10 
ROOT
HETATM    1  C   UNL     1      42.372 -15.971   4.183  1.00  0.00     0.286 C 
HETATM    2  N   UNL     1      42.711 -15.013   5.326  1.00  0.00    -0.056 N 
HETATM    3  H   UNL     1      42.666 -15.564   6.193  1.00  0.00     0.278 HD
HETATM    4  H   UNL     1      43.723 -14.771   5.266  1.00  0.00     0.278 HD
HETATM    5  C   UNL     1      41.847 -13.802   5.506  1.00  0.00     0.209 C 
HETATM    6  C   UNL     1      40.363 -14.227   5.455  1.00  0.00     0.115 C 
HETATM    7  N   UNL     1      40.067 -15.012   4.259  1.00  0.00    -0.353 N 
HETATM    8  C   UNL     1      40.906 -15.950   3.723  1.00  0.00     0.249 C 
HETATM    9  O   UNL     1      40.490 -16.722   2.865  1.00  0.00    -0.271 OA
HETATM   10  C   UNL     1      42.193 -12.727   4.476  1.00  0.00     0.035 C 
HETATM   11  C   UNL     1      41.271 -11.519   4.628  1.00  0.00     0.002 C 
HETATM   12  C   UNL     1      39.800 -11.920   4.537  1.00  0.00     0.002 C 
HETATM   13  C   UNL     1      39.443 -13.006   5.552  1.00  0.00     0.027 C 
HETATM   14  H   UNL     1      39.097 -15.119   3.965  1.00  0.00     0.163 HD
ENDROOT
BRANCH   1  15
HETATM   15  C   UNL     1      43.298 -15.789   2.971  1.00  0.00     0.146 C 
BRANCH  15  16
HETATM   16  C   UNL     1      43.792 -17.134   2.498  1.00  0.00     0.224 C 
HETATM   17  N   UNL     1      43.437 -18.184   3.311  1.00  0.00    -0.327 N 
HETATM   18  H   UNL     1      42.855 -17.986   4.119  1.00  0.00     0.169 HD
HETATM   19  O   UNL     1      44.426 -17.180   1.443  1.00  0.00    -0.273 OA
BRANCH  17  20
HETATM   20  C   UNL     1      43.812 -19.540   3.170  1.00  0.00     0.036 A 
HETATM   21  C   UNL     1      44.408 -20.297   4.181  1.00  0.00     0.053 A 
HETATM   22  C   UNL     1      44.723 -21.640   3.958  1.00  0.00     0.036 A 
HETATM   23  C   UNL     1      44.452 -22.243   2.733  1.00  0.00     0.024 A 
HETATM   24 CL   UNL     1      45.450 -22.562   5.218  1.00  0.00    -0.084 Cl
HETATM   25  C   UNL     1      43.862 -21.495   1.718  1.00  0.00     0.004 A 
HETATM   26  C   UNL     1      43.546 -20.151   1.936  1.00  0.00     0.029 A 
ENDBRANCH  17  20
ENDBRANCH  15  16
ENDBRANCH   1  15
TORSDOF 3
ENDMDL
MODEL 5
REMARK VINA RESULT:      -7.7      5.145      6.363
REMARK  3 active torsions:
REMARK  status: ('A' for Active; 'I' for Inactive)
REMARK    1  A    between atoms: C_6  and  N_7 
REMARK       I    between atoms: N_7  and  C_8 
REMARK    2  A    between atoms: C_8  and  C_9 
REMARK    3  A    between atoms: C_9  and  C_10 
ROOT
HETATM    1  C   UNL     1      43.794 -15.119   5.965  1.00  0.00     0.286 C 
HETATM    2  N   UNL     1      42.868 -14.907   4.766  1.00  0.00    -0.056 N 
HETATM    3  H   UNL     1      43.464 -14.593   3.989  1.00  0.00     0.278 HD
HETATM    4  H   UNL     1      42.538 -15.839   4.434  1.00  0.00     0.278 HD
HETATM    5  C   UNL     1      41.746 -13.926   4.911  1.00  0.00     0.209 C 
HETATM    6  C   UNL     1      42.292 -12.619   5.527  1.00  0.00     0.115 C 
HETATM    7  N   UNL     1      43.039 -12.872   6.756  1.00  0.00    -0.353 N 
HETATM    8  C   UNL     1      43.875 -13.939   6.947  1.00  0.00     0.249 C 
HETATM    9  O   UNL     1      44.636 -13.954   7.909  1.00  0.00    -0.271 OA
HETATM   10  C   UNL     1      40.596 -14.527   5.718  1.00  0.00     0.035 C 
HETATM   11  C   UNL     1      39.479 -13.503   5.910  1.00  0.00     0.002 C 
HETATM   12  C   UNL     1      39.999 -12.221   6.558  1.00  0.00     0.002 C 
HETATM   13  C   UNL     1      41.160 -11.616   5.770  1.00  0.00     0.027 C 
HETATM   14  H   UNL     1      43.214 -12.101   7.398  1.00  0.00     0.163 HD
ENDROOT
BRANCH   1  15
HETATM   15  C   UNL     1      43.473 -16.410   6.733  1.00  0.00     0.146 C 
BRANCH  15  16
HETATM   16  C   UNL     1      43.098 -17.503   5.761  1.00  0.00     0.224 C 
HETATM   17  N   UNL     1      44.167 -18.078   5.117  1.00  0.00    -0.327 N 
HETATM   18  H   UNL     1      45.100 -17.762   5.366  1.00  0.00     0.169 HD
HETATM   19  O   UNL     1      41.907 -17.797   5.652  1.00  0.00    -0.273 OA
BRANCH  17  20
HETATM   20  C   UNL     1      44.127 -19.066   4.106  1.00  0.00     0.036 A 
HETATM   21  C   UNL     1      44.512 -20.395   4.295  1.00  0.00     0.053 A 
HETATM   22  C   UNL     1      44.416 -21.309   3.242  1.00  0.00     0.036 A 
HETATM   23  C   UNL     1      43.939 -20.913   1.995  1.00  0.00     0.024 A 
HETATM   24 CL   UNL     1      44.887 -22.946   3.493  1.00  0.00    -0.084 Cl
HETATM   25  C   UNL     1      43.557 -19.589   1.797  1.00  0.00     0.004 A 
HETATM   26  C   UNL     1      43.653 -18.672   2.847  1.00  0.00     0.029 A 
ENDBRANCH  17  20
ENDBRANCH  15  16
ENDBRANCH   1  15
TORSDOF 3
ENDMDL
MODEL 6
REMARK VINA RESULT:      -7.7      2.430      3.449
REMARK  3 active torsions:
REMARK  status: ('A' for Active; 'I' for Inactive)
REMARK    1  A    between atoms: C_6  and  N_7 
REMARK       I    between atoms: N_7  and  C_8 
REMARK    2  A    between atoms: C_8  and  C_9 
REMARK    3  A    between atoms: C_9  and  C_10 
ROOT
HETATM    1  C   UNL     1      40.143 -15.780   1.721  1.00  0.00     0.286 C 
HETATM    2  N   UNL     1      38.656 -15.443   1.846  1.00  0.00    -0.056 N 
HETATM    3  H   UNL     1      38.143 -16.216   1.402  1.00  0.00     0.278 HD
HETATM    4  H   UNL     1      38.380 -15.535   2.847  1.00  0.00     0.278 HD
HETATM    5  C   UNL     1      38.173 -14.161   1.239  1.00  0.00     0.209 C 
HETATM    6  C   UNL     1      38.732 -14.039  -0.196  1.00  0.00     0.115 C 
HETATM    7  N   UNL     1      40.181 -14.218  -0.229  1.00  0.00    -0.353 N 
HETATM    8  C   UNL     1      40.865 -15.129   0.530  1.00  0.00     0.249 C 
HETATM    9  O   UNL     1      42.040 -15.375   0.277  1.00  0.00    -0.271 OA
HETATM   10  C   UNL     1      38.538 -12.968   2.122  1.00  0.00     0.035 C 
HETATM   11  C   UNL     1      38.093 -11.660   1.470  1.00  0.00     0.002 C 
HETATM   12  C   UNL     1      38.674 -11.508   0.065  1.00  0.00     0.002 C 
HETATM   13  C   UNL     1      38.329 -12.702  -0.825  1.00  0.00     0.027 C 
HETATM   14  H   UNL     1      40.701 -13.898  -1.044  1.00  0.00     0.163 HD
ENDROOT
BRANCH   1  15
HETATM   15  C   UNL     1      40.920 -15.495   3.016  1.00  0.00     0.146 C 
BRANCH  15  16
HETATM   16  C   UNL     1      41.498 -16.780   3.558  1.00  0.00     0.224 C 
HETATM   17  N   UNL     1      42.583 -17.251   2.856  1.00  0.00    -0.327 N 
HETATM   18  H   UNL     1      42.925 -16.695   2.078  1.00  0.00     0.169 HD
HETATM   19  O   UNL     1      40.985 -17.267   4.566  1.00  0.00    -0.273 OA
BRANCH  17  20
HETATM   20  C   UNL     1      43.286 -18.458   3.076  1.00  0.00     0.036 A 
HETATM   21  C   UNL     1      43.307 -19.527   2.179  1.00  0.00     0.053 A 
HETATM   22  C   UNL     1      44.051 -20.674   2.472  1.00  0.00     0.036 A 
HETATM   23  C   UNL     1      44.778 -20.769   3.655  1.00  0.00     0.024 A 
HETATM   24 CL   UNL     1      44.073 -21.980   1.350  1.00  0.00    -0.084 Cl
HETATM   25  C   UNL     1      44.759 -19.710   4.558  1.00  0.00     0.004 A 
HETATM   26  C   UNL     1      44.016 -18.562   4.270  1.00  0.00     0.029 A 
ENDBRANCH  17  20
ENDBRANCH  15  16
ENDBRANCH   1  15
TORSDOF 3
ENDMDL
MODEL 7
REMARK VINA RESULT:      -7.7      2.688      3.476
REMARK  3 active torsions:
REMARK  status: ('A' for Active; 'I' for Inactive)
REMARK    1  A    between atoms: C_6  and  N_7 
REMARK       I    between atoms: N_7  and  C_8 
REMARK    2  A    between atoms: C_8  and  C_9 
REMARK    3  A    between atoms: C_9  and  C_10 
ROOT
HETATM    1  C   UNL     1      41.212 -16.322   2.729  1.00  0.00     0.286 C 
HETATM    2  N   UNL     1      40.401 -15.428   3.669  1.00  0.00    -0.056 N 
HETATM    3  H   UNL     1      39.719 -16.039   4.137  1.00  0.00     0.278 HD
HETATM    4  H   UNL     1      41.016 -15.132   4.457  1.00  0.00     0.278 HD
HETATM    5  C   UNL     1      39.652 -14.277   3.070  1.00  0.00     0.209 C 
HETATM    6  C   UNL     1      38.869 -14.771   1.833  1.00  0.00     0.115 C 
HETATM    7  N   UNL     1      39.733 -15.486   0.897  1.00  0.00    -0.353 N 
HETATM    8  C   UNL     1      40.733 -16.343   1.269  1.00  0.00     0.249 C 
HETATM    9  O   UNL     1      41.252 -17.074   0.432  1.00  0.00    -0.271 OA
HETATM   10  C   UNL     1      40.597 -13.118   2.750  1.00  0.00     0.035 C 
HETATM   11  C   UNL     1      39.837 -11.971   2.088  1.00  0.00     0.002 C 
HETATM   12  C   UNL     1      39.092 -12.438   0.839  1.00  0.00     0.002 C 
HETATM   13  C   UNL     1      38.154 -13.607   1.140  1.00  0.00     0.027 C 
HETATM   14  H   UNL     1      39.418 -15.621  -0.062  1.00  0.00     0.163 HD
ENDROOT
BRANCH   1  15
HETATM   15  C   UNL     1      42.715 -16.011   2.777  1.00  0.00     0.146 C 
BRANCH  15  16
HETATM   16  C   UNL     1      43.506 -17.260   2.472  1.00  0.00     0.224 C 
HETATM   17  N   UNL     1      42.992 -18.405   3.034  1.00  0.00    -0.327 N 
HETATM   18  H   UNL     1      42.126 -18.331   3.559  1.00  0.00     0.169 HD
HETATM   19  O   UNL     1      44.495 -17.157   1.746  1.00  0.00    -0.273 OA
BRANCH  17  20
HETATM   20  C   UNL     1      43.547 -19.705   2.988  1.00  0.00     0.036 A 
HETATM   21  C   UNL     1      44.170 -20.329   4.070  1.00  0.00     0.053 A 
HETATM   22  C   UNL     1      44.670 -21.627   3.938  1.00  0.00     0.036 A 
HETATM   23  C   UNL     1      44.557 -22.316   2.733  1.00  0.00     0.024 A 
HETATM   24 CL   UNL     1      45.429 -22.386   5.285  1.00  0.00    -0.084 Cl
HETATM   25  C   UNL     1      43.941 -21.700   1.648  1.00  0.00     0.004 A 
HETATM   26  C   UNL     1      43.441 -20.401   1.775  1.00  0.00     0.029 A 
ENDBRANCH  17  20
ENDBRANCH  15  16
ENDBRANCH   1  15
TORSDOF 3
ENDMDL
MODEL 8
REMARK VINA RESULT:      -7.4      3.177      8.389
REMARK  3 active torsions:
REMARK  status: ('A' for Active; 'I' for Inactive)
REMARK    1  A    between atoms: C_6  and  N_7 
REMARK       I    between atoms: N_7  and  C_8 
REMARK    2  A    between atoms: C_8  and  C_9 
REMARK    3  A    between atoms: C_9  and  C_10 
ROOT
HETATM    1  C   UNL     1      43.177 -17.677   3.926  1.00  0.00     0.286 C 
HETATM    2  N   UNL     1      44.155 -17.745   5.100  1.00  0.00    -0.056 N 
HETATM    3  H   UNL     1      44.996 -17.229   4.811  1.00  0.00     0.278 HD
HETATM    4  H   UNL     1      43.783 -17.154   5.874  1.00  0.00     0.278 HD
HETATM    5  C   UNL     1      44.586 -19.098   5.577  1.00  0.00     0.209 C 
HETATM    6  C   UNL     1      44.998 -19.956   4.360  1.00  0.00     0.115 C 
HETATM    7  N   UNL     1      43.957 -19.976   3.336  1.00  0.00    -0.353 N 
HETATM    8  C   UNL     1      43.193 -18.895   2.989  1.00  0.00     0.249 C 
HETATM    9  O   UNL     1      42.509 -18.933   1.971  1.00  0.00    -0.271 OA
HETATM   10  C   UNL     1      43.493 -19.753   6.422  1.00  0.00     0.035 C 
HETATM   11  C   UNL     1      43.917 -21.155   6.857  1.00  0.00     0.002 C 
HETATM   12  C   UNL     1      44.287 -22.026   5.658  1.00  0.00     0.002 C 
HETATM   13  C   UNL     1      45.368 -21.377   4.795  1.00  0.00     0.027 C 
HETATM   14  H   UNL     1      43.977 -20.704   2.623  1.00  0.00     0.163 HD
ENDROOT
BRANCH   1  15
HETATM   15  C   UNL     1      41.738 -17.388   4.376  1.00  0.00     0.146 C 
BRANCH  15  16
HETATM   16  C   UNL     1      41.207 -16.177   3.650  1.00  0.00     0.224 C 
HETATM   17  N   UNL     1      40.571 -16.463   2.465  1.00  0.00    -0.327 N 
HETATM   18  H   UNL     1      40.474 -17.438   2.199  1.00  0.00     0.169 HD
HETATM   19  O   UNL     1      41.359 -15.073   4.175  1.00  0.00    -0.273 OA
BRANCH  17  20
HETATM   20  C   UNL     1      40.040 -15.540   1.534  1.00  0.00     0.036 A 
HETATM   21  C   UNL     1      40.706 -15.118   0.383  1.00  0.00     0.053 A 
HETATM   22  C   UNL     1      40.092 -14.218  -0.493  1.00  0.00     0.036 A 
HETATM   23  C   UNL     1      38.814 -13.731  -0.234  1.00  0.00     0.024 A 
HETATM   24 CL   UNL     1      40.924 -13.714  -1.914  1.00  0.00    -0.084 Cl
HETATM   25  C   UNL     1      38.143 -14.142   0.914  1.00  0.00     0.004 A 
HETATM   26  C   UNL     1      38.755 -15.041   1.793  1.00  0.00     0.029 A 
ENDBRANCH  17  20
ENDBRANCH  15  16
ENDBRANCH   1  15
TORSDOF 3
ENDMDL
MODEL 9
REMARK VINA RESULT:      -7.2      3.800      8.172
REMARK  3 active torsions:
REMARK  status: ('A' for Active; 'I' for Inactive)
REMARK    1  A    between atoms: C_6  and  N_7 
REMARK       I    between atoms: N_7  and  C_8 
REMARK    2  A    between atoms: C_8  and  C_9 
REMARK    3  A    between atoms: C_9  and  C_10 
ROOT
HETATM    1  C   UNL     1      40.847 -15.589   4.161  1.00  0.00     0.286 C 
HETATM    2  N   UNL     1      40.903 -17.113   4.290  1.00  0.00    -0.056 N 
HETATM    3  H   UNL     1      39.965 -17.416   4.581  1.00  0.00     0.278 HD
HETATM    4  H   UNL     1      40.986 -17.522   3.335  1.00  0.00     0.278 HD
HETATM    5  C   UNL     1      41.894 -17.700   5.247  1.00  0.00     0.209 C 
HETATM    6  C   UNL     1      41.798 -16.954   6.596  1.00  0.00     0.115 C 
HETATM    7  N   UNL     1      41.905 -15.508   6.423  1.00  0.00    -0.353 N 
HETATM    8  C   UNL     1      41.342 -14.809   5.390  1.00  0.00     0.249 C 
HETATM    9  O   UNL     1      41.282 -13.585   5.442  1.00  0.00    -0.271 OA
HETATM   10  C   UNL     1      43.304 -17.677   4.656  1.00  0.00     0.035 C 
HETATM   11  C   UNL     1      44.317 -18.225   5.659  1.00  0.00     0.002 C 
HETATM   12  C   UNL     1      44.261 -17.467   6.984  1.00  0.00     0.002 C 
HETATM   13  C   UNL     1      42.854 -17.468   7.580  1.00  0.00     0.027 C 
HETATM   14  H   UNL     1      42.130 -14.928   7.230  1.00  0.00     0.163 HD
ENDROOT
BRANCH   1  15
HETATM   15  C   UNL     1      41.562 -15.080   2.901  1.00  0.00     0.146 C 
BRANCH  15  16
HETATM   16  C   UNL     1      40.700 -15.330   1.688  1.00  0.00     0.224 C 
HETATM   17  N   UNL     1      41.186 -14.777   0.527  1.00  0.00    -0.327 N 
HETATM   18  H   UNL     1      42.079 -14.294   0.565  1.00  0.00     0.169 HD
HETATM   19  O   UNL     1      39.682 -16.008   1.829  1.00  0.00    -0.273 OA
BRANCH  17  20
HETATM   20  C   UNL     1      40.569 -14.777  -0.746  1.00  0.00     0.036 A 
HETATM   21  C   UNL     1      39.483 -13.970  -1.090  1.00  0.00     0.053 A 
HETATM   22  C   UNL     1      38.952 -14.022  -2.382  1.00  0.00     0.036 A 
HETATM   23  C   UNL     1      39.492 -14.874  -3.341  1.00  0.00     0.024 A 
HETATM   24 CL   UNL     1      37.618 -13.014  -2.792  1.00  0.00    -0.084 Cl
HETATM   25  C   UNL     1      40.572 -15.686  -3.006  1.00  0.00     0.004 A 
HETATM   26  C   UNL     1      41.105 -15.638  -1.714  1.00  0.00     0.029 A 
ENDBRANCH  17  20
ENDBRANCH  15  16
ENDBRANCH   1  15
TORSDOF 3
ENDMDL
MODEL 10
REMARK VINA RESULT:      -7.2      1.808      2.166
REMARK  3 active torsions:
REMARK  status: ('A' for Active; 'I' for Inactive)
REMARK    1  A    between atoms: C_6  and  N_7 
REMARK       I    between atoms: N_7  and  C_8 
REMARK    2  A    between atoms: C_8  and  C_9 
REMARK    3  A    between atoms: C_9  and  C_10 
ROOT
HETATM    1  C   UNL     1      40.575 -14.053   1.183  1.00  0.00     0.286 C 
HETATM    2  N   UNL     1      41.753 -14.184   0.216  1.00  0.00    -0.056 N 
HETATM    3  H   UNL     1      42.342 -13.352   0.358  1.00  0.00     0.278 HD
HETATM    4  H   UNL     1      42.370 -14.955   0.550  1.00  0.00     0.278 HD
HETATM    5  C   UNL     1      41.452 -14.290  -1.247  1.00  0.00     0.209 C 
HETATM    6  C   UNL     1      40.434 -13.194  -1.635  1.00  0.00     0.115 C 
HETATM    7  N   UNL     1      39.258 -13.219  -0.770  1.00  0.00    -0.353 N 
HETATM    8  C   UNL     1      39.294 -13.457   0.577  1.00  0.00     0.249 C 
HETATM    9  O   UNL     1      38.301 -13.233   1.263  1.00  0.00    -0.271 OA
HETATM   10  C   UNL     1      40.975 -15.697  -1.606  1.00  0.00     0.035 C 
HETATM   11  C   UNL     1      40.616 -15.782  -3.088  1.00  0.00     0.002 C 
HETATM   12  C   UNL     1      39.578 -14.730  -3.475  1.00  0.00     0.002 C 
HETATM   13  C   UNL     1      40.035 -13.319  -3.109  1.00  0.00     0.027 C 
HETATM   14  H   UNL     1      38.408 -12.749  -1.077  1.00  0.00     0.163 HD
ENDROOT
BRANCH   1  15
HETATM   15  C   UNL     1      40.246 -15.376   1.890  1.00  0.00     0.146 C 
BRANCH  15  16
HETATM   16  C   UNL     1      41.521 -16.039   2.353  1.00  0.00     0.224 C 
HETATM   17  N   UNL     1      41.483 -17.413   2.329  1.00  0.00    -0.327 N 
HETATM   18  H   UNL     1      40.643 -17.861   1.976  1.00  0.00     0.169 HD
HETATM   19  O   UNL     1      42.466 -15.317   2.674  1.00  0.00    -0.273 OA
BRANCH  17  20
HETATM   20  C   UNL     1      42.489 -18.304   2.770  1.00  0.00     0.036 A 
HETATM   21  C   UNL     1      42.904 -19.430   2.057  1.00  0.00     0.053 A 
HETATM   22  C   UNL     1      43.924 -20.242   2.562  1.00  0.00     0.036 A 
HETATM   23  C   UNL     1      44.539 -19.945   3.775  1.00  0.00     0.024 A 
HETATM   24 CL   UNL     1      44.430 -21.624   1.666  1.00  0.00    -0.084 Cl
HETATM   25  C   UNL     1      44.128 -18.827   4.495  1.00  0.00     0.004 A 
HETATM   26  C   UNL     1      43.108 -18.012   3.995  1.00  0.00     0.029 A 
ENDBRANCH  17  20
ENDBRANCH  15  16
ENDBRANCH   1  15
TORSDOF 3
ENDMDL
