MODEL 1
REMARK VINA RESULT:      -7.8      0.000      0.000
REMARK  8 active torsions:
REMARK  status: ('A' for Active; 'I' for Inactive)
REMARK    1  A    between atoms: C_9  and  S_10 
REMARK    2  A    between atoms: S_10  and  C_11 
REMARK    3  A    between atoms: C_11  and  C_12 
REMARK       I    between atoms: C_12  and  N_13 
REMARK    4  A    between atoms: N_13  and  C_14 
REMARK    5  A    between atoms: C_15  and  O_16 
REMARK    6  A    between atoms: C_20  and  O_21 
REMARK    7  A    between atoms: N_25  and  C_26 
REMARK    8  A    between atoms: C_33  and  N_34 
ROOT
HETATM    1  C   UNL     1      43.265 -10.531  -1.789  1.00  0.00     0.073 C 
HETATM    2  C   UNL     1      42.688 -11.894  -1.652  1.00  0.00     0.068 A 
HETATM    3  N   UNL     1      42.730 -12.727  -2.701  1.00  0.00    -0.177 NA
HETATM    4  N   UNL     1      42.152 -13.855  -2.257  1.00  0.00    -0.260 N 
HETATM    5  H   UNL     1      42.072 -14.655  -2.879  1.00  0.00     0.191 HD
HETATM    6  C   UNL     1      41.710 -13.745  -0.971  1.00  0.00     0.162 A 
HETATM    7  C   UNL     1      42.041 -12.486  -0.524  1.00  0.00     0.081 A 
HETATM    8  N   UNL     1      41.057 -14.678  -0.289  1.00  0.00    -0.204 NA
HETATM    9  C   UNL     1      40.715 -14.288   0.946  1.00  0.00     0.177 A 
HETATM   10  N   UNL     1      41.030 -13.075   1.485  1.00  0.00    -0.276 N 
HETATM   11  C   UNL     1      41.696 -12.109   0.787  1.00  0.00     0.124 A 
ENDROOT
BRANCH   9  12
HETATM   12  S   UNL     1      39.635 -15.456   1.798  1.00  0.00    -0.082 SA
BRANCH  12  13
HETATM   13  C   UNL     1      40.641 -16.991   1.848  1.00  0.00     0.185 C 
BRANCH  13  14
HETATM   14  C   UNL     1      41.906 -16.902   2.690  1.00  0.00     0.232 C 
HETATM   15  N   UNL     1      41.783 -17.399   3.983  1.00  0.00    -0.324 N 
HETATM   16  H   UNL     1      41.049 -18.077   4.119  1.00  0.00     0.169 HD
HETATM   17  O   UNL     1      42.942 -16.463   2.193  1.00  0.00    -0.272 OA
BRANCH  15  18
HETATM   18  C   UNL     1      42.910 -17.508   4.832  1.00  0.00     0.071 A 
HETATM   19  C   UNL     1      43.753 -18.637   4.815  1.00  0.00     0.095 A 
HETATM   20  C   UNL     1      44.826 -18.691   5.711  1.00  0.00     0.042 A 
HETATM   21  C   UNL     1      45.053 -17.640   6.604  1.00  0.00     0.039 A 
HETATM   22  C   UNL     1      44.220 -16.524   6.610  1.00  0.00     0.070 A 
HETATM   23  C   UNL     1      43.175 -16.435   5.693  1.00  0.00     0.069 A 
BRANCH  19  24
HETATM   24  O   UNL     1      43.502 -19.573   3.845  1.00  0.00    -0.354 OA
HETATM   25  C   UNL     1      44.418 -19.659   2.762  1.00  0.00     0.210 C 
ENDBRANCH  19  24
BRANCH  22  26
HETATM   26  O   UNL     1      44.523 -15.546   7.514  1.00  0.00    -0.356 OA
HETATM   27  C   UNL     1      44.450 -14.223   6.989  1.00  0.00     0.210 C 
ENDBRANCH  22  26
ENDBRANCH  15  18
ENDBRANCH  13  14
ENDBRANCH  12  13
ENDBRANCH   9  12
BRANCH  10  28
HETATM   28  C   UNL     1      40.687 -12.802   2.853  1.00  0.00     0.043 A 
HETATM   29  C   UNL     1      39.478 -12.154   3.119  1.00  0.00     0.031 A 
HETATM   30  C   UNL     1      39.118 -11.925   4.447  1.00  0.00     0.021 A 
HETATM   31  C   UNL     1      39.961 -12.347   5.478  1.00  0.00     0.011 A 
HETATM   32 BR   UNL     1      39.468 -12.031   7.275  1.00  0.00    -0.051 Br
HETATM   33  C   UNL     1      41.162 -13.006   5.199  1.00  0.00     0.021 A 
HETATM   34  C   UNL     1      41.531 -13.249   3.874  1.00  0.00     0.031 A 
ENDBRANCH  10  28
BRANCH  11  35
HETATM   35  N   UNL     1      41.981 -10.856   1.308  1.00  0.00    -0.384 N 
HETATM   36  H   UNL     1      42.643 -10.216   0.886  1.00  0.00     0.157 HD
HETATM   37  H   UNL     1      41.746 -10.650   2.273  1.00  0.00     0.157 HD
ENDBRANCH  11  35
TORSDOF 8
ENDMDL
MODEL 2
REMARK VINA RESULT:      -7.7      4.610      7.054
REMARK  8 active torsions:
REMARK  status: ('A' for Active; 'I' for Inactive)
REMARK    1  A    between atoms: C_9  and  S_10 
REMARK    2  A    between atoms: S_10  and  C_11 
REMARK    3  A    between atoms: C_11  and  C_12 
REMARK       I    between atoms: C_12  and  N_13 
REMARK    4  A    between atoms: N_13  and  C_14 
REMARK    5  A    between atoms: C_15  and  O_16 
REMARK    6  A    between atoms: C_20  and  O_21 
REMARK    7  A    between atoms: N_25  and  C_26 
REMARK    8  A    between atoms: C_33  and  N_34 
ROOT
HETATM    1  C   UNL     1      37.649 -14.022   0.317  1.00  0.00     0.073 C 
HETATM    2  C   UNL     1      38.116 -13.072   1.361  1.00  0.00     0.068 A 
HETATM    3  N   UNL     1      37.719 -11.794   1.301  1.00  0.00    -0.177 NA
HETATM    4  N   UNL     1      38.289 -11.215   2.371  1.00  0.00    -0.260 N 
HETATM    5  H   UNL     1      38.127 -10.228   2.552  1.00  0.00     0.191 HD
HETATM    6  C   UNL     1      39.068 -12.082   3.081  1.00  0.00     0.162 A 
HETATM    7  C   UNL     1      38.984 -13.312   2.469  1.00  0.00     0.081 A 
HETATM    8  N   UNL     1      39.791 -11.781   4.153  1.00  0.00    -0.204 NA
HETATM    9  C   UNL     1      40.485 -12.821   4.631  1.00  0.00     0.177 A 
HETATM   10  N   UNL     1      40.437 -14.083   4.113  1.00  0.00    -0.276 N 
HETATM   11  C   UNL     1      39.700 -14.397   3.007  1.00  0.00     0.124 A 
ENDROOT
BRANCH   9  12
HETATM   12  S   UNL     1      41.643 -12.375   5.942  1.00  0.00    -0.082 SA
BRANCH  12  13
HETATM   13  C   UNL     1      41.169 -10.647   6.343  1.00  0.00     0.185 C 
BRANCH  13  14
HETATM   14  C   UNL     1      41.697 -10.128   7.673  1.00  0.00     0.232 C 
HETATM   15  N   UNL     1      41.867 -11.100   8.653  1.00  0.00    -0.324 N 
HETATM   16  H   UNL     1      41.991 -12.041   8.313  1.00  0.00     0.169 HD
HETATM   17  O   UNL     1      41.984  -8.938   7.794  1.00  0.00    -0.272 OA
BRANCH  15  18
HETATM   18  C   UNL     1      42.477 -10.788   9.891  1.00  0.00     0.071 A 
HETATM   19  C   UNL     1      43.875 -10.836  10.069  1.00  0.00     0.095 A 
HETATM   20  C   UNL     1      44.403 -10.552  11.332  1.00  0.00     0.042 A 
HETATM   21  C   UNL     1      43.556 -10.225  12.395  1.00  0.00     0.039 A 
HETATM   22  C   UNL     1      42.177 -10.173  12.210  1.00  0.00     0.070 A 
HETATM   23  C   UNL     1      41.638 -10.408  10.947  1.00  0.00     0.069 A 
BRANCH  19  24
HETATM   24  O   UNL     1      44.625 -11.077   8.948  1.00  0.00    -0.354 OA
HETATM   25  C   UNL     1      45.419 -12.255   8.930  1.00  0.00     0.210 C 
ENDBRANCH  19  24
BRANCH  22  26
HETATM   26  O   UNL     1      41.430  -9.841  13.305  1.00  0.00    -0.356 OA
HETATM   27  C   UNL     1      42.051 -10.151  14.549  1.00  0.00     0.210 C 
ENDBRANCH  22  26
ENDBRANCH  15  18
ENDBRANCH  13  14
ENDBRANCH  12  13
ENDBRANCH   9  12
BRANCH  10  28
HETATM   28  C   UNL     1      41.157 -15.140   4.767  1.00  0.00     0.043 A 
HETATM   29  C   UNL     1      42.437 -15.457   4.304  1.00  0.00     0.031 A 
HETATM   30  C   UNL     1      43.159 -16.453   4.963  1.00  0.00     0.021 A 
HETATM   31  C   UNL     1      42.598 -17.108   6.063  1.00  0.00     0.011 A 
HETATM   32 BR   UNL     1      43.581 -18.457   6.946  1.00  0.00    -0.051 Br
HETATM   33  C   UNL     1      41.321 -16.771   6.522  1.00  0.00     0.021 A 
HETATM   34  C   UNL     1      40.591 -15.771   5.878  1.00  0.00     0.031 A 
ENDBRANCH  10  28
BRANCH  11  35
HETATM   35  N   UNL     1      39.680 -15.664   2.444  1.00  0.00    -0.384 N 
HETATM   36  H   UNL     1      38.825 -16.150   2.201  1.00  0.00     0.157 HD
HETATM   37  H   UNL     1      40.501 -16.255   2.512  1.00  0.00     0.157 HD
ENDBRANCH  11  35
TORSDOF 8
ENDMDL
MODEL 3
REMARK VINA RESULT:      -7.7      2.363      3.589
REMARK  8 active torsions:
REMARK  status: ('A' for Active; 'I' for Inactive)
REMARK    1  A    between atoms: C_9  and  S_10 
REMARK    2  A    between atoms: S_10  and  C_11 
REMARK    3  A    between atoms: C_11  and  C_12 
REMARK       I    between atoms: C_12  and  N_13 
REMARK    4  A    between atoms: N_13  and  C_14 
REMARK    5  A    between atoms: C_15  and  O_16 
REMARK    6  A    between atoms: C_20  and  O_21 
REMARK    7  A    between atoms: N_25  and  C_26 
REMARK    8  A    between atoms: C_33  and  N_34 
ROOT
HETATM    1  C   UNL     1      38.594 -13.648  -0.936  1.00  0.00     0.073 C 
HETATM    2  C   UNL     1      39.896 -14.028  -0.326  1.00  0.00     0.068 A 
HETATM    3  N   UNL     1      40.771 -14.739  -1.050  1.00  0.00    -0.177 NA
HETATM    4  N   UNL     1      41.826 -14.902  -0.235  1.00  0.00    -0.260 N 
HETATM    5  H   UNL     1      42.640 -15.413  -0.567  1.00  0.00     0.191 HD
HETATM    6  C   UNL     1      41.626 -14.349   0.996  1.00  0.00     0.162 A 
HETATM    7  C   UNL     1      40.383 -13.758   0.989  1.00  0.00     0.081 A 
HETATM    8  N   UNL     1      42.471 -14.398   2.019  1.00  0.00    -0.204 NA
HETATM    9  C   UNL     1      42.003 -13.796   3.120  1.00  0.00     0.177 A 
HETATM   10  N   UNL     1      40.801 -13.155   3.195  1.00  0.00    -0.276 N 
HETATM   11  C   UNL     1      39.925 -13.107   2.149  1.00  0.00     0.124 A 
ENDROOT
BRANCH   9  12
HETATM   12  S   UNL     1      43.038 -14.052   4.576  1.00  0.00    -0.082 SA
BRANCH  12  13
HETATM   13  C   UNL     1      42.153 -15.378   5.487  1.00  0.00     0.185 C 
BRANCH  13  14
HETATM   14  C   UNL     1      42.221 -16.755   4.842  1.00  0.00     0.232 C 
HETATM   15  N   UNL     1      43.331 -16.967   4.031  1.00  0.00    -0.324 N 
HETATM   16  H   UNL     1      44.130 -16.385   4.230  1.00  0.00     0.169 HD
HETATM   17  O   UNL     1      41.358 -17.594   5.099  1.00  0.00    -0.272 OA
BRANCH  15  18
HETATM   18  C   UNL     1      43.597 -18.241   3.478  1.00  0.00     0.071 A 
HETATM   19  C   UNL     1      43.093 -18.633   2.221  1.00  0.00     0.095 A 
HETATM   20  C   UNL     1      43.366 -19.923   1.757  1.00  0.00     0.042 A 
HETATM   21  C   UNL     1      44.128 -20.805   2.530  1.00  0.00     0.039 A 
HETATM   22  C   UNL     1      44.629 -20.408   3.767  1.00  0.00     0.070 A 
HETATM   23  C   UNL     1      44.404 -19.112   4.223  1.00  0.00     0.069 A 
BRANCH  19  24
HETATM   24  O   UNL     1      42.434 -17.670   1.501  1.00  0.00    -0.354 OA
HETATM   25  C   UNL     1      41.025 -17.795   1.371  1.00  0.00     0.210 C 
ENDBRANCH  19  24
BRANCH  22  26
HETATM   26  O   UNL     1      45.366 -21.337   4.448  1.00  0.00    -0.356 OA
HETATM   27  C   UNL     1      44.680 -21.936   5.543  1.00  0.00     0.210 C 
ENDBRANCH  22  26
ENDBRANCH  15  18
ENDBRANCH  13  14
ENDBRANCH  12  13
ENDBRANCH   9  12
BRANCH  10  28
HETATM   28  C   UNL     1      40.445 -12.468   4.405  1.00  0.00     0.043 A 
HETATM   29  C   UNL     1      39.641 -13.133   5.335  1.00  0.00     0.031 A 
HETATM   30  C   UNL     1      39.328 -12.488   6.532  1.00  0.00     0.021 A 
HETATM   31  C   UNL     1      39.820 -11.203   6.779  1.00  0.00     0.011 A 
HETATM   32 BR   UNL     1      39.388 -10.335   8.401  1.00  0.00    -0.051 Br
HETATM   33  C   UNL     1      40.633 -10.554   5.845  1.00  0.00     0.021 A 
HETATM   34  C   UNL     1      40.962 -11.192   4.647  1.00  0.00     0.031 A 
ENDBRANCH  10  28
BRANCH  11  35
HETATM   35  N   UNL     1      38.682 -12.499   2.228  1.00  0.00    -0.384 N 
HETATM   36  H   UNL     1      38.265 -11.985   1.461  1.00  0.00     0.157 HD
HETATM   37  H   UNL     1      38.273 -12.313   3.137  1.00  0.00     0.157 HD
ENDBRANCH  11  35
TORSDOF 8
ENDMDL
MODEL 4
REMARK VINA RESULT:      -7.7      3.076      8.185
REMARK  8 active torsions:
REMARK  status: ('A' for Active; 'I' for Inactive)
REMARK    1  A    between atoms: C_9  and  S_10 
REMARK    2  A    between atoms: S_10  and  C_11 
REMARK    3  A    between atoms: C_11  and  C_12 
REMARK       I    between atoms: C_12  and  N_13 
REMARK    4  A    between atoms: N_13  and  C_14 
REMARK    5  A    between atoms: C_15  and  O_16 
REMARK    6  A    between atoms: C_20  and  O_21 
REMARK    7  A    between atoms: N_25  and  C_26 
REMARK    8  A    between atoms: C_33  and  N_34 
ROOT
HETATM    1  C   UNL     1      43.794 -20.692   7.714  1.00  0.00     0.073 C 
HETATM    2  C   UNL     1      43.991 -20.386   6.272  1.00  0.00     0.068 A 
HETATM    3  N   UNL     1      44.603 -21.287   5.493  1.00  0.00    -0.177 NA
HETATM    4  N   UNL     1      44.610 -20.726   4.273  1.00  0.00    -0.260 N 
HETATM    5  H   UNL     1      45.021 -21.231   3.492  1.00  0.00     0.191 HD
HETATM    6  C   UNL     1      44.057 -19.479   4.267  1.00  0.00     0.162 A 
HETATM    7  C   UNL     1      43.627 -19.209   5.548  1.00  0.00     0.081 A 
HETATM    8  N   UNL     1      43.972 -18.668   3.219  1.00  0.00    -0.204 NA
HETATM    9  C   UNL     1      43.407 -17.489   3.508  1.00  0.00     0.177 A 
HETATM   10  N   UNL     1      42.921 -17.147   4.737  1.00  0.00    -0.276 N 
HETATM   11  C   UNL     1      43.011 -17.975   5.820  1.00  0.00     0.124 A 
ENDROOT
BRANCH   9  12
HETATM   12  S   UNL     1      43.493 -16.297   2.155  1.00  0.00    -0.082 SA
BRANCH  12  13
HETATM   13  C   UNL     1      42.379 -17.026   0.890  1.00  0.00     0.185 C 
BRANCH  13  14
HETATM   14  C   UNL     1      41.456 -16.033   0.198  1.00  0.00     0.232 C 
HETATM   15  N   UNL     1      41.746 -15.802  -1.142  1.00  0.00    -0.324 N 
HETATM   16  H   UNL     1      42.251 -16.539  -1.609  1.00  0.00     0.169 HD
HETATM   17  O   UNL     1      40.511 -15.544   0.816  1.00  0.00    -0.272 OA
BRANCH  15  18
HETATM   18  C   UNL     1      40.892 -15.010  -1.946  1.00  0.00     0.071 A 
HETATM   19  C   UNL     1      40.998 -13.606  -1.994  1.00  0.00     0.095 A 
HETATM   20  C   UNL     1      40.094 -12.888  -2.782  1.00  0.00     0.042 A 
HETATM   21  C   UNL     1      39.105 -13.557  -3.510  1.00  0.00     0.039 A 
HETATM   22  C   UNL     1      39.011 -14.946  -3.464  1.00  0.00     0.070 A 
HETATM   23  C   UNL     1      39.933 -15.678  -2.719  1.00  0.00     0.069 A 
BRANCH  19  24
HETATM   24  O   UNL     1      42.054 -13.050  -1.318  1.00  0.00    -0.354 OA
HETATM   25  C   UNL     1      41.762 -12.288  -0.156  1.00  0.00     0.210 C 
ENDBRANCH  19  24
BRANCH  22  26
HETATM   26  O   UNL     1      38.016 -15.510  -4.211  1.00  0.00    -0.356 OA
HETATM   27  C   UNL     1      36.817 -14.742  -4.261  1.00  0.00     0.210 C 
ENDBRANCH  22  26
ENDBRANCH  15  18
ENDBRANCH  13  14
ENDBRANCH  12  13
ENDBRANCH   9  12
BRANCH  10  28
HETATM   28  C   UNL     1      42.255 -15.886   4.905  1.00  0.00     0.043 A 
HETATM   29  C   UNL     1      40.884 -15.819   4.639  1.00  0.00     0.031 A 
HETATM   30  C   UNL     1      40.221 -14.608   4.842  1.00  0.00     0.021 A 
HETATM   31  C   UNL     1      40.930 -13.497   5.307  1.00  0.00     0.011 A 
HETATM   32 BR   UNL     1      40.025 -11.860   5.578  1.00  0.00    -0.051 Br
HETATM   33  C   UNL     1      42.298 -13.582   5.582  1.00  0.00     0.021 A 
HETATM   34  C   UNL     1      42.972 -14.790   5.390  1.00  0.00     0.031 A 
ENDBRANCH  10  28
BRANCH  11  35
HETATM   35  N   UNL     1      42.563 -17.621   7.083  1.00  0.00    -0.384 N 
HETATM   36  H   UNL     1      42.231 -18.294   7.763  1.00  0.00     0.157 HD
HETATM   37  H   UNL     1      42.296 -16.660   7.269  1.00  0.00     0.157 HD
ENDBRANCH  11  35
TORSDOF 8
ENDMDL
MODEL 5
REMARK VINA RESULT:      -7.5      3.717      7.257
REMARK  8 active torsions:
REMARK  status: ('A' for Active; 'I' for Inactive)
REMARK    1  A    between atoms: C_9  and  S_10 
REMARK    2  A    between atoms: S_10  and  C_11 
REMARK    3  A    between atoms: C_11  and  C_12 
REMARK       I    between atoms: C_12  and  N_13 
REMARK    4  A    between atoms: N_13  and  C_14 
REMARK    5  A    between atoms: C_15  and  O_16 
REMARK    6  A    between atoms: C_20  and  O_21 
REMARK    7  A    between atoms: N_25  and  C_26 
REMARK    8  A    between atoms: C_33  and  N_34 
ROOT
HETATM    1  C   UNL     1      44.354 -21.019   2.436  1.00  0.00     0.073 C 
HETATM    2  C   UNL     1      44.394 -20.095   3.599  1.00  0.00     0.068 A 
HETATM    3  N   UNL     1      45.075 -20.456   4.695  1.00  0.00    -0.177 NA
HETATM    4  N   UNL     1      44.930 -19.420   5.536  1.00  0.00    -0.260 N 
HETATM    5  H   UNL     1      45.373 -19.453   6.451  1.00  0.00     0.191 HD
HETATM    6  C   UNL     1      44.144 -18.432   5.020  1.00  0.00     0.162 A 
HETATM    7  C   UNL     1      43.772 -18.818   3.751  1.00  0.00     0.081 A 
HETATM    8  N   UNL     1      43.785 -17.315   5.642  1.00  0.00    -0.204 NA
HETATM    9  C   UNL     1      42.982 -16.536   4.907  1.00  0.00     0.177 A 
HETATM   10  N   UNL     1      42.591 -16.819   3.631  1.00  0.00    -0.276 N 
HETATM   11  C   UNL     1      42.951 -17.969   2.988  1.00  0.00     0.124 A 
ENDROOT
BRANCH   9  12
HETATM   12  S   UNL     1      42.307 -15.133   5.820  1.00  0.00    -0.082 SA
BRANCH  12  13
HETATM   13  C   UNL     1      43.701 -13.938   5.834  1.00  0.00     0.185 C 
BRANCH  13  14
HETATM   14  C   UNL     1      44.182 -13.528   7.219  1.00  0.00     0.232 C 
HETATM   15  N   UNL     1      43.868 -12.223   7.584  1.00  0.00    -0.324 N 
HETATM   16  H   UNL     1      43.077 -11.818   7.107  1.00  0.00     0.169 HD
HETATM   17  O   UNL     1      44.753 -14.349   7.935  1.00  0.00    -0.272 OA
BRANCH  15  18
HETATM   18  C   UNL     1      44.129 -11.749   8.891  1.00  0.00     0.071 A 
HETATM   19  C   UNL     1      45.379 -11.209   9.255  1.00  0.00     0.095 A 
HETATM   20  C   UNL     1      45.576 -10.796  10.577  1.00  0.00     0.042 A 
HETATM   21  C   UNL     1      44.547 -10.918  11.515  1.00  0.00     0.039 A 
HETATM   22  C   UNL     1      43.312 -11.446  11.146  1.00  0.00     0.070 A 
HETATM   23  C   UNL     1      43.085 -11.820   9.823  1.00  0.00     0.069 A 
BRANCH  19  24
HETATM   24  O   UNL     1      46.292 -11.048   8.246  1.00  0.00    -0.354 OA
HETATM   25  C   UNL     1      47.383 -11.957   8.195  1.00  0.00     0.210 C 
ENDBRANCH  19  24
BRANCH  22  26
HETATM   26  O   UNL     1      42.367 -11.522  12.131  1.00  0.00    -0.356 OA
HETATM   27  C   UNL     1      41.076 -11.070  11.735  1.00  0.00     0.210 C 
ENDBRANCH  22  26
ENDBRANCH  15  18
ENDBRANCH  13  14
ENDBRANCH  12  13
ENDBRANCH   9  12
BRANCH  10  28
HETATM   28  C   UNL     1      41.799 -15.862   2.909  1.00  0.00     0.043 A 
HETATM   29  C   UNL     1      42.454 -14.816   2.254  1.00  0.00     0.031 A 
HETATM   30  C   UNL     1      41.695 -13.909   1.514  1.00  0.00     0.021 A 
HETATM   31  C   UNL     1      40.308 -14.062   1.439  1.00  0.00     0.011 A 
HETATM   32 BR   UNL     1      39.287 -12.827   0.437  1.00  0.00    -0.051 Br
HETATM   33  C   UNL     1      39.667 -15.121   2.089  1.00  0.00     0.021 A 
HETATM   34  C   UNL     1      40.415 -16.040   2.826  1.00  0.00     0.031 A 
ENDBRANCH  10  28
BRANCH  11  35
HETATM   35  N   UNL     1      42.521 -18.288   1.709  1.00  0.00    -0.384 N 
HETATM   36  H   UNL     1      41.875 -19.043   1.514  1.00  0.00     0.157 HD
HETATM   37  H   UNL     1      43.048 -17.960   0.907  1.00  0.00     0.157 HD
ENDBRANCH  11  35
TORSDOF 8
ENDMDL
MODEL 6
REMARK VINA RESULT:      -7.5      3.003      7.707
REMARK  8 active torsions:
REMARK  status: ('A' for Active; 'I' for Inactive)
REMARK    1  A    between atoms: C_9  and  S_10 
REMARK    2  A    between atoms: S_10  and  C_11 
REMARK    3  A    between atoms: C_11  and  C_12 
REMARK       I    between atoms: C_12  and  N_13 
REMARK    4  A    between atoms: N_13  and  C_14 
REMARK    5  A    between atoms: C_15  and  O_16 
REMARK    6  A    between atoms: C_20  and  O_21 
REMARK    7  A    between atoms: N_25  and  C_26 
REMARK    8  A    between atoms: C_33  and  N_34 
ROOT
HETATM    1  C   UNL     1      43.657 -20.619   7.646  1.00  0.00     0.073 C 
HETATM    2  C   UNL     1      43.991 -20.498   6.203  1.00  0.00     0.068 A 
HETATM    3  N   UNL     1      44.649 -21.498   5.601  1.00  0.00    -0.177 NA
HETATM    4  N   UNL     1      44.780 -21.095   4.327  1.00  0.00    -0.260 N 
HETATM    5  H   UNL     1      45.248 -21.698   3.656  1.00  0.00     0.191 HD
HETATM    6  C   UNL     1      44.259 -19.852   4.116  1.00  0.00     0.162 A 
HETATM    7  C   UNL     1      43.723 -19.418   5.307  1.00  0.00     0.081 A 
HETATM    8  N   UNL     1      44.289 -19.177   2.972  1.00  0.00    -0.204 NA
HETATM    9  C   UNL     1      43.729 -17.965   3.059  1.00  0.00     0.177 A 
HETATM   10  N   UNL     1      43.142 -17.466   4.185  1.00  0.00    -0.276 N 
HETATM   11  C   UNL     1      43.114 -18.152   5.366  1.00  0.00     0.124 A 
ENDROOT
BRANCH   9  12
HETATM   12  S   UNL     1      43.965 -16.954   1.582  1.00  0.00    -0.082 SA
BRANCH  12  13
HETATM   13  C   UNL     1      42.310 -16.991   0.786  1.00  0.00     0.185 C 
BRANCH  13  14
HETATM   14  C   UNL     1      41.713 -15.624   0.483  1.00  0.00     0.232 C 
HETATM   15  N   UNL     1      40.494 -15.654  -0.185  1.00  0.00    -0.324 N 
HETATM   16  H   UNL     1      39.961 -16.503  -0.075  1.00  0.00     0.169 HD
HETATM   17  O   UNL     1      42.285 -14.607   0.872  1.00  0.00    -0.272 OA
BRANCH  15  18
HETATM   18  C   UNL     1      39.756 -14.468  -0.410  1.00  0.00     0.071 A 
HETATM   19  C   UNL     1      39.837 -13.755  -1.623  1.00  0.00     0.095 A 
HETATM   20  C   UNL     1      39.109 -12.569  -1.758  1.00  0.00     0.042 A 
HETATM   21  C   UNL     1      38.313 -12.105  -0.706  1.00  0.00     0.039 A 
HETATM   22  C   UNL     1      38.233 -12.819   0.487  1.00  0.00     0.070 A 
HETATM   23  C   UNL     1      38.917 -14.025   0.621  1.00  0.00     0.069 A 
BRANCH  19  24
HETATM   24  O   UNL     1      40.571 -14.336  -2.625  1.00  0.00    -0.354 OA
HETATM   25  C   UNL     1      41.701 -13.624  -3.110  1.00  0.00     0.210 C 
ENDBRANCH  19  24
BRANCH  22  26
HETATM   26  O   UNL     1      37.428 -12.290   1.457  1.00  0.00    -0.356 OA
HETATM   27  C   UNL     1      37.566 -10.881   1.624  1.00  0.00     0.210 C 
ENDBRANCH  22  26
ENDBRANCH  15  18
ENDBRANCH  13  14
ENDBRANCH  12  13
ENDBRANCH   9  12
BRANCH  10  28
HETATM   28  C   UNL     1      42.493 -16.186   4.134  1.00  0.00     0.043 A 
HETATM   29  C   UNL     1      41.107 -16.150   3.953  1.00  0.00     0.031 A 
HETATM   30  C   UNL     1      40.465 -14.912   3.946  1.00  0.00     0.021 A 
HETATM   31  C   UNL     1      41.208 -13.741   4.121  1.00  0.00     0.011 A 
HETATM   32 BR   UNL     1      40.330 -12.068   4.107  1.00  0.00    -0.051 Br
HETATM   33  C   UNL     1      42.592 -13.793   4.313  1.00  0.00     0.021 A 
HETATM   34  C   UNL     1      43.247 -15.026   4.331  1.00  0.00     0.031 A 
ENDBRANCH  10  28
BRANCH  11  35
HETATM   35  N   UNL     1      42.562 -17.636   6.529  1.00  0.00    -0.384 N 
HETATM   36  H   UNL     1      41.812 -16.955   6.533  1.00  0.00     0.157 HD
HETATM   37  H   UNL     1      43.072 -17.713   7.402  1.00  0.00     0.157 HD
ENDBRANCH  11  35
TORSDOF 8
ENDMDL
MODEL 7
REMARK VINA RESULT:      -7.5      0.959      2.363
REMARK  8 active torsions:
REMARK  status: ('A' for Active; 'I' for Inactive)
REMARK    1  A    between atoms: C_9  and  S_10 
REMARK    2  A    between atoms: S_10  and  C_11 
REMARK    3  A    between atoms: C_11  and  C_12 
REMARK       I    between atoms: C_12  and  N_13 
REMARK    4  A    between atoms: N_13  and  C_14 
REMARK    5  A    between atoms: C_15  and  O_16 
REMARK    6  A    between atoms: C_20  and  O_21 
REMARK    7  A    between atoms: N_25  and  C_26 
REMARK    8  A    between atoms: C_33  and  N_34 
ROOT
HETATM    1  C   UNL     1      43.082 -10.710  -2.178  1.00  0.00     0.073 C 
HETATM    2  C   UNL     1      42.556 -12.065  -1.866  1.00  0.00     0.068 A 
HETATM    3  N   UNL     1      42.584 -13.008  -2.817  1.00  0.00    -0.177 NA
HETATM    4  N   UNL     1      42.063 -14.095  -2.226  1.00  0.00    -0.260 N 
HETATM    5  H   UNL     1      41.984 -14.962  -2.752  1.00  0.00     0.191 HD
HETATM    6  C   UNL     1      41.669 -13.855  -0.943  1.00  0.00     0.162 A 
HETATM    7  C   UNL     1      41.975 -12.545  -0.653  1.00  0.00     0.081 A 
HETATM    8  N   UNL     1      41.075 -14.725  -0.133  1.00  0.00    -0.204 NA
HETATM    9  C   UNL     1      40.770 -14.208   1.064  1.00  0.00     0.177 A 
HETATM   10  N   UNL     1      41.066 -12.934   1.452  1.00  0.00    -0.276 N 
HETATM   11  C   UNL     1      41.671 -12.034   0.622  1.00  0.00     0.124 A 
ENDROOT
BRANCH   9  12
HETATM   12  S   UNL     1      39.764 -15.304   2.087  1.00  0.00    -0.082 SA
BRANCH  12  13
HETATM   13  C   UNL     1      40.541 -16.947   1.823  1.00  0.00     0.185 C 
BRANCH  13  14
HETATM   14  C   UNL     1      41.883 -17.142   2.516  1.00  0.00     0.232 C 
HETATM   15  N   UNL     1      41.802 -17.588   3.830  1.00  0.00    -0.324 N 
HETATM   16  H   UNL     1      40.954 -18.080   4.069  1.00  0.00     0.169 HD
HETATM   17  O   UNL     1      42.926 -16.953   1.892  1.00  0.00    -0.272 OA
BRANCH  15  18
HETATM   18  C   UNL     1      42.965 -17.944   4.552  1.00  0.00     0.071 A 
HETATM   19  C   UNL     1      43.543 -17.087   5.510  1.00  0.00     0.095 A 
HETATM   20  C   UNL     1      44.716 -17.491   6.156  1.00  0.00     0.042 A 
HETATM   21  C   UNL     1      45.299 -18.725   5.854  1.00  0.00     0.039 A 
HETATM   22  C   UNL     1      44.718 -19.570   4.911  1.00  0.00     0.070 A 
HETATM   23  C   UNL     1      43.525 -19.202   4.293  1.00  0.00     0.069 A 
BRANCH  19  24
HETATM   24  O   UNL     1      42.850 -15.941   5.800  1.00  0.00    -0.354 OA
HETATM   25  C   UNL     1      43.541 -14.914   6.498  1.00  0.00     0.210 C 
ENDBRANCH  19  24
BRANCH  22  26
HETATM   26  O   UNL     1      45.357 -20.757   4.686  1.00  0.00    -0.356 OA
HETATM   27  C   UNL     1      44.748 -21.877   5.322  1.00  0.00     0.210 C 
ENDBRANCH  22  26
ENDBRANCH  15  18
ENDBRANCH  13  14
ENDBRANCH  12  13
ENDBRANCH   9  12
BRANCH  10  28
HETATM   28  C   UNL     1      40.769 -12.520   2.795  1.00  0.00     0.043 A 
HETATM   29  C   UNL     1      39.473 -12.084   3.085  1.00  0.00     0.031 A 
HETATM   30  C   UNL     1      39.166 -11.723   4.397  1.00  0.00     0.021 A 
HETATM   31  C   UNL     1      40.147 -11.804   5.388  1.00  0.00     0.011 A 
HETATM   32 BR   UNL     1      39.724 -11.309   7.162  1.00  0.00    -0.051 Br
HETATM   33  C   UNL     1      41.436 -12.253   5.087  1.00  0.00     0.021 A 
HETATM   34  C   UNL     1      41.755 -12.627   3.780  1.00  0.00     0.031 A 
ENDBRANCH  10  28
BRANCH  11  35
HETATM   35  N   UNL     1      41.934 -10.723   0.989  1.00  0.00    -0.384 N 
HETATM   36  H   UNL     1      41.653  -9.924   0.433  1.00  0.00     0.157 HD
HETATM   37  H   UNL     1      42.652 -10.530   1.679  1.00  0.00     0.157 HD
ENDBRANCH  11  35
TORSDOF 8
ENDMDL
MODEL 8
REMARK VINA RESULT:      -7.5      3.627      8.241
REMARK  8 active torsions:
REMARK  status: ('A' for Active; 'I' for Inactive)
REMARK    1  A    between atoms: C_9  and  S_10 
REMARK    2  A    between atoms: S_10  and  C_11 
REMARK    3  A    between atoms: C_11  and  C_12 
REMARK       I    between atoms: C_12  and  N_13 
REMARK    4  A    between atoms: N_13  and  C_14 
REMARK    5  A    between atoms: C_15  and  O_16 
REMARK    6  A    between atoms: C_20  and  O_21 
REMARK    7  A    between atoms: N_25  and  C_26 
REMARK    8  A    between atoms: C_33  and  N_34 
ROOT
HETATM    1  C   UNL     1      45.118 -20.383   4.729  1.00  0.00     0.073 C 
HETATM    2  C   UNL     1      44.231 -19.972   3.609  1.00  0.00     0.068 A 
HETATM    3  N   UNL     1      44.118 -20.772   2.541  1.00  0.00    -0.177 NA
HETATM    4  N   UNL     1      43.252 -20.136   1.735  1.00  0.00    -0.260 N 
HETATM    5  H   UNL     1      42.992 -20.557   0.847  1.00  0.00     0.191 HD
HETATM    6  C   UNL     1      42.847 -18.938   2.246  1.00  0.00     0.162 A 
HETATM    7  C   UNL     1      43.450 -18.784   3.474  1.00  0.00     0.081 A 
HETATM    8  N   UNL     1      42.036 -18.071   1.650  1.00  0.00    -0.204 NA
HETATM    9  C   UNL     1      41.832 -16.959   2.369  1.00  0.00     0.177 A 
HETATM   10  N   UNL     1      42.358 -16.735   3.607  1.00  0.00    -0.276 N 
HETATM   11  C   UNL     1      43.197 -17.620   4.222  1.00  0.00     0.124 A 
ENDROOT
BRANCH   9  12
HETATM   12  S   UNL     1      40.921 -15.681   1.477  1.00  0.00    -0.082 SA
BRANCH  12  13
HETATM   13  C   UNL     1      41.718 -15.682  -0.177  1.00  0.00     0.185 C 
BRANCH  13  14
HETATM   14  C   UNL     1      40.912 -15.007  -1.279  1.00  0.00     0.232 C 
HETATM   15  N   UNL     1      39.567 -14.814  -0.985  1.00  0.00    -0.324 N 
HETATM   16  H   UNL     1      39.339 -14.782  -0.003  1.00  0.00     0.169 HD
HETATM   17  O   UNL     1      41.476 -14.634  -2.307  1.00  0.00    -0.272 OA
BRANCH  15  18
HETATM   18  C   UNL     1      38.729 -14.078  -1.855  1.00  0.00     0.071 A 
HETATM   19  C   UNL     1      38.538 -12.689  -1.713  1.00  0.00     0.095 A 
HETATM   20  C   UNL     1      37.664 -12.035  -2.587  1.00  0.00     0.042 A 
HETATM   21  C   UNL     1      36.995 -12.752  -3.584  1.00  0.00     0.039 A 
HETATM   22  C   UNL     1      37.194 -14.124  -3.722  1.00  0.00     0.070 A 
HETATM   23  C   UNL     1      38.096 -14.781  -2.889  1.00  0.00     0.069 A 
BRANCH  19  24
HETATM   24  O   UNL     1      39.305 -12.061  -0.766  1.00  0.00    -0.354 OA
HETATM   25  C   UNL     1      39.785 -10.758  -1.066  1.00  0.00     0.210 C 
ENDBRANCH  19  24
BRANCH  22  26
HETATM   26  O   UNL     1      36.500 -14.738  -4.727  1.00  0.00    -0.356 OA
HETATM   27  C   UNL     1      35.268 -14.103  -5.057  1.00  0.00     0.210 C 
ENDBRANCH  22  26
ENDBRANCH  15  18
ENDBRANCH  13  14
ENDBRANCH  12  13
ENDBRANCH   9  12
BRANCH  10  28
HETATM   28  C   UNL     1      41.996 -15.542   4.321  1.00  0.00     0.043 A 
HETATM   29  C   UNL     1      42.788 -14.402   4.155  1.00  0.00     0.031 A 
HETATM   30  C   UNL     1      42.416 -13.228   4.811  1.00  0.00     0.021 A 
HETATM   31  C   UNL     1      41.270 -13.211   5.610  1.00  0.00     0.011 A 
HETATM   32 BR   UNL     1      40.776 -11.617   6.497  1.00  0.00    -0.051 Br
HETATM   33  C   UNL     1      40.480 -14.355   5.757  1.00  0.00     0.021 A 
HETATM   34  C   UNL     1      40.836 -15.534   5.100  1.00  0.00     0.031 A 
ENDBRANCH  10  28
BRANCH  11  35
HETATM   35  N   UNL     1      43.775 -17.382   5.460  1.00  0.00    -0.384 N 
HETATM   36  H   UNL     1      43.478 -17.846   6.310  1.00  0.00     0.157 HD
HETATM   37  H   UNL     1      44.323 -16.541   5.603  1.00  0.00     0.157 HD
ENDBRANCH  11  35
TORSDOF 8
ENDMDL
MODEL 9
REMARK VINA RESULT:      -7.4      2.680      7.313
REMARK  8 active torsions:
REMARK  status: ('A' for Active; 'I' for Inactive)
REMARK    1  A    between atoms: C_9  and  S_10 
REMARK    2  A    between atoms: S_10  and  C_11 
REMARK    3  A    between atoms: C_11  and  C_12 
REMARK       I    between atoms: C_12  and  N_13 
REMARK    4  A    between atoms: N_13  and  C_14 
REMARK    5  A    between atoms: C_15  and  O_16 
REMARK    6  A    between atoms: C_20  and  O_21 
REMARK    7  A    between atoms: N_25  and  C_26 
REMARK    8  A    between atoms: C_33  and  N_34 
ROOT
HETATM    1  C   UNL     1      45.559 -18.138   6.498  1.00  0.00     0.073 C 
HETATM    2  C   UNL     1      44.597 -18.476   5.416  1.00  0.00     0.068 A 
HETATM    3  N   UNL     1      44.692 -19.666   4.809  1.00  0.00    -0.177 NA
HETATM    4  N   UNL     1      43.694 -19.666   3.911  1.00  0.00    -0.260 N 
HETATM    5  H   UNL     1      43.551 -20.481   3.321  1.00  0.00     0.191 HD
HETATM    6  C   UNL     1      42.996 -18.494   3.905  1.00  0.00     0.162 A 
HETATM    7  C   UNL     1      43.539 -17.682   4.876  1.00  0.00     0.081 A 
HETATM    8  N   UNL     1      41.992 -18.188   3.092  1.00  0.00    -0.204 NA
HETATM    9  C   UNL     1      41.511 -16.954   3.287  1.00  0.00     0.177 A 
HETATM   10  N   UNL     1      41.962 -16.094   4.246  1.00  0.00    -0.276 N 
HETATM   11  C   UNL     1      42.998 -16.400   5.082  1.00  0.00     0.124 A 
ENDROOT
BRANCH   9  12
HETATM   12  S   UNL     1      40.306 -16.444   2.044  1.00  0.00    -0.082 SA
BRANCH  12  13
HETATM   13  C   UNL     1      41.338 -16.179   0.550  1.00  0.00     0.185 C 
BRANCH  13  14
HETATM   14  C   UNL     1      41.180 -14.815  -0.107  1.00  0.00     0.232 C 
HETATM   15  N   UNL     1      42.192 -14.474  -0.998  1.00  0.00    -0.324 N 
HETATM   16  H   UNL     1      42.694 -15.251  -1.400  1.00  0.00     0.169 HD
HETATM   17  O   UNL     1      40.185 -14.133   0.133  1.00  0.00    -0.272 OA
BRANCH  15  18
HETATM   18  C   UNL     1      42.107 -13.300  -1.783  1.00  0.00     0.071 A 
HETATM   19  C   UNL     1      41.767 -13.337  -3.150  1.00  0.00     0.095 A 
HETATM   20  C   UNL     1      41.741 -12.139  -3.871  1.00  0.00     0.042 A 
HETATM   21  C   UNL     1      42.046 -10.929  -3.241  1.00  0.00     0.039 A 
HETATM   22  C   UNL     1      42.374 -10.900  -1.888  1.00  0.00     0.070 A 
HETATM   23  C   UNL     1      42.360 -12.078  -1.145  1.00  0.00     0.069 A 
BRANCH  19  24
HETATM   24  O   UNL     1      41.398 -14.557  -3.655  1.00  0.00    -0.354 OA
HETATM   25  C   UNL     1      40.021 -14.901  -3.602  1.00  0.00     0.210 C 
ENDBRANCH  19  24
BRANCH  22  26
HETATM   26  O   UNL     1      42.653  -9.671  -1.359  1.00  0.00    -0.356 OA
HETATM   27  C   UNL     1      44.045  -9.389  -1.241  1.00  0.00     0.210 C 
ENDBRANCH  22  26
ENDBRANCH  15  18
ENDBRANCH  13  14
ENDBRANCH  12  13
ENDBRANCH   9  12
BRANCH  10  28
HETATM   28  C   UNL     1      41.307 -14.827   4.421  1.00  0.00     0.043 A 
HETATM   29  C   UNL     1      41.722 -13.750   3.632  1.00  0.00     0.031 A 
HETATM   30  C   UNL     1      41.061 -12.529   3.765  1.00  0.00     0.021 A 
HETATM   31  C   UNL     1      40.005 -12.405   4.672  1.00  0.00     0.011 A 
HETATM   32 BR   UNL     1      39.117 -10.746   4.847  1.00  0.00    -0.051 Br
HETATM   33  C   UNL     1      39.592 -13.494   5.445  1.00  0.00     0.021 A 
HETATM   34  C   UNL     1      40.240 -14.724   5.316  1.00  0.00     0.031 A 
ENDBRANCH  10  28
BRANCH  11  35
HETATM   35  N   UNL     1      43.495 -15.518   6.028  1.00  0.00    -0.384 N 
HETATM   36  H   UNL     1      44.485 -15.359   6.173  1.00  0.00     0.157 HD
HETATM   37  H   UNL     1      42.899 -15.210   6.789  1.00  0.00     0.157 HD
ENDBRANCH  11  35
TORSDOF 8
ENDMDL
MODEL 10
REMARK VINA RESULT:      -7.4      3.333      7.376
REMARK  8 active torsions:
REMARK  status: ('A' for Active; 'I' for Inactive)
REMARK    1  A    between atoms: C_9  and  S_10 
REMARK    2  A    between atoms: S_10  and  C_11 
REMARK    3  A    between atoms: C_11  and  C_12 
REMARK       I    between atoms: C_12  and  N_13 
REMARK    4  A    between atoms: N_13  and  C_14 
REMARK    5  A    between atoms: C_15  and  O_16 
REMARK    6  A    between atoms: C_20  and  O_21 
REMARK    7  A    between atoms: N_25  and  C_26 
REMARK    8  A    between atoms: C_33  and  N_34 
ROOT
HETATM    1  C   UNL     1      41.109 -11.394   7.010  1.00  0.00     0.073 C 
HETATM    2  C   UNL     1      40.452 -11.884   5.770  1.00  0.00     0.068 A 
HETATM    3  N   UNL     1      39.508 -11.130   5.191  1.00  0.00    -0.177 NA
HETATM    4  N   UNL     1      39.134 -11.832   4.109  1.00  0.00    -0.260 N 
HETATM    5  H   UNL     1      38.421 -11.456   3.490  1.00  0.00     0.191 HD
HETATM    6  C   UNL     1      39.786 -13.026   4.010  1.00  0.00     0.162 A 
HETATM    7  C   UNL     1      40.666 -13.109   5.066  1.00  0.00     0.081 A 
HETATM    8  N   UNL     1      39.586 -13.949   3.075  1.00  0.00    -0.204 NA
HETATM    9  C   UNL     1      40.344 -15.040   3.240  1.00  0.00     0.177 A 
HETATM   10  N   UNL     1      41.266 -15.195   4.233  1.00  0.00    -0.276 N 
HETATM   11  C   UNL     1      41.472 -14.253   5.200  1.00  0.00     0.124 A 
ENDROOT
BRANCH   9  12
HETATM   12  S   UNL     1      39.920 -16.388   2.116  1.00  0.00    -0.082 SA
BRANCH  12  13
HETATM   13  C   UNL     1      41.126 -16.181   0.747  1.00  0.00     0.185 C 
BRANCH  13  14
HETATM   14  C   UNL     1      40.943 -14.919  -0.084  1.00  0.00     0.232 C 
HETATM   15  N   UNL     1      42.085 -14.488  -0.752  1.00  0.00    -0.324 N 
HETATM   16  H   UNL     1      42.775 -15.200  -0.932  1.00  0.00     0.169 HD
HETATM   17  O   UNL     1      39.833 -14.394  -0.163  1.00  0.00    -0.272 OA
BRANCH  15  18
HETATM   18  C   UNL     1      42.031 -13.412  -1.668  1.00  0.00     0.071 A 
HETATM   19  C   UNL     1      41.720 -13.602  -3.029  1.00  0.00     0.095 A 
HETATM   20  C   UNL     1      41.724 -12.495  -3.884  1.00  0.00     0.042 A 
HETATM   21  C   UNL     1      42.029 -11.223  -3.390  1.00  0.00     0.039 A 
HETATM   22  C   UNL     1      42.328 -11.041  -2.042  1.00  0.00     0.070 A 
HETATM   23  C   UNL     1      42.284 -12.126  -1.169  1.00  0.00     0.069 A 
BRANCH  19  24
HETATM   24  O   UNL     1      41.348 -14.869  -3.399  1.00  0.00    -0.354 OA
HETATM   25  C   UNL     1      39.966 -15.107  -3.630  1.00  0.00     0.210 C 
ENDBRANCH  19  24
BRANCH  22  26
HETATM   26  O   UNL     1      42.609  -9.762  -1.651  1.00  0.00    -0.356 OA
HETATM   27  C   UNL     1      43.965  -9.557  -1.261  1.00  0.00     0.210 C 
ENDBRANCH  22  26
ENDBRANCH  15  18
ENDBRANCH  13  14
ENDBRANCH  12  13
ENDBRANCH   9  12
BRANCH  10  28
HETATM   28  C   UNL     1      42.085 -16.375   4.255  1.00  0.00     0.043 A 
HETATM   29  C   UNL     1      41.689 -17.444   5.064  1.00  0.00     0.031 A 
HETATM   30  C   UNL     1      42.457 -18.609   5.057  1.00  0.00     0.021 A 
HETATM   31  C   UNL     1      43.593 -18.688   4.247  1.00  0.00     0.011 A 
HETATM   32 BR   UNL     1      44.628 -20.269   4.245  1.00  0.00    -0.051 Br
HETATM   33  C   UNL     1      43.970 -17.616   3.433  1.00  0.00     0.021 A 
HETATM   34  C   UNL     1      43.207 -16.447   3.425  1.00  0.00     0.031 A 
ENDBRANCH  10  28
BRANCH  11  35
HETATM   35  N   UNL     1      42.372 -14.420   6.241  1.00  0.00    -0.384 N 
HETATM   36  H   UNL     1      43.349 -14.647   6.099  1.00  0.00     0.157 HD
HETATM   37  H   UNL     1      42.028 -14.592   7.179  1.00  0.00     0.157 HD
ENDBRANCH  11  35
TORSDOF 8
ENDMDL
