MODEL 1
REMARK VINA RESULT:      -8.0      0.000      0.000
REMARK  9 active torsions:
REMARK  status: ('A' for Active; 'I' for Inactive)
REMARK    1  A    between atoms: C_2  and  C_3 
REMARK    2  A    between atoms: C_6  and  N_7 
REMARK    3  A    between atoms: N_7  and  S_8 
REMARK    4  A    between atoms: S_8  and  C_9 
REMARK    5  A    between atoms: C_15  and  C_16 
REMARK       I    between atoms: C_16  and  N_17 
REMARK    6  A    between atoms: N_17  and  C_18 
REMARK    7  A    between atoms: C_18  and  C_19 
REMARK    8  A    between atoms: C_19  and  C_20 
REMARK    9  A    between atoms: C_20  and  O_21 
ROOT
HETATM    1  C   UNL     1      40.822 -15.141   4.445  1.00  0.00     0.081 A 
HETATM    2  C   UNL     1      40.614 -15.244   3.068  1.00  0.00     0.043 A 
HETATM    3  C   UNL     1      39.882 -14.247   2.416  1.00  0.00     0.043 A 
HETATM    4  C   UNL     1      39.375 -13.142   3.122  1.00  0.00     0.046 A 
HETATM    5  N   UNL     1      38.611 -12.181   2.450  1.00  0.00    -0.364 N 
HETATM    6  C   UNL     1      38.429 -12.251   1.092  1.00  0.00     0.109 A 
HETATM    7  C   UNL     1      38.873 -13.238   0.296  1.00  0.00     0.098 A 
HETATM    8  C   UNL     1      39.638 -14.338   0.951  1.00  0.00     0.201 A 
HETATM    9  O   UNL     1      40.065 -15.297   0.312  1.00  0.00    -0.286 OA
HETATM   10  C   UNL     1      39.591 -13.059   4.501  1.00  0.00     0.032 A 
HETATM   11  C   UNL     1      40.324 -14.050   5.164  1.00  0.00     0.027 A 
HETATM   12  H   UNL     1      38.374 -11.315   2.924  1.00  0.00     0.165 HD
ENDROOT
BRANCH   1  13
HETATM   13  S   UNL     1      41.796 -16.384   5.269  1.00  0.00     0.263 S 
HETATM   14  O   UNL     1      41.032 -17.612   5.280  1.00  0.00    -0.200 OA
HETATM   15  O   UNL     1      42.285 -15.793   6.497  1.00  0.00    -0.200 OA
BRANCH  13  16
HETATM   16  N   UNL     1      43.133 -16.541   4.254  1.00  0.00    -0.281 N 
HETATM   17  H   UNL     1      43.278 -15.725   3.661  1.00  0.00     0.179 HD
BRANCH  16  18
HETATM   18  C   UNL     1      43.465 -17.817   3.725  1.00  0.00     0.042 A 
HETATM   19  C   UNL     1      44.233 -18.702   4.481  1.00  0.00     0.030 A 
HETATM   20  C   UNL     1      44.557 -19.959   3.960  1.00  0.00     0.009 A 
HETATM   21  C   UNL     1      44.115 -20.338   2.685  1.00  0.00    -0.058 A 
HETATM   22  C   UNL     1      43.348 -19.437   1.935  1.00  0.00     0.009 A 
HETATM   23  C   UNL     1      43.032 -18.179   2.452  1.00  0.00     0.030 A 
BRANCH  21  24
HETATM   24  C   UNL     1      44.423 -21.710   2.141  1.00  0.00     0.034 C 
HETATM   25  C   UNL     1      44.653 -22.721   3.254  1.00  0.00     0.010 C 
ENDBRANCH  21  24
ENDBRANCH  16  18
ENDBRANCH  13  16
ENDBRANCH   1  13
BRANCH   7  26
HETATM   26  C   UNL     1      38.578 -13.164  -1.164  1.00  0.00     0.257 C 
HETATM   27  N   UNL     1      38.204 -14.348  -1.747  1.00  0.00    -0.357 N 
HETATM   28  H   UNL     1      38.125 -15.175  -1.153  1.00  0.00     0.162 HD
HETATM   29  O   UNL     1      38.671 -12.110  -1.786  1.00  0.00    -0.267 OA
BRANCH  27  30
HETATM   30  C   UNL     1      37.870 -14.463  -3.151  1.00  0.00     0.125 C 
BRANCH  30  31
HETATM   31  C   UNL     1      38.571 -15.625  -3.847  1.00  0.00     0.046 C 
BRANCH  31  32
HETATM   32  C   UNL     1      40.023 -15.785  -3.412  1.00  0.00     0.168 C 
BRANCH  32  33
HETATM   33  O   UNL     1      40.765 -14.674  -3.917  1.00  0.00    -0.396 OA
HETATM   34  C   UNL     1      41.677 -14.167  -2.952  1.00  0.00     0.201 C 
ENDBRANCH  32  33
ENDBRANCH  31  32
ENDBRANCH  30  31
ENDBRANCH  27  30
ENDBRANCH   7  26
TORSDOF 9
ENDMDL
MODEL 2
REMARK VINA RESULT:      -7.9      1.857      2.385
REMARK  9 active torsions:
REMARK  status: ('A' for Active; 'I' for Inactive)
REMARK    1  A    between atoms: C_2  and  C_3 
REMARK    2  A    between atoms: C_6  and  N_7 
REMARK    3  A    between atoms: N_7  and  S_8 
REMARK    4  A    between atoms: S_8  and  C_9 
REMARK    5  A    between atoms: C_15  and  C_16 
REMARK       I    between atoms: C_16  and  N_17 
REMARK    6  A    between atoms: N_17  and  C_18 
REMARK    7  A    between atoms: C_18  and  C_19 
REMARK    8  A    between atoms: C_19  and  C_20 
REMARK    9  A    between atoms: C_20  and  O_21 
ROOT
HETATM    1  C   UNL     1      42.116 -15.093   3.718  1.00  0.00     0.081 A 
HETATM    2  C   UNL     1      41.778 -15.667   2.491  1.00  0.00     0.043 A 
HETATM    3  C   UNL     1      41.712 -14.853   1.356  1.00  0.00     0.043 A 
HETATM    4  C   UNL     1      42.000 -13.479   1.433  1.00  0.00     0.046 A 
HETATM    5  N   UNL     1      41.886 -12.681   0.289  1.00  0.00    -0.364 N 
HETATM    6  C   UNL     1      41.588 -13.238  -0.929  1.00  0.00     0.109 A 
HETATM    7  C   UNL     1      41.310 -14.535  -1.148  1.00  0.00     0.098 A 
HETATM    8  C   UNL     1      41.344 -15.438   0.038  1.00  0.00     0.201 A 
HETATM    9  O   UNL     1      41.082 -16.636  -0.054  1.00  0.00    -0.286 OA
HETATM   10  C   UNL     1      42.334 -12.923   2.671  1.00  0.00     0.032 A 
HETATM   11  C   UNL     1      42.405 -13.728   3.814  1.00  0.00     0.027 A 
HETATM   12  H   UNL     1      42.235 -11.728   0.310  1.00  0.00     0.165 HD
ENDROOT
BRANCH   1  13
HETATM   13  S   UNL     1      42.249 -16.137   5.155  1.00  0.00     0.263 S 
HETATM   14  O   UNL     1      41.282 -17.202   5.021  1.00  0.00    -0.200 OA
HETATM   15  O   UNL     1      42.251 -15.265   6.312  1.00  0.00    -0.200 OA
BRANCH  13  16
HETATM   16  N   UNL     1      43.813 -16.753   5.023  1.00  0.00    -0.281 N 
HETATM   17  H   UNL     1      44.506 -16.034   4.818  1.00  0.00     0.179 HD
BRANCH  16  18
HETATM   18  C   UNL     1      44.012 -18.047   4.472  1.00  0.00     0.042 A 
HETATM   19  C   UNL     1      44.377 -19.105   5.302  1.00  0.00     0.030 A 
HETATM   20  C   UNL     1      44.571 -20.379   4.760  1.00  0.00     0.009 A 
HETATM   21  C   UNL     1      44.398 -20.602   3.386  1.00  0.00    -0.058 A 
HETATM   22  C   UNL     1      44.035 -19.529   2.563  1.00  0.00     0.009 A 
HETATM   23  C   UNL     1      43.851 -18.255   3.104  1.00  0.00     0.030 A 
BRANCH  21  24
HETATM   24  C   UNL     1      44.558 -21.985   2.806  1.00  0.00     0.034 C 
HETATM   25  C   UNL     1      44.082 -22.052   1.363  1.00  0.00     0.010 C 
ENDBRANCH  21  24
ENDBRANCH  16  18
ENDBRANCH  13  16
ENDBRANCH   1  13
BRANCH   7  26
HETATM   26  C   UNL     1      40.998 -14.973  -2.538  1.00  0.00     0.257 C 
HETATM   27  N   UNL     1      39.792 -15.607  -2.696  1.00  0.00    -0.357 N 
HETATM   28  H   UNL     1      39.189 -15.708  -1.877  1.00  0.00     0.162 HD
HETATM   29  O   UNL     1      41.777 -14.775  -3.466  1.00  0.00    -0.267 OA
BRANCH  27  30
HETATM   30  C   UNL     1      39.319 -16.092  -3.975  1.00  0.00     0.125 C 
BRANCH  30  31
HETATM   31  C   UNL     1      37.945 -15.549  -4.358  1.00  0.00     0.046 C 
BRANCH  31  32
HETATM   32  C   UNL     1      37.429 -14.504  -3.376  1.00  0.00     0.168 C 
BRANCH  32  33
HETATM   33  O   UNL     1      38.149 -13.290  -3.596  1.00  0.00    -0.396 OA
HETATM   34  C   UNL     1      37.538 -12.188  -2.939  1.00  0.00     0.201 C 
ENDBRANCH  32  33
ENDBRANCH  31  32
ENDBRANCH  30  31
ENDBRANCH  27  30
ENDBRANCH   7  26
TORSDOF 9
ENDMDL
MODEL 3
REMARK VINA RESULT:      -7.9      4.602      8.249
REMARK  9 active torsions:
REMARK  status: ('A' for Active; 'I' for Inactive)
REMARK    1  A    between atoms: C_2  and  C_3 
REMARK    2  A    between atoms: C_6  and  N_7 
REMARK    3  A    between atoms: N_7  and  S_8 
REMARK    4  A    between atoms: S_8  and  C_9 
REMARK    5  A    between atoms: C_15  and  C_16 
REMARK       I    between atoms: C_16  and  N_17 
REMARK    6  A    between atoms: N_17  and  C_18 
REMARK    7  A    between atoms: C_18  and  C_19 
REMARK    8  A    between atoms: C_19  and  C_20 
REMARK    9  A    between atoms: C_20  and  O_21 
ROOT
HETATM    1  C   UNL     1      41.566 -13.380   4.125  1.00  0.00     0.081 A 
HETATM    2  C   UNL     1      41.902 -12.372   5.031  1.00  0.00     0.043 A 
HETATM    3  C   UNL     1      41.074 -12.151   6.137  1.00  0.00     0.043 A 
HETATM    4  C   UNL     1      39.929 -12.938   6.353  1.00  0.00     0.046 A 
HETATM    5  N   UNL     1      39.097 -12.666   7.445  1.00  0.00    -0.364 N 
HETATM    6  C   UNL     1      39.434 -11.702   8.362  1.00  0.00     0.109 A 
HETATM    7  C   UNL     1      40.504 -10.893   8.287  1.00  0.00     0.098 A 
HETATM    8  C   UNL     1      41.404 -11.076   7.112  1.00  0.00     0.201 A 
HETATM    9  O   UNL     1      42.396 -10.370   6.941  1.00  0.00    -0.286 OA
HETATM   10  C   UNL     1      39.609 -13.940   5.432  1.00  0.00     0.032 A 
HETATM   11  C   UNL     1      40.431 -14.173   4.324  1.00  0.00     0.027 A 
HETATM   12  H   UNL     1      38.361 -13.322   7.684  1.00  0.00     0.165 HD
ENDROOT
BRANCH   1  13
HETATM   13  S   UNL     1      42.646 -13.697   2.744  1.00  0.00     0.263 S 
HETATM   14  O   UNL     1      43.950 -14.036   3.269  1.00  0.00    -0.200 OA
HETATM   15  O   UNL     1      42.473 -12.602   1.812  1.00  0.00    -0.200 OA
BRANCH  13  16
HETATM   16  N   UNL     1      41.941 -15.049   2.024  1.00  0.00    -0.281 N 
HETATM   17  H   UNL     1      40.924 -14.990   1.982  1.00  0.00     0.179 HD
BRANCH  16  18
HETATM   18  C   UNL     1      42.528 -16.329   2.211  1.00  0.00     0.042 A 
HETATM   19  C   UNL     1      43.363 -16.858   1.229  1.00  0.00     0.030 A 
HETATM   20  C   UNL     1      43.943 -18.117   1.415  1.00  0.00     0.009 A 
HETATM   21  C   UNL     1      43.692 -18.852   2.584  1.00  0.00    -0.058 A 
HETATM   22  C   UNL     1      42.847 -18.309   3.559  1.00  0.00     0.009 A 
HETATM   23  C   UNL     1      42.262 -17.056   3.369  1.00  0.00     0.030 A 
BRANCH  21  24
HETATM   24  C   UNL     1      44.354 -20.187   2.808  1.00  0.00     0.034 C 
HETATM   25  C   UNL     1      43.819 -21.250   1.860  1.00  0.00     0.010 C 
ENDBRANCH  21  24
ENDBRANCH  16  18
ENDBRANCH  13  16
ENDBRANCH   1  13
BRANCH   7  26
HETATM   26  C   UNL     1      40.718  -9.890   9.369  1.00  0.00     0.257 C 
HETATM   27  N   UNL     1      41.854 -10.066  10.117  1.00  0.00    -0.357 N 
HETATM   28  H   UNL     1      42.478 -10.837   9.872  1.00  0.00     0.162 HD
HETATM   29  O   UNL     1      39.922  -8.975   9.564  1.00  0.00    -0.267 OA
BRANCH  27  30
HETATM   30  C   UNL     1      42.227  -9.183  11.201  1.00  0.00     0.125 C 
BRANCH  30  31
HETATM   31  C   UNL     1      43.457  -9.656  11.971  1.00  0.00     0.046 C 
BRANCH  31  32
HETATM   32  C   UNL     1      44.172 -10.815  11.287  1.00  0.00     0.168 C 
BRANCH  32  33
HETATM   33  O   UNL     1      44.668 -10.354  10.029  1.00  0.00    -0.396 OA
HETATM   34  C   UNL     1      45.091 -11.430   9.203  1.00  0.00     0.201 C 
ENDBRANCH  32  33
ENDBRANCH  31  32
ENDBRANCH  30  31
ENDBRANCH  27  30
ENDBRANCH   7  26
TORSDOF 9
ENDMDL
MODEL 4
REMARK VINA RESULT:      -7.9      3.290      8.639
REMARK  9 active torsions:
REMARK  status: ('A' for Active; 'I' for Inactive)
REMARK    1  A    between atoms: C_2  and  C_3 
REMARK    2  A    between atoms: C_6  and  N_7 
REMARK    3  A    between atoms: N_7  and  S_8 
REMARK    4  A    between atoms: S_8  and  C_9 
REMARK    5  A    between atoms: C_15  and  C_16 
REMARK       I    between atoms: C_16  and  N_17 
REMARK    6  A    between atoms: N_17  and  C_18 
REMARK    7  A    between atoms: C_18  and  C_19 
REMARK    8  A    between atoms: C_19  and  C_20 
REMARK    9  A    between atoms: C_20  and  O_21 
ROOT
HETATM    1  C   UNL     1      40.478 -14.722  -1.307  1.00  0.00     0.081 A 
HETATM    2  C   UNL     1      41.257 -15.587  -0.534  1.00  0.00     0.043 A 
HETATM    3  C   UNL     1      40.997 -15.692   0.835  1.00  0.00     0.043 A 
HETATM    4  C   UNL     1      39.958 -14.958   1.434  1.00  0.00     0.046 A 
HETATM    5  N   UNL     1      39.749 -15.052   2.815  1.00  0.00    -0.364 N 
HETATM    6  C   UNL     1      40.483 -15.924   3.579  1.00  0.00     0.109 A 
HETATM    7  C   UNL     1      41.489 -16.696   3.134  1.00  0.00     0.098 A 
HETATM    8  C   UNL     1      41.818 -16.599   1.683  1.00  0.00     0.201 A 
HETATM    9  O   UNL     1      42.737 -17.247   1.184  1.00  0.00    -0.286 OA
HETATM   10  C   UNL     1      39.193 -14.095   0.644  1.00  0.00     0.032 A 
HETATM   11  C   UNL     1      39.441 -13.983  -0.728  1.00  0.00     0.027 A 
HETATM   12  H   UNL     1      38.914 -14.643   3.220  1.00  0.00     0.165 HD
ENDROOT
BRANCH   1  13
HETATM   13  S   UNL     1      40.773 -14.624  -3.061  1.00  0.00     0.263 S 
HETATM   14  O   UNL     1      39.830 -13.680  -3.618  1.00  0.00    -0.200 OA
HETATM   15  O   UNL     1      40.854 -15.984  -3.552  1.00  0.00    -0.200 OA
BRANCH  13  16
HETATM   16  N   UNL     1      42.336 -13.997  -3.140  1.00  0.00    -0.281 N 
HETATM   17  H   UNL     1      43.044 -14.658  -2.824  1.00  0.00     0.179 HD
BRANCH  16  18
HETATM   18  C   UNL     1      42.552 -12.617  -2.884  1.00  0.00     0.042 A 
HETATM   19  C   UNL     1      42.370 -11.685  -3.904  1.00  0.00     0.030 A 
HETATM   20  C   UNL     1      42.580 -10.326  -3.650  1.00  0.00     0.009 A 
HETATM   21  C   UNL     1      42.970  -9.892  -2.375  1.00  0.00    -0.058 A 
HETATM   22  C   UNL     1      43.154 -10.839  -1.360  1.00  0.00     0.009 A 
HETATM   23  C   UNL     1      42.952 -12.197  -1.617  1.00  0.00     0.030 A 
BRANCH  21  24
HETATM   24  C   UNL     1      43.150  -8.423  -2.086  1.00  0.00     0.034 C 
HETATM   25  C   UNL     1      44.001  -8.190  -0.847  1.00  0.00     0.010 C 
ENDBRANCH  21  24
ENDBRANCH  16  18
ENDBRANCH  13  16
ENDBRANCH   1  13
BRANCH   7  26
HETATM   26  C   UNL     1      42.191 -17.584   4.104  1.00  0.00     0.257 C 
HETATM   27  N   UNL     1      43.555 -17.644   3.964  1.00  0.00    -0.357 N 
HETATM   28  H   UNL     1      43.991 -17.068   3.241  1.00  0.00     0.162 HD
HETATM   29  O   UNL     1      41.577 -18.212   4.962  1.00  0.00    -0.267 OA
BRANCH  27  30
HETATM   30  C   UNL     1      44.399 -18.445   4.823  1.00  0.00     0.125 C 
BRANCH  30  31
HETATM   31  C   UNL     1      44.417 -19.923   4.447  1.00  0.00     0.046 C 
BRANCH  31  32
HETATM   32  C   UNL     1      44.647 -20.151   2.958  1.00  0.00     0.168 C 
BRANCH  32  33
HETATM   33  O   UNL     1      44.635 -21.559   2.714  1.00  0.00    -0.396 OA
HETATM   34  C   UNL     1      43.884 -21.885   1.552  1.00  0.00     0.201 C 
ENDBRANCH  32  33
ENDBRANCH  31  32
ENDBRANCH  30  31
ENDBRANCH  27  30
ENDBRANCH   7  26
TORSDOF 9
ENDMDL
MODEL 5
REMARK VINA RESULT:      -7.7      4.612      8.140
REMARK  9 active torsions:
REMARK  status: ('A' for Active; 'I' for Inactive)
REMARK    1  A    between atoms: C_2  and  C_3 
REMARK    2  A    between atoms: C_6  and  N_7 
REMARK    3  A    between atoms: N_7  and  S_8 
REMARK    4  A    between atoms: S_8  and  C_9 
REMARK    5  A    between atoms: C_15  and  C_16 
REMARK       I    between atoms: C_16  and  N_17 
REMARK    6  A    between atoms: N_17  and  C_18 
REMARK    7  A    between atoms: C_18  and  C_19 
REMARK    8  A    between atoms: C_19  and  C_20 
REMARK    9  A    between atoms: C_20  and  O_21 
ROOT
HETATM    1  C   UNL     1      42.193 -16.809   3.231  1.00  0.00     0.081 A 
HETATM    2  C   UNL     1      42.977 -15.746   3.687  1.00  0.00     0.043 A 
HETATM    3  C   UNL     1      43.213 -15.616   5.059  1.00  0.00     0.043 A 
HETATM    4  C   UNL     1      42.692 -16.548   5.974  1.00  0.00     0.046 A 
HETATM    5  N   UNL     1      42.910 -16.369   7.345  1.00  0.00    -0.364 N 
HETATM    6  C   UNL     1      43.706 -15.349   7.803  1.00  0.00     0.109 A 
HETATM    7  C   UNL     1      44.280 -14.404   7.040  1.00  0.00     0.098 A 
HETATM    8  C   UNL     1      44.036 -14.487   5.571  1.00  0.00     0.201 A 
HETATM    9  O   UNL     1      44.497 -13.656   4.791  1.00  0.00    -0.286 OA
HETATM   10  C   UNL     1      41.908 -17.602   5.499  1.00  0.00     0.032 A 
HETATM   11  C   UNL     1      41.666 -17.744   4.128  1.00  0.00     0.027 A 
HETATM   12  H   UNL     1      42.664 -17.114   7.989  1.00  0.00     0.165 HD
ENDROOT
BRANCH   1  13
HETATM   13  S   UNL     1      41.933 -17.004   1.480  1.00  0.00     0.263 S 
HETATM   14  O   UNL     1      41.934 -15.688   0.882  1.00  0.00    -0.200 OA
HETATM   15  O   UNL     1      40.808 -17.902   1.318  1.00  0.00    -0.200 OA
BRANCH  13  16
HETATM   16  N   UNL     1      43.299 -17.864   0.995  1.00  0.00    -0.281 N 
HETATM   17  H   UNL     1      43.459 -17.821  -0.010  1.00  0.00     0.179 HD
BRANCH  16  18
HETATM   18  C   UNL     1      43.652 -19.060   1.675  1.00  0.00     0.042 A 
HETATM   19  C   UNL     1      44.550 -19.013   2.740  1.00  0.00     0.030 A 
HETATM   20  C   UNL     1      44.895 -20.191   3.411  1.00  0.00     0.009 A 
HETATM   21  C   UNL     1      44.342 -21.420   3.022  1.00  0.00    -0.058 A 
HETATM   22  C   UNL     1      43.445 -21.453   1.948  1.00  0.00     0.009 A 
HETATM   23  C   UNL     1      43.108 -20.278   1.273  1.00  0.00     0.030 A 
BRANCH  21  24
HETATM   24  C   UNL     1      44.675 -22.684   3.774  1.00  0.00     0.034 C 
HETATM   25  C   UNL     1      45.125 -22.394   5.198  1.00  0.00     0.010 C 
ENDBRANCH  21  24
ENDBRANCH  16  18
ENDBRANCH  13  16
ENDBRANCH   1  13
BRANCH   7  26
HETATM   26  C   UNL     1      45.111 -13.359   7.702  1.00  0.00     0.257 C 
HETATM   27  N   UNL     1      44.557 -12.791   8.821  1.00  0.00    -0.357 N 
HETATM   28  H   UNL     1      43.647 -13.134   9.136  1.00  0.00     0.162 HD
HETATM   29  O   UNL     1      46.212 -13.038   7.263  1.00  0.00    -0.267 OA
BRANCH  27  30
HETATM   30  C   UNL     1      45.224 -11.768   9.598  1.00  0.00     0.125 C 
BRANCH  30  31
HETATM   31  C   UNL     1      44.267 -10.750  10.208  1.00  0.00     0.046 C 
BRANCH  31  32
HETATM   32  C   UNL     1      43.215 -11.392  11.105  1.00  0.00     0.168 C 
BRANCH  32  33
HETATM   33  O   UNL     1      41.926 -11.000  10.631  1.00  0.00    -0.396 OA
HETATM   34  C   UNL     1      42.018 -10.078   9.554  1.00  0.00     0.201 C 
ENDBRANCH  32  33
ENDBRANCH  31  32
ENDBRANCH  30  31
ENDBRANCH  27  30
ENDBRANCH   7  26
TORSDOF 9
ENDMDL
MODEL 6
REMARK VINA RESULT:      -7.7      2.442      3.200
REMARK  9 active torsions:
REMARK  status: ('A' for Active; 'I' for Inactive)
REMARK    1  A    between atoms: C_2  and  C_3 
REMARK    2  A    between atoms: C_6  and  N_7 
REMARK    3  A    between atoms: N_7  and  S_8 
REMARK    4  A    between atoms: S_8  and  C_9 
REMARK    5  A    between atoms: C_15  and  C_16 
REMARK       I    between atoms: C_16  and  N_17 
REMARK    6  A    between atoms: N_17  and  C_18 
REMARK    7  A    between atoms: C_18  and  C_19 
REMARK    8  A    between atoms: C_19  and  C_20 
REMARK    9  A    between atoms: C_20  and  O_21 
ROOT
HETATM    1  C   UNL     1      42.626 -16.717   5.581  1.00  0.00     0.081 A 
HETATM    2  C   UNL     1      42.888 -15.705   4.655  1.00  0.00     0.043 A 
HETATM    3  C   UNL     1      42.093 -15.612   3.508  1.00  0.00     0.043 A 
HETATM    4  C   UNL     1      41.031 -16.507   3.289  1.00  0.00     0.046 A 
HETATM    5  N   UNL     1      40.279 -16.416   2.112  1.00  0.00    -0.364 N 
HETATM    6  C   UNL     1      40.504 -15.406   1.211  1.00  0.00     0.109 A 
HETATM    7  C   UNL     1      41.469 -14.477   1.305  1.00  0.00     0.098 A 
HETATM    8  C   UNL     1      42.358 -14.549   2.500  1.00  0.00     0.201 A 
HETATM    9  O   UNL     1      43.285 -13.759   2.666  1.00  0.00    -0.286 OA
HETATM   10  C   UNL     1      40.787 -17.515   4.227  1.00  0.00     0.032 A 
HETATM   11  C   UNL     1      41.574 -17.616   5.379  1.00  0.00     0.027 A 
HETATM   12  H   UNL     1      39.427 -16.960   2.023  1.00  0.00     0.165 HD
ENDROOT
BRANCH   1  13
HETATM   13  S   UNL     1      43.604 -16.805   7.067  1.00  0.00     0.263 S 
HETATM   14  O   UNL     1      42.856 -17.561   8.046  1.00  0.00    -0.200 OA
HETATM   15  O   UNL     1      44.068 -15.462   7.348  1.00  0.00    -0.200 OA
BRANCH  13  16
HETATM   16  N   UNL     1      44.957 -17.679   6.569  1.00  0.00    -0.281 N 
HETATM   17  H   UNL     1      45.777 -17.092   6.423  1.00  0.00     0.179 HD
BRANCH  16  18
HETATM   18  C   UNL     1      44.789 -18.810   5.726  1.00  0.00     0.042 A 
HETATM   19  C   UNL     1      44.888 -18.666   4.344  1.00  0.00     0.030 A 
HETATM   20  C   UNL     1      44.725 -19.781   3.515  1.00  0.00     0.009 A 
HETATM   21  C   UNL     1      44.466 -21.045   4.065  1.00  0.00    -0.058 A 
HETATM   22  C   UNL     1      44.365 -21.174   5.455  1.00  0.00     0.009 A 
HETATM   23  C   UNL     1      44.519 -20.060   6.281  1.00  0.00     0.030 A 
BRANCH  21  24
HETATM   24  C   UNL     1      44.338 -22.257   3.177  1.00  0.00     0.034 C 
HETATM   25  C   UNL     1      44.037 -21.873   1.736  1.00  0.00     0.010 C 
ENDBRANCH  21  24
ENDBRANCH  16  18
ENDBRANCH  13  16
ENDBRANCH   1  13
BRANCH   7  26
HETATM   26  C   UNL     1      41.580 -13.451   0.229  1.00  0.00     0.257 C 
HETATM   27  N   UNL     1      41.996 -13.922  -0.990  1.00  0.00    -0.357 N 
HETATM   28  H   UNL     1      42.170 -14.924  -1.086  1.00  0.00     0.162 HD
HETATM   29  O   UNL     1      41.316 -12.270   0.436  1.00  0.00    -0.267 OA
BRANCH  27  30
HETATM   30  C   UNL     1      42.150 -13.073  -2.152  1.00  0.00     0.125 C 
BRANCH  30  31
HETATM   31  C   UNL     1      41.728 -13.745  -3.454  1.00  0.00     0.046 C 
BRANCH  31  32
HETATM   32  C   UNL     1      40.275 -14.203  -3.438  1.00  0.00     0.168 C 
BRANCH  32  33
HETATM   33  O   UNL     1      40.197 -15.463  -4.106  1.00  0.00    -0.396 OA
HETATM   34  C   UNL     1      38.884 -16.005  -4.057  1.00  0.00     0.201 C 
ENDBRANCH  32  33
ENDBRANCH  31  32
ENDBRANCH  30  31
ENDBRANCH  27  30
ENDBRANCH   7  26
TORSDOF 9
ENDMDL
MODEL 7
REMARK VINA RESULT:      -7.5      2.418      3.282
REMARK  9 active torsions:
REMARK  status: ('A' for Active; 'I' for Inactive)
REMARK    1  A    between atoms: C_2  and  C_3 
REMARK    2  A    between atoms: C_6  and  N_7 
REMARK    3  A    between atoms: N_7  and  S_8 
REMARK    4  A    between atoms: S_8  and  C_9 
REMARK    5  A    between atoms: C_15  and  C_16 
REMARK       I    between atoms: C_16  and  N_17 
REMARK    6  A    between atoms: N_17  and  C_18 
REMARK    7  A    between atoms: C_18  and  C_19 
REMARK    8  A    between atoms: C_19  and  C_20 
REMARK    9  A    between atoms: C_20  and  O_21 
ROOT
HETATM    1  C   UNL     1      42.702 -16.744   6.340  1.00  0.00     0.081 A 
HETATM    2  C   UNL     1      43.101 -16.006   5.223  1.00  0.00     0.043 A 
HETATM    3  C   UNL     1      42.128 -15.353   4.459  1.00  0.00     0.043 A 
HETATM    4  C   UNL     1      40.769 -15.415   4.812  1.00  0.00     0.046 A 
HETATM    5  N   UNL     1      39.814 -14.786   4.004  1.00  0.00    -0.364 N 
HETATM    6  C   UNL     1      40.195 -14.029   2.925  1.00  0.00     0.109 A 
HETATM    7  C   UNL     1      41.456 -13.871   2.489  1.00  0.00     0.098 A 
HETATM    8  C   UNL     1      42.525 -14.569   3.258  1.00  0.00     0.201 A 
HETATM    9  O   UNL     1      43.707 -14.505   2.925  1.00  0.00    -0.286 OA
HETATM   10  C   UNL     1      40.390 -16.161   5.932  1.00  0.00     0.032 A 
HETATM   11  C   UNL     1      41.354 -16.817   6.705  1.00  0.00     0.027 A 
HETATM   12  H   UNL     1      38.858 -14.704   4.337  1.00  0.00     0.165 HD
ENDROOT
BRANCH   1  13
HETATM   13  S   UNL     1      43.944 -17.534   7.344  1.00  0.00     0.263 S 
HETATM   14  O   UNL     1      43.768 -17.082   8.705  1.00  0.00    -0.200 OA
HETATM   15  O   UNL     1      45.208 -17.373   6.656  1.00  0.00    -0.200 OA
BRANCH  13  16
HETATM   16  N   UNL     1      43.540 -19.166   7.217  1.00  0.00    -0.281 N 
HETATM   17  H   UNL     1      43.575 -19.653   8.111  1.00  0.00     0.179 HD
BRANCH  16  18
HETATM   18  C   UNL     1      43.900 -19.888   6.048  1.00  0.00     0.042 A 
HETATM   19  C   UNL     1      44.350 -21.203   6.157  1.00  0.00     0.030 A 
HETATM   20  C   UNL     1      44.702 -21.914   5.006  1.00  0.00     0.009 A 
HETATM   21  C   UNL     1      44.605 -21.316   3.741  1.00  0.00    -0.058 A 
HETATM   22  C   UNL     1      44.156 -19.993   3.647  1.00  0.00     0.009 A 
HETATM   23  C   UNL     1      43.812 -19.281   4.798  1.00  0.00     0.030 A 
BRANCH  21  24
HETATM   24  C   UNL     1      44.938 -22.096   2.495  1.00  0.00     0.034 C 
HETATM   25  C   UNL     1      43.886 -21.910   1.412  1.00  0.00     0.010 C 
ENDBRANCH  21  24
ENDBRANCH  16  18
ENDBRANCH  13  16
ENDBRANCH   1  13
BRANCH   7  26
HETATM   26  C   UNL     1      41.694 -13.018   1.289  1.00  0.00     0.257 C 
HETATM   27  N   UNL     1      41.889 -13.700   0.115  1.00  0.00    -0.357 N 
HETATM   28  H   UNL     1      41.831 -14.720   0.133  1.00  0.00     0.162 HD
HETATM   29  O   UNL     1      41.714 -11.793   1.364  1.00  0.00    -0.267 OA
BRANCH  27  30
HETATM   30  C   UNL     1      42.124 -13.037  -1.150  1.00  0.00     0.125 C 
BRANCH  30  31
HETATM   31  C   UNL     1      41.174 -13.486  -2.255  1.00  0.00     0.046 C 
BRANCH  31  32
HETATM   32  C   UNL     1      40.907 -14.987  -2.230  1.00  0.00     0.168 C 
BRANCH  32  33
HETATM   33  O   UNL     1      40.743 -15.434  -3.576  1.00  0.00    -0.396 OA
HETATM   34  C   UNL     1      39.479 -16.052  -3.776  1.00  0.00     0.201 C 
ENDBRANCH  32  33
ENDBRANCH  31  32
ENDBRANCH  30  31
ENDBRANCH  27  30
ENDBRANCH   7  26
TORSDOF 9
ENDMDL
MODEL 8
REMARK VINA RESULT:      -7.5      2.690      3.834
REMARK  9 active torsions:
REMARK  status: ('A' for Active; 'I' for Inactive)
REMARK    1  A    between atoms: C_2  and  C_3 
REMARK    2  A    between atoms: C_6  and  N_7 
REMARK    3  A    between atoms: N_7  and  S_8 
REMARK    4  A    between atoms: S_8  and  C_9 
REMARK    5  A    between atoms: C_15  and  C_16 
REMARK       I    between atoms: C_16  and  N_17 
REMARK    6  A    between atoms: N_17  and  C_18 
REMARK    7  A    between atoms: C_18  and  C_19 
REMARK    8  A    between atoms: C_19  and  C_20 
REMARK    9  A    between atoms: C_20  and  O_21 
ROOT
HETATM    1  C   UNL     1      41.433 -15.539   3.565  1.00  0.00     0.081 A 
HETATM    2  C   UNL     1      41.845 -14.438   2.811  1.00  0.00     0.043 A 
HETATM    3  C   UNL     1      41.283 -14.234   1.547  1.00  0.00     0.043 A 
HETATM    4  C   UNL     1      40.303 -15.106   1.041  1.00  0.00     0.046 A 
HETATM    5  N   UNL     1      39.789 -14.900  -0.245  1.00  0.00    -0.364 N 
HETATM    6  C   UNL     1      40.159 -13.803  -0.982  1.00  0.00     0.109 A 
HETATM    7  C   UNL     1      41.067 -12.885  -0.613  1.00  0.00     0.098 A 
HETATM    8  C   UNL     1      41.712 -13.074   0.718  1.00  0.00     0.201 A 
HETATM    9  O   UNL     1      42.572 -12.301   1.136  1.00  0.00    -0.286 OA
HETATM   10  C   UNL     1      39.907 -16.203   1.811  1.00  0.00     0.032 A 
HETATM   11  C   UNL     1      40.460 -16.417   3.078  1.00  0.00     0.027 A 
HETATM   12  H   UNL     1      38.982 -15.435  -0.549  1.00  0.00     0.165 HD
ENDROOT
BRANCH   1  13
HETATM   13  S   UNL     1      42.111 -15.773   5.196  1.00  0.00     0.263 S 
HETATM   14  O   UNL     1      41.351 -16.816   5.847  1.00  0.00    -0.200 OA
HETATM   15  O   UNL     1      42.244 -14.459   5.791  1.00  0.00    -0.200 OA
BRANCH  13  16
HETATM   16  N   UNL     1      43.676 -16.309   4.875  1.00  0.00    -0.281 N 
HETATM   17  H   UNL     1      44.283 -15.571   4.521  1.00  0.00     0.179 HD
BRANCH  16  18
HETATM   18  C   UNL     1      43.880 -17.628   4.389  1.00  0.00     0.042 A 
HETATM   19  C   UNL     1      43.823 -17.880   3.020  1.00  0.00     0.030 A 
HETATM   20  C   UNL     1      44.026 -19.179   2.544  1.00  0.00     0.009 A 
HETATM   21  C   UNL     1      44.289 -20.232   3.433  1.00  0.00    -0.058 A 
HETATM   22  C   UNL     1      44.339 -19.964   4.806  1.00  0.00     0.009 A 
HETATM   23  C   UNL     1      44.127 -18.669   5.282  1.00  0.00     0.030 A 
BRANCH  21  24
HETATM   24  C   UNL     1      44.556 -21.623   2.918  1.00  0.00     0.034 C 
HETATM   25  C   UNL     1      43.965 -21.838   1.533  1.00  0.00     0.010 C 
ENDBRANCH  21  24
ENDBRANCH  16  18
ENDBRANCH  13  16
ENDBRANCH   1  13
BRANCH   7  26
HETATM   26  C   UNL     1      41.359 -11.756  -1.542  1.00  0.00     0.257 C 
HETATM   27  N   UNL     1      42.649 -11.291  -1.514  1.00  0.00    -0.357 N 
HETATM   28  H   UNL     1      43.316 -11.757  -0.895  1.00  0.00     0.162 HD
HETATM   29  O   UNL     1      40.493 -11.285  -2.274  1.00  0.00    -0.267 OA
BRANCH  27  30
HETATM   30  C   UNL     1      43.114 -10.209  -2.354  1.00  0.00     0.125 C 
BRANCH  30  31
HETATM   31  C   UNL     1      43.618  -9.004  -1.566  1.00  0.00     0.046 C 
BRANCH  31  32
HETATM   32  C   UNL     1      43.150  -9.010  -0.115  1.00  0.00     0.168 C 
BRANCH  32  33
HETATM   33  O   UNL     1      41.774  -8.631  -0.088  1.00  0.00    -0.396 OA
HETATM   34  C   UNL     1      41.107  -9.148   1.056  1.00  0.00     0.201 C 
ENDBRANCH  32  33
ENDBRANCH  31  32
ENDBRANCH  30  31
ENDBRANCH  27  30
ENDBRANCH   7  26
TORSDOF 9
ENDMDL
MODEL 9
REMARK VINA RESULT:      -7.3      2.673      7.988
REMARK  9 active torsions:
REMARK  status: ('A' for Active; 'I' for Inactive)
REMARK    1  A    between atoms: C_2  and  C_3 
REMARK    2  A    between atoms: C_6  and  N_7 
REMARK    3  A    between atoms: N_7  and  S_8 
REMARK    4  A    between atoms: S_8  and  C_9 
REMARK    5  A    between atoms: C_15  and  C_16 
REMARK       I    between atoms: C_16  and  N_17 
REMARK    6  A    between atoms: N_17  and  C_18 
REMARK    7  A    between atoms: C_18  and  C_19 
REMARK    8  A    between atoms: C_19  and  C_20 
REMARK    9  A    between atoms: C_20  and  O_21 
ROOT
HETATM    1  C   UNL     1      41.602 -14.252   4.686  1.00  0.00     0.081 A 
HETATM    2  C   UNL     1      41.625 -15.648   4.733  1.00  0.00     0.043 A 
HETATM    3  C   UNL     1      42.624 -16.286   5.475  1.00  0.00     0.043 A 
HETATM    4  C   UNL     1      43.584 -15.543   6.185  1.00  0.00     0.046 A 
HETATM    5  N   UNL     1      44.597 -16.209   6.885  1.00  0.00    -0.364 N 
HETATM    6  C   UNL     1      44.610 -17.579   6.967  1.00  0.00     0.109 A 
HETATM    7  C   UNL     1      43.746 -18.406   6.356  1.00  0.00     0.098 A 
HETATM    8  C   UNL     1      42.677 -17.772   5.533  1.00  0.00     0.201 A 
HETATM    9  O   UNL     1      41.852 -18.444   4.916  1.00  0.00    -0.286 OA
HETATM   10  C   UNL     1      43.546 -14.147   6.123  1.00  0.00     0.032 A 
HETATM   11  C   UNL     1      42.550 -13.498   5.385  1.00  0.00     0.027 A 
HETATM   12  H   UNL     1      45.195 -15.683   7.513  1.00  0.00     0.165 HD
ENDROOT
BRANCH   1  13
HETATM   13  S   UNL     1      40.301 -13.437   3.783  1.00  0.00     0.263 S 
HETATM   14  O   UNL     1      40.913 -12.469   2.901  1.00  0.00    -0.200 OA
HETATM   15  O   UNL     1      39.297 -13.044   4.750  1.00  0.00    -0.200 OA
BRANCH  13  16
HETATM   16  N   UNL     1      39.628 -14.696   2.886  1.00  0.00    -0.281 N 
HETATM   17  H   UNL     1      39.494 -15.545   3.433  1.00  0.00     0.179 HD
BRANCH  16  18
HETATM   18  C   UNL     1      39.961 -14.834   1.512  1.00  0.00     0.042 A 
HETATM   19  C   UNL     1      39.274 -14.093   0.553  1.00  0.00     0.030 A 
HETATM   20  C   UNL     1      39.605 -14.228  -0.799  1.00  0.00     0.009 A 
HETATM   21  C   UNL     1      40.626 -15.102  -1.198  1.00  0.00    -0.058 A 
HETATM   22  C   UNL     1      41.306 -15.844  -0.224  1.00  0.00     0.009 A 
HETATM   23  C   UNL     1      40.969 -15.715   1.124  1.00  0.00     0.030 A 
BRANCH  21  24
HETATM   24  C   UNL     1      41.018 -15.213  -2.650  1.00  0.00     0.034 C 
HETATM   25  C   UNL     1      39.988 -15.990  -3.456  1.00  0.00     0.010 C 
ENDBRANCH  21  24
ENDBRANCH  16  18
ENDBRANCH  13  16
ENDBRANCH   1  13
BRANCH   7  26
HETATM   26  C   UNL     1      43.910 -19.876   6.545  1.00  0.00     0.257 C 
HETATM   27  N   UNL     1      44.361 -20.562   5.446  1.00  0.00    -0.357 N 
HETATM   28  H   UNL     1      44.577 -20.030   4.601  1.00  0.00     0.162 HD
HETATM   29  O   UNL     1      43.653 -20.420   7.616  1.00  0.00    -0.267 OA
BRANCH  27  30
HETATM   30  C   UNL     1      44.588 -21.991   5.449  1.00  0.00     0.125 C 
BRANCH  30  31
HETATM   31  C   UNL     1      45.157 -22.517   4.135  1.00  0.00     0.046 C 
BRANCH  31  32
HETATM   32  C   UNL     1      44.302 -22.143   2.930  1.00  0.00     0.168 C 
BRANCH  32  33
HETATM   33  O   UNL     1      44.697 -20.844   2.488  1.00  0.00    -0.396 OA
HETATM   34  C   UNL     1      43.587 -20.081   2.034  1.00  0.00     0.201 C 
ENDBRANCH  32  33
ENDBRANCH  31  32
ENDBRANCH  30  31
ENDBRANCH  27  30
ENDBRANCH   7  26
TORSDOF 9
ENDMDL
MODEL 10
REMARK VINA RESULT:      -7.3      4.201      8.078
REMARK  9 active torsions:
REMARK  status: ('A' for Active; 'I' for Inactive)
REMARK    1  A    between atoms: C_2  and  C_3 
REMARK    2  A    between atoms: C_6  and  N_7 
REMARK    3  A    between atoms: N_7  and  S_8 
REMARK    4  A    between atoms: S_8  and  C_9 
REMARK    5  A    between atoms: C_15  and  C_16 
REMARK       I    between atoms: C_16  and  N_17 
REMARK    6  A    between atoms: N_17  and  C_18 
REMARK    7  A    between atoms: C_18  and  C_19 
REMARK    8  A    between atoms: C_19  and  C_20 
REMARK    9  A    between atoms: C_20  and  O_21 
ROOT
HETATM    1  C   UNL     1      40.853 -14.471   3.074  1.00  0.00     0.081 A 
HETATM    2  C   UNL     1      40.053 -13.965   4.101  1.00  0.00     0.043 A 
HETATM    3  C   UNL     1      40.632 -13.129   5.062  1.00  0.00     0.043 A 
HETATM    4  C   UNL     1      41.993 -12.781   4.993  1.00  0.00     0.046 A 
HETATM    5  N   UNL     1      42.553 -11.977   5.993  1.00  0.00    -0.364 N 
HETATM    6  C   UNL     1      41.772 -11.445   6.987  1.00  0.00     0.109 A 
HETATM    7  C   UNL     1      40.460 -11.679   7.159  1.00  0.00     0.098 A 
HETATM    8  C   UNL     1      39.804 -12.584   6.172  1.00  0.00     0.201 A 
HETATM    9  O   UNL     1      38.614 -12.880   6.257  1.00  0.00    -0.286 OA
HETATM   10  C   UNL     1      42.776 -13.301   3.960  1.00  0.00     0.032 A 
HETATM   11  C   UNL     1      42.208 -14.136   2.991  1.00  0.00     0.027 A 
HETATM   12  H   UNL     1      43.489 -11.607   5.865  1.00  0.00     0.165 HD
ENDROOT
BRANCH   1  13
HETATM   13  S   UNL     1      40.108 -15.494   1.820  1.00  0.00     0.263 S 
HETATM   14  O   UNL     1      40.963 -15.463   0.655  1.00  0.00    -0.200 OA
HETATM   15  O   UNL     1      38.713 -15.113   1.739  1.00  0.00    -0.200 OA
BRANCH  13  16
HETATM   16  N   UNL     1      40.140 -17.026   2.524  1.00  0.00    -0.281 N 
HETATM   17  H   UNL     1      39.238 -17.307   2.904  1.00  0.00     0.179 HD
BRANCH  16  18
HETATM   18  C   UNL     1      41.312 -17.463   3.198  1.00  0.00     0.042 A 
HETATM   19  C   UNL     1      41.345 -17.482   4.591  1.00  0.00     0.030 A 
HETATM   20  C   UNL     1      42.498 -17.915   5.253  1.00  0.00     0.009 A 
HETATM   21  C   UNL     1      43.623 -18.332   4.526  1.00  0.00    -0.058 A 
HETATM   22  C   UNL     1      43.577 -18.304   3.127  1.00  0.00     0.009 A 
HETATM   23  C   UNL     1      42.428 -17.863   2.467  1.00  0.00     0.030 A 
BRANCH  21  24
HETATM   24  C   UNL     1      44.849 -18.845   5.237  1.00  0.00     0.034 C 
HETATM   25  C   UNL     1      45.084 -18.122   6.554  1.00  0.00     0.010 C 
ENDBRANCH  21  24
ENDBRANCH  16  18
ENDBRANCH  13  16
ENDBRANCH   1  13
BRANCH   7  26
HETATM   26  C   UNL     1      39.762 -11.025   8.302  1.00  0.00     0.257 C 
HETATM   27  N   UNL     1      40.361 -11.187   9.526  1.00  0.00    -0.357 N 
HETATM   28  H   UNL     1      41.239 -11.706   9.568  1.00  0.00     0.162 HD
HETATM   29  O   UNL     1      38.722 -10.391   8.143  1.00  0.00    -0.267 OA
BRANCH  27  30
HETATM   30  C   UNL     1      39.830 -10.613  10.744  1.00  0.00     0.125 C 
BRANCH  30  31
HETATM   31  C   UNL     1      40.220 -11.388  11.998  1.00  0.00     0.046 C 
BRANCH  31  32
HETATM   32  C   UNL     1      41.493 -10.858  12.647  1.00  0.00     0.168 C 
BRANCH  32  33
HETATM   33  O   UNL     1      42.338 -10.343  11.617  1.00  0.00    -0.396 OA
HETATM   34  C   UNL     1      43.696 -10.709  11.818  1.00  0.00     0.201 C 
ENDBRANCH  32  33
ENDBRANCH  31  32
ENDBRANCH  30  31
ENDBRANCH  27  30
ENDBRANCH   7  26
TORSDOF 9
ENDMDL
