MODEL 1
REMARK VINA RESULT:      -8.9      0.000      0.000
REMARK  5 active torsions:
REMARK  status: ('A' for Active; 'I' for Inactive)
REMARK    1  A    between atoms: C_4  and  C_5 
REMARK    2  A    between atoms: C_5  and  N_6 
REMARK       I    between atoms: N_6  and  C_7 
REMARK    3  A    between atoms: C_7  and  C_8 
REMARK    4  A    between atoms: C_11  and  N_12 
REMARK       I    between atoms: N_12  and  C_13 
REMARK       I    between atoms: C_13  and  N_14 
REMARK    5  A    between atoms: N_14  and  C_15 
ROOT
HETATM    1  C   UNL     1      43.270 -15.929   5.008  1.00  0.00     0.032 A 
HETATM    2  C   UNL     1      43.030 -14.573   4.767  1.00  0.00     0.019 A 
HETATM    3  C   UNL     1      43.346 -13.618   5.743  1.00  0.00     0.030 A 
HETATM    4  C   UNL     1      43.896 -14.006   6.968  1.00  0.00     0.036 A 
HETATM    5  C   UNL     1      44.179 -15.360   7.184  1.00  0.00     0.030 A 
HETATM    6  C   UNL     1      43.871 -16.315   6.211  1.00  0.00     0.019 A 
ENDROOT
BRANCH   4   7
HETATM    7  N   UNL     1      44.191 -13.114   8.019  1.00  0.00    -0.309 N 
HETATM    8  C   UNL     1      45.408 -12.579   8.347  1.00  0.00     0.325 C 
HETATM    9  N   UNL     1      45.437 -11.748   9.436  1.00  0.00    -0.306 N 
HETATM   10  O   UNL     1      46.451 -12.727   7.712  1.00  0.00    -0.247 OA
HETATM   11  H   UNL     1      46.303 -11.226   9.501  1.00  0.00     0.171 HD
HETATM   12  H   UNL     1      43.397 -12.639   8.420  1.00  0.00     0.170 HD
BRANCH   9  13
HETATM   13  C   UNL     1      44.535 -11.585  10.467  1.00  0.00     0.072 A 
HETATM   14  C   UNL     1      43.691 -10.520  10.850  1.00  0.00     0.169 A 
HETATM   15  N   UNL     1      42.979 -10.797  11.946  1.00  0.00    -0.185 NA
HETATM   16  N   UNL     1      43.329 -12.060  12.239  1.00  0.00    -0.287 N 
HETATM   17  H   UNL     1      42.901 -12.505  13.044  1.00  0.00     0.188 HD
HETATM   18  C   UNL     1      44.245 -12.581  11.371  1.00  0.00     0.140 A 
ENDBRANCH   9  13
ENDBRANCH   4   7
BRANCH   1  19
HETATM   19  C   UNL     1      42.897 -16.997   4.041  1.00  0.00     0.251 C 
HETATM   20  N   UNL     1      43.916 -17.518   3.278  1.00  0.00    -0.353 N 
HETATM   21  H   UNL     1      44.865 -17.190   3.383  1.00  0.00     0.163 HD
HETATM   22  O   UNL     1      41.723 -17.328   3.913  1.00  0.00    -0.268 OA
BRANCH  20  23
HETATM   23  C   UNL     1      43.635 -18.461   2.218  1.00  0.00     0.161 C 
BRANCH  23  24
HETATM   24  C   UNL     1      44.004 -19.873   2.597  1.00  0.00    -0.041 A 
HETATM   25  C   UNL     1      44.528 -20.150   3.869  1.00  0.00     0.009 A 
HETATM   26  C   UNL     1      44.835 -21.460   4.241  1.00  0.00     0.001 A 
HETATM   27  C   UNL     1      44.623 -22.508   3.349  1.00  0.00     0.000 A 
HETATM   28  C   UNL     1      44.092 -22.251   2.087  1.00  0.00     0.001 A 
HETATM   29  C   UNL     1      43.775 -20.942   1.717  1.00  0.00     0.009 A 
ENDBRANCH  23  24
ENDBRANCH  20  23
ENDBRANCH   1  19
TORSDOF 5
ENDMDL
MODEL 2
REMARK VINA RESULT:      -8.5      5.726      9.205
REMARK  5 active torsions:
REMARK  status: ('A' for Active; 'I' for Inactive)
REMARK    1  A    between atoms: C_4  and  C_5 
REMARK    2  A    between atoms: C_5  and  N_6 
REMARK       I    between atoms: N_6  and  C_7 
REMARK    3  A    between atoms: C_7  and  C_8 
REMARK    4  A    between atoms: C_11  and  N_12 
REMARK       I    between atoms: N_12  and  C_13 
REMARK       I    between atoms: C_13  and  N_14 
REMARK    5  A    between atoms: N_14  and  C_15 
ROOT
HETATM    1  C   UNL     1      41.667 -16.954   2.597  1.00  0.00     0.032 A 
HETATM    2  C   UNL     1      40.594 -16.068   2.733  1.00  0.00     0.019 A 
HETATM    3  C   UNL     1      40.062 -15.429   1.605  1.00  0.00     0.030 A 
HETATM    4  C   UNL     1      40.597 -15.661   0.336  1.00  0.00     0.036 A 
HETATM    5  C   UNL     1      41.640 -16.586   0.200  1.00  0.00     0.030 A 
HETATM    6  C   UNL     1      42.169 -17.230   1.321  1.00  0.00     0.019 A 
ENDROOT
BRANCH   4   7
HETATM    7  N   UNL     1      40.154 -15.017  -0.838  1.00  0.00    -0.309 N 
HETATM    8  C   UNL     1      40.238 -13.686  -1.145  1.00  0.00     0.325 C 
HETATM    9  N   UNL     1      39.709 -13.302  -2.349  1.00  0.00    -0.306 N 
HETATM   10  O   UNL     1      40.802 -12.828  -0.469  1.00  0.00    -0.247 OA
HETATM   11  H   UNL     1      39.984 -12.363  -2.611  1.00  0.00     0.171 HD
HETATM   12  H   UNL     1      39.974 -15.623  -1.623  1.00  0.00     0.170 HD
BRANCH   9  13
HETATM   13  C   UNL     1      38.820 -13.945  -3.187  1.00  0.00     0.072 A 
HETATM   14  C   UNL     1      38.837 -15.204  -3.827  1.00  0.00     0.169 A 
HETATM   15  N   UNL     1      37.750 -15.415  -4.573  1.00  0.00    -0.185 NA
HETATM   16  N   UNL     1      37.011 -14.312  -4.373  1.00  0.00    -0.287 N 
HETATM   17  H   UNL     1      36.111 -14.244  -4.838  1.00  0.00     0.188 HD
HETATM   18  C   UNL     1      37.602 -13.410  -3.537  1.00  0.00     0.140 A 
ENDBRANCH   9  13
ENDBRANCH   4   7
BRANCH   1  19
HETATM   19  C   UNL     1      42.319 -17.613   3.762  1.00  0.00     0.251 C 
HETATM   20  N   UNL     1      43.668 -17.864   3.649  1.00  0.00    -0.353 N 
HETATM   21  H   UNL     1      44.178 -17.602   2.819  1.00  0.00     0.163 HD
HETATM   22  O   UNL     1      41.648 -17.957   4.728  1.00  0.00    -0.268 OA
BRANCH  20  23
HETATM   23  C   UNL     1      44.363 -18.619   4.668  1.00  0.00     0.161 C 
BRANCH  23  24
HETATM   24  C   UNL     1      44.449 -20.087   4.332  1.00  0.00    -0.041 A 
HETATM   25  C   UNL     1      44.339 -20.515   3.000  1.00  0.00     0.009 A 
HETATM   26  C   UNL     1      44.457 -21.868   2.677  1.00  0.00     0.001 A 
HETATM   27  C   UNL     1      44.686 -22.809   3.678  1.00  0.00     0.000 A 
HETATM   28  C   UNL     1      44.809 -22.398   5.003  1.00  0.00     0.001 A 
HETATM   29  C   UNL     1      44.702 -21.044   5.327  1.00  0.00     0.009 A 
ENDBRANCH  23  24
ENDBRANCH  20  23
ENDBRANCH   1  19
TORSDOF 5
ENDMDL
MODEL 3
REMARK VINA RESULT:      -8.0      2.312      2.711
REMARK  5 active torsions:
REMARK  status: ('A' for Active; 'I' for Inactive)
REMARK    1  A    between atoms: C_4  and  C_5 
REMARK    2  A    between atoms: C_5  and  N_6 
REMARK       I    between atoms: N_6  and  C_7 
REMARK    3  A    between atoms: C_7  and  C_8 
REMARK    4  A    between atoms: C_11  and  N_12 
REMARK       I    between atoms: N_12  and  C_13 
REMARK       I    between atoms: C_13  and  N_14 
REMARK    5  A    between atoms: N_14  and  C_15 
ROOT
HETATM    1  C   UNL     1      41.475 -15.468   3.698  1.00  0.00     0.032 A 
HETATM    2  C   UNL     1      40.263 -14.837   3.994  1.00  0.00     0.019 A 
HETATM    3  C   UNL     1      40.218 -13.811   4.948  1.00  0.00     0.030 A 
HETATM    4  C   UNL     1      41.377 -13.412   5.620  1.00  0.00     0.036 A 
HETATM    5  C   UNL     1      42.595 -14.015   5.285  1.00  0.00     0.030 A 
HETATM    6  C   UNL     1      42.645 -15.033   4.330  1.00  0.00     0.019 A 
ENDROOT
BRANCH   4   7
HETATM    7  N   UNL     1      41.404 -12.429   6.630  1.00  0.00    -0.309 N 
HETATM    8  C   UNL     1      41.490 -11.072   6.474  1.00  0.00     0.325 C 
HETATM    9  N   UNL     1      41.523 -10.325   7.623  1.00  0.00    -0.306 N 
HETATM   10  O   UNL     1      41.471 -10.470   5.402  1.00  0.00    -0.247 OA
HETATM   11  H   UNL     1      41.375  -9.338   7.447  1.00  0.00     0.171 HD
HETATM   12  H   UNL     1      41.095 -12.732   7.540  1.00  0.00     0.170 HD
BRANCH   9  13
HETATM   13  C   UNL     1      41.804 -10.689   8.924  1.00  0.00     0.072 A 
HETATM   14  C   UNL     1      43.011 -10.883   9.631  1.00  0.00     0.169 A 
HETATM   15  N   UNL     1      42.809 -11.255  10.898  1.00  0.00    -0.185 NA
HETATM   16  N   UNL     1      41.473 -11.251  11.020  1.00  0.00    -0.287 N 
HETATM   17  H   UNL     1      41.069 -11.494  11.919  1.00  0.00     0.188 HD
HETATM   18  C   UNL     1      40.827 -10.902   9.869  1.00  0.00     0.140 A 
ENDBRANCH   9  13
ENDBRANCH   4   7
BRANCH   1  19
HETATM   19  C   UNL     1      41.578 -16.606   2.744  1.00  0.00     0.251 C 
HETATM   20  N   UNL     1      42.760 -17.309   2.753  1.00  0.00    -0.353 N 
HETATM   21  H   UNL     1      43.509 -17.061   3.383  1.00  0.00     0.163 HD
HETATM   22  O   UNL     1      40.661 -16.839   1.964  1.00  0.00    -0.268 OA
BRANCH  20  23
HETATM   23  C   UNL     1      43.009 -18.344   1.773  1.00  0.00     0.161 C 
BRANCH  23  24
HETATM   24  C   UNL     1      43.630 -19.574   2.386  1.00  0.00    -0.041 A 
HETATM   25  C   UNL     1      44.234 -19.505   3.650  1.00  0.00     0.009 A 
HETATM   26  C   UNL     1      44.776 -20.648   4.242  1.00  0.00     0.001 A 
HETATM   27  C   UNL     1      44.720 -21.872   3.579  1.00  0.00     0.000 A 
HETATM   28  C   UNL     1      44.113 -21.958   2.328  1.00  0.00     0.001 A 
HETATM   29  C   UNL     1      43.561 -20.818   1.740  1.00  0.00     0.009 A 
ENDBRANCH  23  24
ENDBRANCH  20  23
ENDBRANCH   1  19
TORSDOF 5
ENDMDL
MODEL 4
REMARK VINA RESULT:      -7.9      5.066      8.983
REMARK  5 active torsions:
REMARK  status: ('A' for Active; 'I' for Inactive)
REMARK    1  A    between atoms: C_4  and  C_5 
REMARK    2  A    between atoms: C_5  and  N_6 
REMARK       I    between atoms: N_6  and  C_7 
REMARK    3  A    between atoms: C_7  and  C_8 
REMARK    4  A    between atoms: C_11  and  N_12 
REMARK       I    between atoms: N_12  and  C_13 
REMARK       I    between atoms: C_13  and  N_14 
REMARK    5  A    between atoms: N_14  and  C_15 
ROOT
HETATM    1  C   UNL     1      41.245 -15.878   4.038  1.00  0.00     0.032 A 
HETATM    2  C   UNL     1      40.992 -14.525   3.795  1.00  0.00     0.019 A 
HETATM    3  C   UNL     1      40.402 -14.125   2.588  1.00  0.00     0.030 A 
HETATM    4  C   UNL     1      40.067 -15.067   1.612  1.00  0.00     0.036 A 
HETATM    5  C   UNL     1      40.278 -16.424   1.881  1.00  0.00     0.030 A 
HETATM    6  C   UNL     1      40.860 -16.828   3.085  1.00  0.00     0.019 A 
ENDROOT
BRANCH   4   7
HETATM    7  N   UNL     1      39.521 -14.740   0.354  1.00  0.00    -0.309 N 
HETATM    8  C   UNL     1      38.295 -14.193   0.090  1.00  0.00     0.325 C 
HETATM    9  N   UNL     1      37.988 -13.990  -1.231  1.00  0.00    -0.306 N 
HETATM   10  O   UNL     1      37.484 -13.811   0.931  1.00  0.00    -0.247 OA
HETATM   11  H   UNL     1      37.173 -13.400  -1.351  1.00  0.00     0.171 HD
HETATM   12  H   UNL     1      40.184 -14.681  -0.405  1.00  0.00     0.170 HD
BRANCH   9  13
HETATM   13  C   UNL     1      38.547 -14.519  -2.376  1.00  0.00     0.072 A 
HETATM   14  C   UNL     1      39.879 -14.648  -2.827  1.00  0.00     0.169 A 
HETATM   15  N   UNL     1      39.960 -15.223  -4.029  1.00  0.00    -0.185 NA
HETATM   16  N   UNL     1      38.683 -15.509  -4.329  1.00  0.00    -0.287 N 
HETATM   17  H   UNL     1      38.487 -15.972  -5.211  1.00  0.00     0.188 HD
HETATM   18  C   UNL     1      37.802 -15.122  -3.362  1.00  0.00     0.140 A 
ENDBRANCH   9  13
ENDBRANCH   4   7
BRANCH   1  19
HETATM   19  C   UNL     1      41.928 -16.361   5.269  1.00  0.00     0.251 C 
HETATM   20  N   UNL     1      43.207 -16.844   5.113  1.00  0.00    -0.353 N 
HETATM   21  H   UNL     1      43.651 -16.858   4.206  1.00  0.00     0.163 HD
HETATM   22  O   UNL     1      41.331 -16.370   6.339  1.00  0.00    -0.268 OA
BRANCH  20  23
HETATM   23  C   UNL     1      43.902 -17.459   6.222  1.00  0.00     0.161 C 
BRANCH  23  24
HETATM   24  C   UNL     1      44.142 -18.931   6.000  1.00  0.00    -0.041 A 
HETATM   25  C   UNL     1      43.707 -19.868   6.950  1.00  0.00     0.009 A 
HETATM   26  C   UNL     1      43.890 -21.236   6.734  1.00  0.00     0.001 A 
HETATM   27  C   UNL     1      44.508 -21.683   5.568  1.00  0.00     0.000 A 
HETATM   28  C   UNL     1      44.933 -20.765   4.611  1.00  0.00     0.001 A 
HETATM   29  C   UNL     1      44.742 -19.398   4.821  1.00  0.00     0.009 A 
ENDBRANCH  23  24
ENDBRANCH  20  23
ENDBRANCH   1  19
TORSDOF 5
ENDMDL
MODEL 5
REMARK VINA RESULT:      -7.6      3.818     10.067
REMARK  5 active torsions:
REMARK  status: ('A' for Active; 'I' for Inactive)
REMARK    1  A    between atoms: C_4  and  C_5 
REMARK    2  A    between atoms: C_5  and  N_6 
REMARK       I    between atoms: N_6  and  C_7 
REMARK    3  A    between atoms: C_7  and  C_8 
REMARK    4  A    between atoms: C_11  and  N_12 
REMARK       I    between atoms: N_12  and  C_13 
REMARK       I    between atoms: C_13  and  N_14 
REMARK    5  A    between atoms: N_14  and  C_15 
ROOT
HETATM    1  C   UNL     1      43.499 -14.722   5.006  1.00  0.00     0.032 A 
HETATM    2  C   UNL     1      43.167 -15.930   4.383  1.00  0.00     0.019 A 
HETATM    3  C   UNL     1      42.567 -15.926   3.116  1.00  0.00     0.030 A 
HETATM    4  C   UNL     1      42.287 -14.722   2.464  1.00  0.00     0.036 A 
HETATM    5  C   UNL     1      42.666 -13.519   3.071  1.00  0.00     0.030 A 
HETATM    6  C   UNL     1      43.270 -13.518   4.331  1.00  0.00     0.019 A 
ENDROOT
BRANCH   4   7
HETATM    7  N   UNL     1      41.638 -14.633   1.215  1.00  0.00    -0.309 N 
HETATM    8  C   UNL     1      40.306 -14.805   0.950  1.00  0.00     0.325 C 
HETATM    9  N   UNL     1      39.924 -14.689  -0.360  1.00  0.00    -0.306 N 
HETATM   10  O   UNL     1      39.425 -14.986   1.789  1.00  0.00    -0.247 OA
HETATM   11  H   UNL     1      38.919 -14.616  -0.465  1.00  0.00     0.171 HD
HETATM   12  H   UNL     1      42.159 -14.169   0.487  1.00  0.00     0.170 HD
BRANCH   9  13
HETATM   13  C   UNL     1      40.667 -14.741  -1.522  1.00  0.00     0.072 A 
HETATM   14  C   UNL     1      40.775 -15.699  -2.554  1.00  0.00     0.169 A 
HETATM   15  N   UNL     1      41.645 -15.337  -3.501  1.00  0.00    -0.185 NA
HETATM   16  N   UNL     1      42.059 -14.124  -3.102  1.00  0.00    -0.287 N 
HETATM   17  H   UNL     1      42.731 -13.629  -3.681  1.00  0.00     0.188 HD
HETATM   18  C   UNL     1      41.488 -13.716  -1.932  1.00  0.00     0.140 A 
ENDBRANCH   9  13
ENDBRANCH   4   7
BRANCH   1  19
HETATM   19  C   UNL     1      44.077 -14.656   6.376  1.00  0.00     0.251 C 
HETATM   20  N   UNL     1      44.464 -13.412   6.819  1.00  0.00    -0.353 N 
HETATM   21  H   UNL     1      44.350 -12.594   6.239  1.00  0.00     0.163 HD
HETATM   22  O   UNL     1      44.242 -15.684   7.024  1.00  0.00    -0.268 OA
BRANCH  20  23
HETATM   23  C   UNL     1      45.158 -13.263   8.079  1.00  0.00     0.161 C 
BRANCH  23  24
HETATM   24  C   UNL     1      44.525 -12.216   8.960  1.00  0.00    -0.041 A 
HETATM   25  C   UNL     1      45.125 -11.858  10.177  1.00  0.00     0.009 A 
HETATM   26  C   UNL     1      44.566 -10.862  10.979  1.00  0.00     0.001 A 
HETATM   27  C   UNL     1      43.402 -10.210  10.576  1.00  0.00     0.000 A 
HETATM   28  C   UNL     1      42.802 -10.546   9.365  1.00  0.00     0.001 A 
HETATM   29  C   UNL     1      43.365 -11.535   8.556  1.00  0.00     0.009 A 
ENDBRANCH  23  24
ENDBRANCH  20  23
ENDBRANCH   1  19
TORSDOF 5
ENDMDL
MODEL 6
REMARK VINA RESULT:      -7.4      1.756      9.907
REMARK  5 active torsions:
REMARK  status: ('A' for Active; 'I' for Inactive)
REMARK    1  A    between atoms: C_4  and  C_5 
REMARK    2  A    between atoms: C_5  and  N_6 
REMARK       I    between atoms: N_6  and  C_7 
REMARK    3  A    between atoms: C_7  and  C_8 
REMARK    4  A    between atoms: C_11  and  N_12 
REMARK       I    between atoms: N_12  and  C_13 
REMARK       I    between atoms: C_13  and  N_14 
REMARK    5  A    between atoms: N_14  and  C_15 
ROOT
HETATM    1  C   UNL     1      44.150 -13.977   7.150  1.00  0.00     0.032 A 
HETATM    2  C   UNL     1      43.720 -13.616   5.869  1.00  0.00     0.019 A 
HETATM    3  C   UNL     1      43.454 -14.604   4.911  1.00  0.00     0.030 A 
HETATM    4  C   UNL     1      43.622 -15.957   5.218  1.00  0.00     0.036 A 
HETATM    5  C   UNL     1      44.006 -16.314   6.515  1.00  0.00     0.030 A 
HETATM    6  C   UNL     1      44.265 -15.333   7.476  1.00  0.00     0.019 A 
ENDROOT
BRANCH   4   7
HETATM    7  N   UNL     1      43.429 -17.005   4.294  1.00  0.00    -0.309 N 
HETATM    8  C   UNL     1      42.294 -17.300   3.589  1.00  0.00     0.325 C 
HETATM    9  N   UNL     1      42.353 -18.393   2.765  1.00  0.00    -0.306 N 
HETATM   10  O   UNL     1      41.261 -16.633   3.580  1.00  0.00    -0.247 OA
HETATM   11  H   UNL     1      41.571 -18.436   2.122  1.00  0.00     0.171 HD
HETATM   12  H   UNL     1      44.270 -17.434   3.942  1.00  0.00     0.170 HD
BRANCH   9  13
HETATM   13  C   UNL     1      43.237 -19.453   2.739  1.00  0.00     0.072 A 
HETATM   14  C   UNL     1      44.312 -19.831   3.573  1.00  0.00     0.169 A 
HETATM   15  N   UNL     1      44.916 -20.948   3.156  1.00  0.00    -0.185 NA
HETATM   16  N   UNL     1      44.196 -21.315   2.084  1.00  0.00    -0.287 N 
HETATM   17  H   UNL     1      44.462 -22.162   1.591  1.00  0.00     0.188 HD
HETATM   18  C   UNL     1      43.170 -20.460   1.805  1.00  0.00     0.140 A 
ENDBRANCH   9  13
ENDBRANCH   4   7
BRANCH   1  19
HETATM   19  C   UNL     1      44.510 -12.976   8.190  1.00  0.00     0.251 C 
HETATM   20  N   UNL     1      43.529 -12.080   8.546  1.00  0.00    -0.353 N 
HETATM   21  H   UNL     1      42.613 -12.116   8.123  1.00  0.00     0.163 HD
HETATM   22  O   UNL     1      45.650 -12.940   8.640  1.00  0.00    -0.268 OA
BRANCH  20  23
HETATM   23  C   UNL     1      43.821 -10.987   9.447  1.00  0.00     0.161 C 
BRANCH  23  24
HETATM   24  C   UNL     1      42.954 -11.017  10.681  1.00  0.00    -0.041 A 
HETATM   25  C   UNL     1      43.539 -10.985  11.956  1.00  0.00     0.009 A 
HETATM   26  C   UNL     1      42.743 -10.972  13.103  1.00  0.00     0.001 A 
HETATM   27  C   UNL     1      41.354 -10.990  12.991  1.00  0.00     0.000 A 
HETATM   28  C   UNL     1      40.759 -11.010  11.732  1.00  0.00     0.001 A 
HETATM   29  C   UNL     1      41.554 -11.012  10.583  1.00  0.00     0.009 A 
ENDBRANCH  23  24
ENDBRANCH  20  23
ENDBRANCH   1  19
TORSDOF 5
ENDMDL
MODEL 7
REMARK VINA RESULT:      -7.4      2.241     10.207
REMARK  5 active torsions:
REMARK  status: ('A' for Active; 'I' for Inactive)
REMARK    1  A    between atoms: C_4  and  C_5 
REMARK    2  A    between atoms: C_5  and  N_6 
REMARK       I    between atoms: N_6  and  C_7 
REMARK    3  A    between atoms: C_7  and  C_8 
REMARK    4  A    between atoms: C_11  and  N_12 
REMARK       I    between atoms: N_12  and  C_13 
REMARK       I    between atoms: C_13  and  N_14 
REMARK    5  A    between atoms: N_14  and  C_15 
ROOT
HETATM    1  C   UNL     1      44.102 -12.946   7.721  1.00  0.00     0.032 A 
HETATM    2  C   UNL     1      43.031 -12.456   6.968  1.00  0.00     0.019 A 
HETATM    3  C   UNL     1      42.526 -13.203   5.895  1.00  0.00     0.030 A 
HETATM    4  C   UNL     1      43.087 -14.438   5.559  1.00  0.00     0.036 A 
HETATM    5  C   UNL     1      44.127 -14.944   6.347  1.00  0.00     0.030 A 
HETATM    6  C   UNL     1      44.630 -14.207   7.422  1.00  0.00     0.019 A 
ENDROOT
BRANCH   4   7
HETATM    7  N   UNL     1      42.672 -15.222   4.463  1.00  0.00    -0.309 N 
HETATM    8  C   UNL     1      41.412 -15.683   4.194  1.00  0.00     0.325 C 
HETATM    9  N   UNL     1      41.269 -16.451   3.068  1.00  0.00    -0.306 N 
HETATM   10  O   UNL     1      40.397 -15.412   4.833  1.00  0.00    -0.247 OA
HETATM   11  H   UNL     1      40.299 -16.583   2.811  1.00  0.00     0.171 HD
HETATM   12  H   UNL     1      43.309 -15.248   3.682  1.00  0.00     0.170 HD
BRANCH   9  13
HETATM   13  C   UNL     1      42.210 -17.120   2.311  1.00  0.00     0.072 A 
HETATM   14  C   UNL     1      42.873 -18.356   2.470  1.00  0.00     0.169 A 
HETATM   15  N   UNL     1      43.733 -18.608   1.479  1.00  0.00    -0.185 NA
HETATM   16  N   UNL     1      43.587 -17.556   0.659  1.00  0.00    -0.287 N 
HETATM   17  H   UNL     1      44.142 -17.526  -0.191  1.00  0.00     0.188 HD
HETATM   18  C   UNL     1      42.673 -16.646   1.105  1.00  0.00     0.140 A 
ENDBRANCH   9  13
ENDBRANCH   4   7
BRANCH   1  19
HETATM   19  C   UNL     1      44.727 -12.174   8.830  1.00  0.00     0.251 C 
HETATM   20  N   UNL     1      43.867 -11.608   9.744  1.00  0.00    -0.353 N 
HETATM   21  H   UNL     1      42.868 -11.725   9.660  1.00  0.00     0.163 HD
HETATM   22  O   UNL     1      45.942 -12.018   8.862  1.00  0.00    -0.268 OA
BRANCH  20  23
HETATM   23  C   UNL     1      44.366 -10.729  10.778  1.00  0.00     0.161 C 
BRANCH  23  24
HETATM   24  C   UNL     1      43.383 -10.562  11.910  1.00  0.00    -0.041 A 
HETATM   25  C   UNL     1      42.199 -11.313  11.933  1.00  0.00     0.009 A 
HETATM   26  C   UNL     1      41.302 -11.194  12.997  1.00  0.00     0.001 A 
HETATM   27  C   UNL     1      41.578 -10.323  14.049  1.00  0.00     0.000 A 
HETATM   28  C   UNL     1      42.756  -9.579  14.045  1.00  0.00     0.001 A 
HETATM   29  C   UNL     1      43.659  -9.706  12.987  1.00  0.00     0.009 A 
ENDBRANCH  23  24
ENDBRANCH  20  23
ENDBRANCH   1  19
TORSDOF 5
ENDMDL
MODEL 8
REMARK VINA RESULT:      -7.4      6.039      9.393
REMARK  5 active torsions:
REMARK  status: ('A' for Active; 'I' for Inactive)
REMARK    1  A    between atoms: C_4  and  C_5 
REMARK    2  A    between atoms: C_5  and  N_6 
REMARK       I    between atoms: N_6  and  C_7 
REMARK    3  A    between atoms: C_7  and  C_8 
REMARK    4  A    between atoms: C_11  and  N_12 
REMARK       I    between atoms: N_12  and  C_13 
REMARK       I    between atoms: C_13  and  N_14 
REMARK    5  A    between atoms: N_14  and  C_15 
ROOT
HETATM    1  C   UNL     1      41.896 -16.033   1.443  1.00  0.00     0.032 A 
HETATM    2  C   UNL     1      41.651 -16.637   0.205  1.00  0.00     0.019 A 
HETATM    3  C   UNL     1      41.331 -15.850  -0.909  1.00  0.00     0.030 A 
HETATM    4  C   UNL     1      41.245 -14.460  -0.800  1.00  0.00     0.036 A 
HETATM    5  C   UNL     1      41.538 -13.859   0.430  1.00  0.00     0.030 A 
HETATM    6  C   UNL     1      41.864 -14.638   1.543  1.00  0.00     0.019 A 
ENDROOT
BRANCH   4   7
HETATM    7  N   UNL     1      40.876 -13.606  -1.859  1.00  0.00    -0.309 N 
HETATM    8  C   UNL     1      39.926 -13.826  -2.820  1.00  0.00     0.325 C 
HETATM    9  N   UNL     1      39.770 -12.844  -3.762  1.00  0.00    -0.306 N 
HETATM   10  O   UNL     1      39.164 -14.790  -2.867  1.00  0.00    -0.247 OA
HETATM   11  H   UNL     1      38.926 -12.963  -4.309  1.00  0.00     0.171 HD
HETATM   12  H   UNL     1      41.168 -12.646  -1.765  1.00  0.00     0.170 HD
BRANCH   9  13
HETATM   13  C   UNL     1      40.603 -11.804  -4.123  1.00  0.00     0.072 A 
HETATM   14  C   UNL     1      42.001 -11.705  -4.297  1.00  0.00     0.169 A 
HETATM   15  N   UNL     1      42.388 -10.475  -4.646  1.00  0.00    -0.185 NA
HETATM   16  N   UNL     1      41.234  -9.796  -4.745  1.00  0.00    -0.287 N 
HETATM   17  H   UNL     1      41.271  -8.818  -5.016  1.00  0.00     0.188 HD
HETATM   18  C   UNL     1      40.136 -10.554  -4.458  1.00  0.00     0.140 A 
ENDBRANCH   9  13
ENDBRANCH   4   7
BRANCH   1  19
HETATM   19  C   UNL     1      42.176 -16.815   2.678  1.00  0.00     0.251 C 
HETATM   20  N   UNL     1      43.467 -17.263   2.842  1.00  0.00    -0.353 N 
HETATM   21  H   UNL     1      44.180 -17.058   2.156  1.00  0.00     0.163 HD
HETATM   22  O   UNL     1      41.268 -17.080   3.457  1.00  0.00    -0.268 OA
BRANCH  20  23
HETATM   23  C   UNL     1      43.808 -18.142   3.938  1.00  0.00     0.161 C 
BRANCH  23  24
HETATM   24  C   UNL     1      44.039 -19.561   3.481  1.00  0.00    -0.041 A 
HETATM   25  C   UNL     1      44.601 -20.503   4.357  1.00  0.00     0.009 A 
HETATM   26  C   UNL     1      44.781 -21.827   3.955  1.00  0.00     0.001 A 
HETATM   27  C   UNL     1      44.403 -22.228   2.675  1.00  0.00     0.000 A 
HETATM   28  C   UNL     1      43.832 -21.307   1.799  1.00  0.00     0.001 A 
HETATM   29  C   UNL     1      43.642 -19.984   2.203  1.00  0.00     0.009 A 
ENDBRANCH  23  24
ENDBRANCH  20  23
ENDBRANCH   1  19
TORSDOF 5
ENDMDL
MODEL 9
REMARK VINA RESULT:      -7.3      3.661      4.968
REMARK  5 active torsions:
REMARK  status: ('A' for Active; 'I' for Inactive)
REMARK    1  A    between atoms: C_4  and  C_5 
REMARK    2  A    between atoms: C_5  and  N_6 
REMARK       I    between atoms: N_6  and  C_7 
REMARK    3  A    between atoms: C_7  and  C_8 
REMARK    4  A    between atoms: C_11  and  N_12 
REMARK       I    between atoms: N_12  and  C_13 
REMARK       I    between atoms: C_13  and  N_14 
REMARK    5  A    between atoms: N_14  and  C_15 
ROOT
HETATM    1  C   UNL     1      43.334 -16.099   6.335  1.00  0.00     0.032 A 
HETATM    2  C   UNL     1      44.108 -14.946   6.497  1.00  0.00     0.019 A 
HETATM    3  C   UNL     1      43.558 -13.685   6.230  1.00  0.00     0.030 A 
HETATM    4  C   UNL     1      42.237 -13.563   5.792  1.00  0.00     0.036 A 
HETATM    5  C   UNL     1      41.452 -14.717   5.678  1.00  0.00     0.030 A 
HETATM    6  C   UNL     1      41.994 -15.975   5.949  1.00  0.00     0.019 A 
ENDROOT
BRANCH   4   7
HETATM    7  N   UNL     1      41.628 -12.337   5.451  1.00  0.00    -0.309 N 
HETATM    8  C   UNL     1      41.360 -11.278   6.275  1.00  0.00     0.325 C 
HETATM    9  N   UNL     1      40.736 -10.200   5.703  1.00  0.00    -0.306 N 
HETATM   10  O   UNL     1      41.690 -11.187   7.456  1.00  0.00    -0.247 OA
HETATM   11  H   UNL     1      40.756  -9.381   6.299  1.00  0.00     0.171 HD
HETATM   12  H   UNL     1      41.602 -12.125   4.466  1.00  0.00     0.170 HD
BRANCH   9  13
HETATM   13  C   UNL     1      40.036 -10.092   4.519  1.00  0.00     0.072 A 
HETATM   14  C   UNL     1      40.413  -9.741   3.204  1.00  0.00     0.169 A 
HETATM   15  N   UNL     1      39.383  -9.753   2.354  1.00  0.00    -0.185 NA
HETATM   16  N   UNL     1      38.352 -10.159   3.112  1.00  0.00    -0.287 N 
HETATM   17  H   UNL     1      37.441 -10.259   2.675  1.00  0.00     0.188 HD
HETATM   18  C   UNL     1      38.697 -10.392   4.412  1.00  0.00     0.140 A 
ENDBRANCH   9  13
ENDBRANCH   4   7
BRANCH   1  19
HETATM   19  C   UNL     1      43.878 -17.469   6.539  1.00  0.00     0.251 C 
HETATM   20  N   UNL     1      44.323 -18.127   5.415  1.00  0.00    -0.353 N 
HETATM   21  H   UNL     1      44.284 -17.689   4.506  1.00  0.00     0.163 HD
HETATM   22  O   UNL     1      43.859 -17.978   7.653  1.00  0.00    -0.268 OA
BRANCH  20  23
HETATM   23  C   UNL     1      44.743 -19.509   5.488  1.00  0.00     0.161 C 
BRANCH  23  24
HETATM   24  C   UNL     1      44.477 -20.256   4.205  1.00  0.00    -0.041 A 
HETATM   25  C   UNL     1      44.767 -21.625   4.111  1.00  0.00     0.009 A 
HETATM   26  C   UNL     1      44.487 -22.332   2.941  1.00  0.00     0.001 A 
HETATM   27  C   UNL     1      43.913 -21.681   1.851  1.00  0.00     0.000 A 
HETATM   28  C   UNL     1      43.607 -20.325   1.933  1.00  0.00     0.001 A 
HETATM   29  C   UNL     1      43.878 -19.618   3.107  1.00  0.00     0.009 A 
ENDBRANCH  23  24
ENDBRANCH  20  23
ENDBRANCH   1  19
TORSDOF 5
ENDMDL
MODEL 10
REMARK VINA RESULT:      -7.3      5.733      8.737
REMARK  5 active torsions:
REMARK  status: ('A' for Active; 'I' for Inactive)
REMARK    1  A    between atoms: C_4  and  C_5 
REMARK    2  A    between atoms: C_5  and  N_6 
REMARK       I    between atoms: N_6  and  C_7 
REMARK    3  A    between atoms: C_7  and  C_8 
REMARK    4  A    between atoms: C_11  and  N_12 
REMARK       I    between atoms: N_12  and  C_13 
REMARK       I    between atoms: C_13  and  N_14 
REMARK    5  A    between atoms: N_14  and  C_15 
ROOT
HETATM    1  C   UNL     1      41.317 -16.205   2.564  1.00  0.00     0.032 A 
HETATM    2  C   UNL     1      40.448 -15.147   2.853  1.00  0.00     0.019 A 
HETATM    3  C   UNL     1      39.944 -14.350   1.817  1.00  0.00     0.030 A 
HETATM    4  C   UNL     1      40.305 -14.593   0.489  1.00  0.00     0.036 A 
HETATM    5  C   UNL     1      41.135 -15.683   0.203  1.00  0.00     0.030 A 
HETATM    6  C   UNL     1      41.635 -16.485   1.231  1.00  0.00     0.019 A 
ENDROOT
BRANCH   4   7
HETATM    7  N   UNL     1      39.884 -13.804  -0.601  1.00  0.00    -0.309 N 
HETATM    8  C   UNL     1      40.577 -12.804  -1.228  1.00  0.00     0.325 C 
HETATM    9  N   UNL     1      39.935 -12.167  -2.257  1.00  0.00    -0.306 N 
HETATM   10  O   UNL     1      41.740 -12.481  -0.992  1.00  0.00    -0.247 OA
HETATM   11  H   UNL     1      40.562 -11.594  -2.808  1.00  0.00     0.171 HD
HETATM   12  H   UNL     1      39.098 -14.164  -1.120  1.00  0.00     0.170 HD
BRANCH   9  13
HETATM   13  C   UNL     1      38.596 -12.120  -2.589  1.00  0.00     0.072 A 
HETATM   14  C   UNL     1      37.514 -11.342  -2.122  1.00  0.00     0.169 A 
HETATM   15  N   UNL     1      36.364 -11.646  -2.730  1.00  0.00    -0.185 NA
HETATM   16  N   UNL     1      36.717 -12.584  -3.623  1.00  0.00    -0.287 N 
HETATM   17  H   UNL     1      35.998 -12.972  -4.226  1.00  0.00     0.188 HD
HETATM   18  C   UNL     1      38.047 -12.889  -3.589  1.00  0.00     0.140 A 
ENDBRANCH   9  13
ENDBRANCH   4   7
BRANCH   1  19
HETATM   19  C   UNL     1      41.938 -17.048   3.623  1.00  0.00     0.251 C 
HETATM   20  N   UNL     1      43.272 -17.344   3.467  1.00  0.00    -0.353 N 
HETATM   21  H   UNL     1      43.794 -16.996   2.676  1.00  0.00     0.163 HD
HETATM   22  O   UNL     1      41.252 -17.488   4.539  1.00  0.00    -0.268 OA
BRANCH  20  23
HETATM   23  C   UNL     1      43.932 -18.264   4.367  1.00  0.00     0.161 C 
BRANCH  23  24
HETATM   24  C   UNL     1      44.125 -19.627   3.751  1.00  0.00    -0.041 A 
HETATM   25  C   UNL     1      44.652 -20.679   4.514  1.00  0.00     0.009 A 
HETATM   26  C   UNL     1      44.797 -21.954   3.963  1.00  0.00     0.001 A 
HETATM   27  C   UNL     1      44.417 -22.193   2.644  1.00  0.00     0.000 A 
HETATM   28  C   UNL     1      43.881 -21.161   1.878  1.00  0.00     0.001 A 
HETATM   29  C   UNL     1      43.726 -19.888   2.431  1.00  0.00     0.009 A 
ENDBRANCH  23  24
ENDBRANCH  20  23
ENDBRANCH   1  19
TORSDOF 5
ENDMDL
