MODEL 1
REMARK VINA RESULT:      -9.3      0.000      0.000
REMARK  8 active torsions:
REMARK  status: ('A' for Active; 'I' for Inactive)
REMARK    1  A    between atoms: O_2  and  C_3 
REMARK    2  A    between atoms: C_6  and  N_7 
REMARK       I    between atoms: N_7  and  C_8 
REMARK    3  A    between atoms: C_8  and  C_9 
REMARK    4  A    between atoms: C_9  and  N_10 
REMARK    5  A    between atoms: N_13  and  C_14 
REMARK    6  A    between atoms: C_14  and  C_15 
REMARK    7  A    between atoms: C_30  and  C_31 
REMARK       I    between atoms: C_31  and  N_32 
REMARK    8  A    between atoms: N_32  and  C_33 
ROOT
HETATM    1  N   UNL     1      41.162 -12.729   4.646  1.00  0.00    -0.290 N 
HETATM    2  C   UNL     1      40.175 -13.318   3.868  1.00  0.00     0.332 C 
HETATM    3  O   UNL     1      39.210 -12.654   3.476  1.00  0.00    -0.246 OA
HETATM    4  N   UNL     1      40.320 -14.665   3.582  1.00  0.00    -0.261 N 
HETATM    5  C   UNL     1      41.244 -15.504   4.192  1.00  0.00     0.264 C 
HETATM    6  O   UNL     1      41.314 -16.713   3.989  1.00  0.00    -0.267 OA
HETATM    7  C   UNL     1      42.171 -14.882   5.152  1.00  0.00     0.059 A 
HETATM    8  C   UNL     1      42.135 -13.500   5.337  1.00  0.00     0.056 A 
HETATM    9  C   UNL     1      43.082 -15.682   5.856  1.00  0.00     0.020 A 
HETATM   10  C   UNL     1      43.952 -15.102   6.779  1.00  0.00     0.018 A 
HETATM   11  C   UNL     1      43.926 -13.722   6.990  1.00  0.00     0.034 A 
HETATM   12  C   UNL     1      43.046 -12.927   6.239  1.00  0.00     0.048 A 
ENDROOT
BRANCH   1  13
HETATM   13  C   UNL     1      41.086 -11.277   4.830  1.00  0.00     0.237 C 
BRANCH  13  14
HETATM   14  C   UNL     1      40.299 -10.918   6.091  1.00  0.00     0.240 C 
HETATM   15  N   UNL     1      41.101 -10.417   7.103  1.00  0.00    -0.326 N 
HETATM   16  H   UNL     1      42.088 -10.295   6.877  1.00  0.00     0.169 HD
HETATM   17  O   UNL     1      39.077 -11.053   6.117  1.00  0.00    -0.271 OA
BRANCH  15  18
HETATM   18  C   UNL     1      40.706 -10.050   8.405  1.00  0.00     0.034 A 
HETATM   19  C   UNL     1      40.832  -8.701   8.759  1.00  0.00     0.032 A 
HETATM   20  C   UNL     1      40.497  -8.259  10.047  1.00  0.00     0.039 A 
HETATM   21  C   UNL     1      40.032  -9.166  10.998  1.00  0.00     0.068 A 
HETATM   22  C   UNL     1      39.886 -10.505  10.641  1.00  0.00     0.039 A 
HETATM   23  C   UNL     1      40.223 -10.948   9.356  1.00  0.00     0.032 A 
BRANCH  21  24
HETATM   24  O   UNL     1      39.683  -8.874  12.286  1.00  0.00    -0.356 OA
HETATM   25  C   UNL     1      38.311  -8.593  12.530  1.00  0.00     0.210 C 
ENDBRANCH  21  24
ENDBRANCH  15  18
ENDBRANCH  13  14
ENDBRANCH   1  13
BRANCH   4  26
HETATM   26  C   UNL     1      39.429 -15.254   2.591  1.00  0.00     0.175 C 
BRANCH  26  27
HETATM   27  C   UNL     1      39.990 -15.100   1.190  1.00  0.00    -0.037 A 
HETATM   28  C   UNL     1      39.496 -14.100   0.335  1.00  0.00     0.048 A 
HETATM   29  C   UNL     1      40.008 -14.024  -0.944  1.00  0.00     0.105 A 
HETATM   30  C   UNL     1      40.970 -14.898  -1.393  1.00  0.00     0.105 A 
HETATM   31  O   UNL     1      39.645 -13.121  -1.893  1.00  0.00    -0.323 OA
HETATM   32  O   UNL     1      41.332 -14.655  -2.681  1.00  0.00    -0.323 OA
HETATM   33  C   UNL     1      41.475 -15.895  -0.589  1.00  0.00     0.040 A 
HETATM   34  C   UNL     1      40.491 -13.524  -2.990  1.00  0.00     0.352 A 
HETATM   35  C   UNL     1      40.978 -15.995   0.715  1.00  0.00     0.012 A 
ENDBRANCH  26  27
ENDBRANCH   4  26
BRANCH  11  36
HETATM   36  C   UNL     1      44.840 -13.133   8.011  1.00  0.00     0.252 C 
HETATM   37  N   UNL     1      44.266 -12.750   9.206  1.00  0.00    -0.352 N 
HETATM   38  H   UNL     1      43.320 -13.043   9.419  1.00  0.00     0.163 HD
HETATM   39  O   UNL     1      46.038 -13.037   7.767  1.00  0.00    -0.268 OA
BRANCH  37  40
HETATM   40  C   UNL     1      45.059 -12.256  10.328  1.00  0.00     0.084 C 
HETATM   41  C   UNL     1      45.262 -10.740  10.218  1.00  0.00     0.025 C 
HETATM   42  C   UNL     1      43.989  -9.945  10.505  1.00  0.00     0.002 C 
HETATM   43  C   UNL     1      43.372 -10.334  11.844  1.00  0.00     0.000 C 
HETATM   44  C   UNL     1      43.126 -11.836  11.940  1.00  0.00     0.002 C 
HETATM   45  C   UNL     1      44.400 -12.637  11.661  1.00  0.00     0.025 C 
ENDBRANCH  37  40
ENDBRANCH  11  36
TORSDOF 8
ENDMDL
MODEL 2
REMARK VINA RESULT:      -9.0      2.711      6.689
REMARK  8 active torsions:
REMARK  status: ('A' for Active; 'I' for Inactive)
REMARK    1  A    between atoms: O_2  and  C_3 
REMARK    2  A    between atoms: C_6  and  N_7 
REMARK       I    between atoms: N_7  and  C_8 
REMARK    3  A    between atoms: C_8  and  C_9 
REMARK    4  A    between atoms: C_9  and  N_10 
REMARK    5  A    between atoms: N_13  and  C_14 
REMARK    6  A    between atoms: C_14  and  C_15 
REMARK    7  A    between atoms: C_30  and  C_31 
REMARK       I    between atoms: C_31  and  N_32 
REMARK    8  A    between atoms: N_32  and  C_33 
ROOT
HETATM    1  N   UNL     1      42.706 -13.075   5.270  1.00  0.00    -0.290 N 
HETATM    2  C   UNL     1      43.086 -13.426   3.982  1.00  0.00     0.332 C 
HETATM    3  O   UNL     1      44.274 -13.637   3.718  1.00  0.00    -0.246 OA
HETATM    4  N   UNL     1      42.084 -13.500   3.030  1.00  0.00    -0.261 N 
HETATM    5  C   UNL     1      40.787 -13.041   3.215  1.00  0.00     0.264 C 
HETATM    6  O   UNL     1      39.926 -13.040   2.339  1.00  0.00    -0.267 OA
HETATM    7  C   UNL     1      40.456 -12.507   4.547  1.00  0.00     0.059 A 
HETATM    8  C   UNL     1      41.412 -12.564   5.560  1.00  0.00     0.056 A 
HETATM    9  C   UNL     1      39.186 -11.961   4.781  1.00  0.00     0.020 A 
HETATM   10  C   UNL     1      38.871 -11.439   6.035  1.00  0.00     0.018 A 
HETATM   11  C   UNL     1      39.817 -11.474   7.062  1.00  0.00     0.034 A 
HETATM   12  C   UNL     1      41.066 -12.072   6.829  1.00  0.00     0.048 A 
ENDROOT
BRANCH   1  13
HETATM   13  C   UNL     1      43.740 -13.134   6.308  1.00  0.00     0.237 C 
BRANCH  13  14
HETATM   14  C   UNL     1      43.981 -14.572   6.769  1.00  0.00     0.240 C 
HETATM   15  N   UNL     1      43.786 -15.501   5.760  1.00  0.00    -0.326 N 
HETATM   16  H   UNL     1      43.565 -15.126   4.838  1.00  0.00     0.169 HD
HETATM   17  O   UNL     1      44.346 -14.800   7.921  1.00  0.00    -0.271 OA
BRANCH  15  18
HETATM   18  C   UNL     1      43.865 -16.904   5.863  1.00  0.00     0.034 A 
HETATM   19  C   UNL     1      42.692 -17.633   5.631  1.00  0.00     0.032 A 
HETATM   20  C   UNL     1      42.676 -19.031   5.751  1.00  0.00     0.039 A 
HETATM   21  C   UNL     1      43.837 -19.715   6.104  1.00  0.00     0.068 A 
HETATM   22  C   UNL     1      45.011 -18.993   6.313  1.00  0.00     0.039 A 
HETATM   23  C   UNL     1      45.027 -17.598   6.198  1.00  0.00     0.032 A 
BRANCH  21  24
HETATM   24  O   UNL     1      43.957 -21.067   6.266  1.00  0.00    -0.356 OA
HETATM   25  C   UNL     1      44.784 -21.752   5.334  1.00  0.00     0.210 C 
ENDBRANCH  21  24
ENDBRANCH  15  18
ENDBRANCH  13  14
ENDBRANCH   1  13
BRANCH   4  26
HETATM   26  C   UNL     1      42.414 -14.079   1.733  1.00  0.00     0.175 C 
BRANCH  26  27
HETATM   27  C   UNL     1      42.389 -15.595   1.788  1.00  0.00    -0.037 A 
HETATM   28  C   UNL     1      43.544 -16.310   2.150  1.00  0.00     0.048 A 
HETATM   29  C   UNL     1      43.485 -17.688   2.147  1.00  0.00     0.105 A 
HETATM   30  C   UNL     1      42.341 -18.364   1.795  1.00  0.00     0.105 A 
HETATM   31  O   UNL     1      44.504 -18.529   2.470  1.00  0.00    -0.323 OA
HETATM   32  O   UNL     1      42.497 -19.714   1.852  1.00  0.00    -0.323 OA
HETATM   33  C   UNL     1      41.191 -17.702   1.429  1.00  0.00     0.040 A 
HETATM   34  C   UNL     1      43.869 -19.811   2.285  1.00  0.00     0.352 A 
HETATM   35  C   UNL     1      41.218 -16.303   1.427  1.00  0.00     0.012 A 
ENDBRANCH  26  27
ENDBRANCH   4  26
BRANCH  11  36
HETATM   36  C   UNL     1      39.467 -10.874   8.382  1.00  0.00     0.252 C 
HETATM   37  N   UNL     1      40.346 -11.113   9.421  1.00  0.00    -0.352 N 
HETATM   38  H   UNL     1      41.256 -11.507   9.219  1.00  0.00     0.163 HD
HETATM   39  O   UNL     1      38.455 -10.191   8.487  1.00  0.00    -0.268 OA
BRANCH  37  40
HETATM   40  C   UNL     1      40.179 -10.502  10.737  1.00  0.00     0.084 C 
HETATM   41  C   UNL     1      40.803 -11.386  11.823  1.00  0.00     0.025 C 
HETATM   42  C   UNL     1      42.331 -11.383  11.791  1.00  0.00     0.002 C 
HETATM   43  C   UNL     1      42.892  -9.966  11.828  1.00  0.00     0.000 C 
HETATM   44  C   UNL     1      42.308  -9.096  10.720  1.00  0.00     0.002 C 
HETATM   45  C   UNL     1      40.778  -9.089  10.752  1.00  0.00     0.025 C 
ENDBRANCH  37  40
ENDBRANCH  11  36
TORSDOF 8
ENDMDL
MODEL 3
REMARK VINA RESULT:      -8.8      4.519     10.777
REMARK  8 active torsions:
REMARK  status: ('A' for Active; 'I' for Inactive)
REMARK    1  A    between atoms: O_2  and  C_3 
REMARK    2  A    between atoms: C_6  and  N_7 
REMARK       I    between atoms: N_7  and  C_8 
REMARK    3  A    between atoms: C_8  and  C_9 
REMARK    4  A    between atoms: C_9  and  N_10 
REMARK    5  A    between atoms: N_13  and  C_14 
REMARK    6  A    between atoms: C_14  and  C_15 
REMARK    7  A    between atoms: C_30  and  C_31 
REMARK       I    between atoms: C_31  and  N_32 
REMARK    8  A    between atoms: N_32  and  C_33 
ROOT
HETATM    1  N   UNL     1      40.740 -15.175   1.068  1.00  0.00    -0.290 N 
HETATM    2  C   UNL     1      40.290 -15.333   2.371  1.00  0.00     0.332 C 
HETATM    3  O   UNL     1      40.132 -16.464   2.844  1.00  0.00    -0.246 OA
HETATM    4  N   UNL     1      40.013 -14.180   3.085  1.00  0.00    -0.261 N 
HETATM    5  C   UNL     1      39.941 -12.909   2.531  1.00  0.00     0.264 C 
HETATM    6  O   UNL     1      39.619 -11.902   3.157  1.00  0.00    -0.267 OA
HETATM    7  C   UNL     1      40.255 -12.794   1.097  1.00  0.00     0.059 A 
HETATM    8  C   UNL     1      40.681 -13.923   0.399  1.00  0.00     0.056 A 
HETATM    9  C   UNL     1      40.132 -11.552   0.456  1.00  0.00     0.020 A 
HETATM   10  C   UNL     1      40.411 -11.438  -0.905  1.00  0.00     0.018 A 
HETATM   11  C   UNL     1      40.828 -12.559  -1.627  1.00  0.00     0.034 A 
HETATM   12  C   UNL     1      40.998 -13.783  -0.962  1.00  0.00     0.048 A 
ENDROOT
BRANCH   1  13
HETATM   13  C   UNL     1      41.169 -16.385   0.360  1.00  0.00     0.237 C 
BRANCH  13  14
HETATM   14  C   UNL     1      42.399 -17.008   1.022  1.00  0.00     0.240 C 
HETATM   15  N   UNL     1      42.098 -18.141   1.760  1.00  0.00    -0.326 N 
HETATM   16  H   UNL     1      41.127 -18.453   1.732  1.00  0.00     0.169 HD
HETATM   17  O   UNL     1      43.513 -16.520   0.841  1.00  0.00    -0.271 OA
BRANCH  15  18
HETATM   18  C   UNL     1      42.981 -18.914   2.538  1.00  0.00     0.034 A 
HETATM   19  C   UNL     1      43.503 -20.076   1.956  1.00  0.00     0.032 A 
HETATM   20  C   UNL     1      44.360 -20.922   2.676  1.00  0.00     0.039 A 
HETATM   21  C   UNL     1      44.705 -20.613   3.990  1.00  0.00     0.068 A 
HETATM   22  C   UNL     1      44.204 -19.445   4.564  1.00  0.00     0.039 A 
HETATM   23  C   UNL     1      43.346 -18.602   3.848  1.00  0.00     0.032 A 
BRANCH  21  24
HETATM   24  O   UNL     1      45.516 -21.351   4.805  1.00  0.00    -0.356 OA
HETATM   25  C   UNL     1      45.053 -22.647   5.165  1.00  0.00     0.210 C 
ENDBRANCH  21  24
ENDBRANCH  15  18
ENDBRANCH  13  14
ENDBRANCH   1  13
BRANCH   4  26
HETATM   26  C   UNL     1      39.756 -14.306   4.515  1.00  0.00     0.175 C 
BRANCH  26  27
HETATM   27  C   UNL     1      40.985 -14.808   5.250  1.00  0.00    -0.037 A 
HETATM   28  C   UNL     1      40.930 -16.002   5.989  1.00  0.00     0.048 A 
HETATM   29  C   UNL     1      42.061 -16.397   6.673  1.00  0.00     0.105 A 
HETATM   30  C   UNL     1      43.217 -15.655   6.654  1.00  0.00     0.105 A 
HETATM   31  O   UNL     1      42.179 -17.520   7.432  1.00  0.00    -0.323 OA
HETATM   32  O   UNL     1      44.208 -16.216   7.398  1.00  0.00    -0.323 OA
HETATM   33  C   UNL     1      43.310 -14.477   5.948  1.00  0.00     0.040 A 
HETATM   34  C   UNL     1      43.543 -17.401   7.883  1.00  0.00     0.352 A 
HETATM   35  C   UNL     1      42.181 -14.051   5.239  1.00  0.00     0.012 A 
ENDBRANCH  26  27
ENDBRANCH   4  26
BRANCH  11  36
HETATM   36  C   UNL     1      41.083 -12.417  -3.090  1.00  0.00     0.252 C 
HETATM   37  N   UNL     1      41.033 -11.136  -3.603  1.00  0.00    -0.352 N 
HETATM   38  H   UNL     1      41.017 -10.347  -2.969  1.00  0.00     0.163 HD
HETATM   39  O   UNL     1      41.344 -13.410  -3.758  1.00  0.00    -0.268 OA
BRANCH  37  40
HETATM   40  C   UNL     1      41.363 -10.841  -4.995  1.00  0.00     0.084 C 
HETATM   41  C   UNL     1      40.157 -10.228  -5.716  1.00  0.00     0.025 C 
HETATM   42  C   UNL     1      39.860  -8.796  -5.273  1.00  0.00     0.002 C 
HETATM   43  C   UNL     1      41.093  -7.906  -5.382  1.00  0.00     0.000 C 
HETATM   44  C   UNL     1      42.283  -8.491  -4.626  1.00  0.00     0.002 C 
HETATM   45  C   UNL     1      42.589  -9.922  -5.073  1.00  0.00     0.025 C 
ENDBRANCH  37  40
ENDBRANCH  11  36
TORSDOF 8
ENDMDL
MODEL 4
REMARK VINA RESULT:      -8.7      2.527      6.558
REMARK  8 active torsions:
REMARK  status: ('A' for Active; 'I' for Inactive)
REMARK    1  A    between atoms: O_2  and  C_3 
REMARK    2  A    between atoms: C_6  and  N_7 
REMARK       I    between atoms: N_7  and  C_8 
REMARK    3  A    between atoms: C_8  and  C_9 
REMARK    4  A    between atoms: C_9  and  N_10 
REMARK    5  A    between atoms: N_13  and  C_14 
REMARK    6  A    between atoms: C_14  and  C_15 
REMARK    7  A    between atoms: C_30  and  C_31 
REMARK       I    between atoms: C_31  and  N_32 
REMARK    8  A    between atoms: N_32  and  C_33 
ROOT
HETATM    1  N   UNL     1      40.116 -13.532   4.816  1.00  0.00    -0.290 N 
HETATM    2  C   UNL     1      39.639 -13.623   3.515  1.00  0.00     0.332 C 
HETATM    3  O   UNL     1      39.544 -14.723   2.961  1.00  0.00    -0.246 OA
HETATM    4  N   UNL     1      39.306 -12.437   2.883  1.00  0.00    -0.261 N 
HETATM    5  C   UNL     1      39.619 -11.174   3.365  1.00  0.00     0.264 C 
HETATM    6  O   UNL     1      39.389 -10.129   2.760  1.00  0.00    -0.267 OA
HETATM    7  C   UNL     1      40.288 -11.111   4.676  1.00  0.00     0.059 A 
HETATM    8  C   UNL     1      40.494 -12.289   5.392  1.00  0.00     0.056 A 
HETATM    9  C   UNL     1      40.697  -9.872   5.189  1.00  0.00     0.020 A 
HETATM   10  C   UNL     1      41.345  -9.807   6.422  1.00  0.00     0.018 A 
HETATM   11  C   UNL     1      41.573 -10.975   7.152  1.00  0.00     0.034 A 
HETATM   12  C   UNL     1      41.111 -12.203   6.651  1.00  0.00     0.048 A 
ENDROOT
BRANCH   1  13
HETATM   13  C   UNL     1      40.333 -14.790   5.535  1.00  0.00     0.237 C 
BRANCH  13  14
HETATM   14  C   UNL     1      41.585 -15.509   5.029  1.00  0.00     0.240 C 
HETATM   15  N   UNL     1      41.315 -16.769   4.522  1.00  0.00    -0.326 N 
HETATM   16  H   UNL     1      40.333 -17.043   4.492  1.00  0.00     0.169 HD
HETATM   17  O   UNL     1      42.678 -14.948   5.068  1.00  0.00    -0.271 OA
BRANCH  15  18
HETATM   18  C   UNL     1      42.242 -17.712   4.036  1.00  0.00     0.034 A 
HETATM   19  C   UNL     1      42.273 -17.930   2.653  1.00  0.00     0.032 A 
HETATM   20  C   UNL     1      43.140 -18.879   2.091  1.00  0.00     0.039 A 
HETATM   21  C   UNL     1      43.988 -19.621   2.910  1.00  0.00     0.068 A 
HETATM   22  C   UNL     1      43.975 -19.390   4.285  1.00  0.00     0.039 A 
HETATM   23  C   UNL     1      43.107 -18.445   4.847  1.00  0.00     0.032 A 
BRANCH  21  24
HETATM   24  O   UNL     1      44.869 -20.581   2.498  1.00  0.00    -0.356 OA
HETATM   25  C   UNL     1      44.317 -21.828   2.098  1.00  0.00     0.210 C 
ENDBRANCH  21  24
ENDBRANCH  15  18
ENDBRANCH  13  14
ENDBRANCH   1  13
BRANCH   4  26
HETATM   26  C   UNL     1      38.598 -12.515   1.611  1.00  0.00     0.175 C 
BRANCH  26  27
HETATM   27  C   UNL     1      39.553 -12.817   0.471  1.00  0.00    -0.037 A 
HETATM   28  C   UNL     1      39.248 -13.823  -0.462  1.00  0.00     0.048 A 
HETATM   29  C   UNL     1      40.165 -14.088  -1.458  1.00  0.00     0.105 A 
HETATM   30  C   UNL     1      41.355 -13.406  -1.548  1.00  0.00     0.105 A 
HETATM   31  O   UNL     1      40.027 -15.021  -2.437  1.00  0.00    -0.323 OA
HETATM   32  O   UNL     1      42.116 -13.825  -2.594  1.00  0.00    -0.323 OA
HETATM   33  C   UNL     1      41.695 -12.419  -0.651  1.00  0.00     0.040 A 
HETATM   34  C   UNL     1      41.265 -14.846  -3.156  1.00  0.00     0.352 A 
HETATM   35  C   UNL     1      40.783 -12.123   0.368  1.00  0.00     0.012 A 
ENDBRANCH  26  27
ENDBRANCH   4  26
BRANCH  11  36
HETATM   36  C   UNL     1      42.302 -10.881   8.449  1.00  0.00     0.252 C 
HETATM   37  N   UNL     1      41.531 -10.689   9.579  1.00  0.00    -0.352 N 
HETATM   38  H   UNL     1      40.527 -10.805   9.519  1.00  0.00     0.163 HD
HETATM   39  O   UNL     1      43.523 -10.998   8.468  1.00  0.00    -0.268 OA
BRANCH  37  40
HETATM   40  C   UNL     1      42.105 -10.681  10.922  1.00  0.00     0.084 C 
HETATM   41  C   UNL     1      42.480  -9.254  11.338  1.00  0.00     0.025 C 
HETATM   42  C   UNL     1      41.263  -8.378  11.634  1.00  0.00     0.002 C 
HETATM   43  C   UNL     1      40.332  -9.033  12.647  1.00  0.00     0.000 C 
HETATM   44  C   UNL     1      39.919 -10.436  12.213  1.00  0.00     0.002 C 
HETATM   45  C   UNL     1      41.134 -11.320  11.924  1.00  0.00     0.025 C 
ENDBRANCH  37  40
ENDBRANCH  11  36
TORSDOF 8
ENDMDL
MODEL 5
REMARK VINA RESULT:      -8.6      2.618     10.144
REMARK  8 active torsions:
REMARK  status: ('A' for Active; 'I' for Inactive)
REMARK    1  A    between atoms: O_2  and  C_3 
REMARK    2  A    between atoms: C_6  and  N_7 
REMARK       I    between atoms: N_7  and  C_8 
REMARK    3  A    between atoms: C_8  and  C_9 
REMARK    4  A    between atoms: C_9  and  N_10 
REMARK    5  A    between atoms: N_13  and  C_14 
REMARK    6  A    between atoms: C_14  and  C_15 
REMARK    7  A    between atoms: C_30  and  C_31 
REMARK       I    between atoms: C_31  and  N_32 
REMARK    8  A    between atoms: N_32  and  C_33 
ROOT
HETATM    1  N   UNL     1      39.902 -13.061   5.276  1.00  0.00    -0.290 N 
HETATM    2  C   UNL     1      39.498 -12.261   6.336  1.00  0.00     0.332 C 
HETATM    3  O   UNL     1      38.902 -12.756   7.298  1.00  0.00    -0.246 OA
HETATM    4  N   UNL     1      39.775 -10.908   6.244  1.00  0.00    -0.261 N 
HETATM    5  C   UNL     1      40.217 -10.272   5.092  1.00  0.00     0.264 C 
HETATM    6  O   UNL     1      40.386  -9.059   4.998  1.00  0.00    -0.267 OA
HETATM    7  C   UNL     1      40.472 -11.126   3.920  1.00  0.00     0.059 A 
HETATM    8  C   UNL     1      40.342 -12.508   4.043  1.00  0.00     0.056 A 
HETATM    9  C   UNL     1      40.852 -10.540   2.703  1.00  0.00     0.020 A 
HETATM   10  C   UNL     1      41.079 -11.341   1.585  1.00  0.00     0.018 A 
HETATM   11  C   UNL     1      40.943 -12.728   1.681  1.00  0.00     0.034 A 
HETATM   12  C   UNL     1      40.614 -13.304   2.918  1.00  0.00     0.048 A 
ENDROOT
BRANCH   1  13
HETATM   13  C   UNL     1      39.739 -14.509   5.434  1.00  0.00     0.237 C 
BRANCH  13  14
HETATM   14  C   UNL     1      41.093 -15.217   5.483  1.00  0.00     0.240 C 
HETATM   15  N   UNL     1      41.068 -16.468   4.889  1.00  0.00    -0.326 N 
HETATM   16  H   UNL     1      40.190 -16.742   4.449  1.00  0.00     0.169 HD
HETATM   17  O   UNL     1      42.067 -14.656   5.981  1.00  0.00    -0.271 OA
BRANCH  15  18
HETATM   18  C   UNL     1      42.121 -17.402   4.817  1.00  0.00     0.034 A 
HETATM   19  C   UNL     1      42.620 -17.712   3.546  1.00  0.00     0.032 A 
HETATM   20  C   UNL     1      43.641 -18.659   3.383  1.00  0.00     0.039 A 
HETATM   21  C   UNL     1      44.177 -19.307   4.494  1.00  0.00     0.068 A 
HETATM   22  C   UNL     1      43.697 -18.983   5.762  1.00  0.00     0.039 A 
HETATM   23  C   UNL     1      42.675 -18.041   5.925  1.00  0.00     0.032 A 
BRANCH  21  24
HETATM   24  O   UNL     1      45.162 -20.254   4.477  1.00  0.00    -0.356 OA
HETATM   25  C   UNL     1      44.828 -21.534   4.999  1.00  0.00     0.210 C 
ENDBRANCH  21  24
ENDBRANCH  15  18
ENDBRANCH  13  14
ENDBRANCH   1  13
BRANCH   4  26
HETATM   26  C   UNL     1      39.566 -10.085   7.429  1.00  0.00     0.175 C 
BRANCH  26  27
HETATM   27  C   UNL     1      40.608 -10.383   8.492  1.00  0.00    -0.037 A 
HETATM   28  C   UNL     1      41.972 -10.415   8.158  1.00  0.00     0.048 A 
HETATM   29  C   UNL     1      42.878 -10.729   9.150  1.00  0.00     0.105 A 
HETATM   30  C   UNL     1      42.479 -11.016  10.433  1.00  0.00     0.105 A 
HETATM   31  O   UNL     1      44.228 -10.802   8.999  1.00  0.00    -0.323 OA
HETATM   32  O   UNL     1      43.526 -11.306  11.251  1.00  0.00    -0.323 OA
HETATM   33  C   UNL     1      41.152 -11.002  10.799  1.00  0.00     0.040 A 
HETATM   34  C   UNL     1      44.632 -11.164  10.336  1.00  0.00     0.352 A 
HETATM   35  C   UNL     1      40.208 -10.682   9.817  1.00  0.00     0.012 A 
ENDBRANCH  26  27
ENDBRANCH   4  26
BRANCH  11  36
HETATM   36  C   UNL     1      41.154 -13.557   0.459  1.00  0.00     0.252 C 
HETATM   37  N   UNL     1      41.343 -12.873  -0.726  1.00  0.00    -0.352 N 
HETATM   38  H   UNL     1      41.516 -11.876  -0.701  1.00  0.00     0.163 HD
HETATM   39  O   UNL     1      41.177 -14.779   0.553  1.00  0.00    -0.268 OA
BRANCH  37  40
HETATM   40  C   UNL     1      41.662 -13.556  -1.977  1.00  0.00     0.084 C 
HETATM   41  C   UNL     1      40.420 -13.650  -2.870  1.00  0.00     0.025 C 
HETATM   42  C   UNL     1      40.014 -12.306  -3.473  1.00  0.00     0.002 C 
HETATM   43  C   UNL     1      41.178 -11.639  -4.196  1.00  0.00     0.000 C 
HETATM   44  C   UNL     1      42.402 -11.501  -3.295  1.00  0.00     0.002 C 
HETATM   45  C   UNL     1      42.817 -12.847  -2.696  1.00  0.00     0.025 C 
ENDBRANCH  37  40
ENDBRANCH  11  36
TORSDOF 8
ENDMDL
MODEL 6
REMARK VINA RESULT:      -8.4      4.432      8.190
REMARK  8 active torsions:
REMARK  status: ('A' for Active; 'I' for Inactive)
REMARK    1  A    between atoms: O_2  and  C_3 
REMARK    2  A    between atoms: C_6  and  N_7 
REMARK       I    between atoms: N_7  and  C_8 
REMARK    3  A    between atoms: C_8  and  C_9 
REMARK    4  A    between atoms: C_9  and  N_10 
REMARK    5  A    between atoms: N_13  and  C_14 
REMARK    6  A    between atoms: C_14  and  C_15 
REMARK    7  A    between atoms: C_30  and  C_31 
REMARK       I    between atoms: C_31  and  N_32 
REMARK    8  A    between atoms: N_32  and  C_33 
ROOT
HETATM    1  N   UNL     1      40.252 -11.868   1.913  1.00  0.00    -0.290 N 
HETATM    2  C   UNL     1      40.950 -12.791   1.147  1.00  0.00     0.332 C 
HETATM    3  O   UNL     1      42.182 -12.848   1.208  1.00  0.00    -0.246 OA
HETATM    4  N   UNL     1      40.205 -13.608   0.315  1.00  0.00    -0.261 N 
HETATM    5  C   UNL     1      38.859 -13.423   0.029  1.00  0.00     0.264 C 
HETATM    6  O   UNL     1      38.224 -14.107  -0.770  1.00  0.00    -0.267 OA
HETATM    7  C   UNL     1      38.179 -12.319   0.727  1.00  0.00     0.059 A 
HETATM    8  C   UNL     1      38.879 -11.582   1.681  1.00  0.00     0.056 A 
HETATM    9  C   UNL     1      36.838 -12.032   0.433  1.00  0.00     0.020 A 
HETATM   10  C   UNL     1      36.193 -10.977   1.078  1.00  0.00     0.018 A 
HETATM   11  C   UNL     1      36.878 -10.218   2.029  1.00  0.00     0.034 A 
HETATM   12  C   UNL     1      38.203 -10.550   2.352  1.00  0.00     0.048 A 
ENDROOT
BRANCH   1  13
HETATM   13  C   UNL     1      41.022 -11.102   2.897  1.00  0.00     0.237 C 
BRANCH  13  14
HETATM   14  C   UNL     1      41.328 -11.942   4.138  1.00  0.00     0.240 C 
HETATM   15  N   UNL     1      41.421 -13.296   3.863  1.00  0.00    -0.326 N 
HETATM   16  H   UNL     1      41.335 -13.564   2.882  1.00  0.00     0.169 HD
HETATM   17  O   UNL     1      41.497 -11.397   5.228  1.00  0.00    -0.271 OA
BRANCH  15  18
HETATM   18  C   UNL     1      41.630 -14.343   4.782  1.00  0.00     0.034 A 
HETATM   19  C   UNL     1      42.931 -14.848   4.897  1.00  0.00     0.032 A 
HETATM   20  C   UNL     1      43.217 -15.916   5.760  1.00  0.00     0.039 A 
HETATM   21  C   UNL     1      42.201 -16.491   6.521  1.00  0.00     0.068 A 
HETATM   22  C   UNL     1      40.909 -15.975   6.424  1.00  0.00     0.039 A 
HETATM   23  C   UNL     1      40.622 -14.912   5.559  1.00  0.00     0.032 A 
BRANCH  21  24
HETATM   24  O   UNL     1      42.337 -17.538   7.388  1.00  0.00    -0.356 OA
HETATM   25  C   UNL     1      43.468 -17.512   8.250  1.00  0.00     0.210 C 
ENDBRANCH  21  24
ENDBRANCH  15  18
ENDBRANCH  13  14
ENDBRANCH   1  13
BRANCH   4  26
HETATM   26  C   UNL     1      40.881 -14.728  -0.328  1.00  0.00     0.175 C 
BRANCH  26  27
HETATM   27  C   UNL     1      41.328 -15.757   0.693  1.00  0.00    -0.037 A 
HETATM   28  C   UNL     1      42.616 -16.315   0.620  1.00  0.00     0.048 A 
HETATM   29  C   UNL     1      42.963 -17.276   1.547  1.00  0.00     0.105 A 
HETATM   30  C   UNL     1      42.086 -17.698   2.518  1.00  0.00     0.105 A 
HETATM   31  O   UNL     1      44.162 -17.913   1.620  1.00  0.00    -0.323 OA
HETATM   32  O   UNL     1      42.622 -18.654   3.323  1.00  0.00    -0.323 OA
HETATM   33  C   UNL     1      40.814 -17.182   2.619  1.00  0.00     0.040 A 
HETATM   34  C   UNL     1      43.941 -18.781   2.751  1.00  0.00     0.352 A 
HETATM   35  C   UNL     1      40.433 -16.201   1.697  1.00  0.00     0.012 A 
ENDBRANCH  26  27
ENDBRANCH   4  26
BRANCH  11  36
HETATM   36  C   UNL     1      36.176  -9.072   2.675  1.00  0.00     0.252 C 
HETATM   37  N   UNL     1      34.956  -9.347   3.262  1.00  0.00    -0.352 N 
HETATM   38  H   UNL     1      34.678 -10.311   3.399  1.00  0.00     0.163 HD
HETATM   39  O   UNL     1      36.702  -7.965   2.683  1.00  0.00    -0.268 OA
BRANCH  37  40
HETATM   40  C   UNL     1      34.211  -8.344   4.017  1.00  0.00     0.084 C 
HETATM   41  C   UNL     1      33.092  -7.745   3.157  1.00  0.00     0.025 C 
HETATM   42  C   UNL     1      31.936  -8.717   2.919  1.00  0.00     0.002 C 
HETATM   43  C   UNL     1      31.398  -9.283   4.228  1.00  0.00     0.000 C 
HETATM   44  C   UNL     1      32.502  -9.921   5.066  1.00  0.00     0.002 C 
HETATM   45  C   UNL     1      33.658  -8.949   5.314  1.00  0.00     0.025 C 
ENDBRANCH  37  40
ENDBRANCH  11  36
TORSDOF 8
ENDMDL
MODEL 7
REMARK VINA RESULT:      -8.4      3.147      6.929
REMARK  8 active torsions:
REMARK  status: ('A' for Active; 'I' for Inactive)
REMARK    1  A    between atoms: O_2  and  C_3 
REMARK    2  A    between atoms: C_6  and  N_7 
REMARK       I    between atoms: N_7  and  C_8 
REMARK    3  A    between atoms: C_8  and  C_9 
REMARK    4  A    between atoms: C_9  and  N_10 
REMARK    5  A    between atoms: N_13  and  C_14 
REMARK    6  A    between atoms: C_14  and  C_15 
REMARK    7  A    between atoms: C_30  and  C_31 
REMARK       I    between atoms: C_31  and  N_32 
REMARK    8  A    between atoms: N_32  and  C_33 
ROOT
HETATM    1  N   UNL     1      43.432 -14.343   6.537  1.00  0.00    -0.290 N 
HETATM    2  C   UNL     1      43.693 -15.652   6.916  1.00  0.00     0.332 C 
HETATM    3  O   UNL     1      44.836 -15.992   7.240  1.00  0.00    -0.246 OA
HETATM    4  N   UNL     1      42.630 -16.539   6.889  1.00  0.00    -0.261 N 
HETATM    5  C   UNL     1      41.398 -16.272   6.308  1.00  0.00     0.264 C 
HETATM    6  O   UNL     1      40.487 -17.091   6.220  1.00  0.00    -0.267 OA
HETATM    7  C   UNL     1      41.206 -14.922   5.752  1.00  0.00     0.059 A 
HETATM    8  C   UNL     1      42.214 -13.972   5.906  1.00  0.00     0.056 A 
HETATM    9  C   UNL     1      40.012 -14.608   5.087  1.00  0.00     0.020 A 
HETATM   10  C   UNL     1      39.829 -13.337   4.544  1.00  0.00     0.018 A 
HETATM   11  C   UNL     1      40.831 -12.372   4.676  1.00  0.00     0.034 A 
HETATM   12  C   UNL     1      41.998 -12.684   5.390  1.00  0.00     0.048 A 
ENDROOT
BRANCH   1  13
HETATM   13  C   UNL     1      44.518 -13.373   6.701  1.00  0.00     0.237 C 
BRANCH  13  14
HETATM   14  C   UNL     1      44.543 -12.802   8.120  1.00  0.00     0.240 C 
HETATM   15  N   UNL     1      43.574 -11.834   8.329  1.00  0.00    -0.326 N 
HETATM   16  H   UNL     1      42.937 -11.659   7.552  1.00  0.00     0.169 HD
HETATM   17  O   UNL     1      45.344 -13.234   8.947  1.00  0.00    -0.271 OA
BRANCH  15  18
HETATM   18  C   UNL     1      43.365 -11.071   9.494  1.00  0.00     0.034 A 
HETATM   19  C   UNL     1      42.215 -10.274   9.544  1.00  0.00     0.032 A 
HETATM   20  C   UNL     1      41.952  -9.455  10.651  1.00  0.00     0.039 A 
HETATM   21  C   UNL     1      42.840  -9.425  11.724  1.00  0.00     0.068 A 
HETATM   22  C   UNL     1      43.974 -10.234  11.687  1.00  0.00     0.039 A 
HETATM   23  C   UNL     1      44.240 -11.049  10.580  1.00  0.00     0.032 A 
BRANCH  21  24
HETATM   24  O   UNL     1      42.712  -8.667  12.855  1.00  0.00    -0.356 OA
HETATM   25  C   UNL     1      43.235  -9.217  14.057  1.00  0.00     0.210 C 
ENDBRANCH  21  24
ENDBRANCH  15  18
ENDBRANCH  13  14
ENDBRANCH   1  13
BRANCH   4  26
HETATM   26  C   UNL     1      42.820 -17.853   7.490  1.00  0.00     0.175 C 
BRANCH  26  27
HETATM   27  C   UNL     1      43.420 -18.829   6.495  1.00  0.00    -0.037 A 
HETATM   28  C   UNL     1      43.536 -18.476   5.139  1.00  0.00     0.048 A 
HETATM   29  C   UNL     1      44.051 -19.411   4.265  1.00  0.00     0.105 A 
HETATM   30  C   UNL     1      44.438 -20.661   4.685  1.00  0.00     0.105 A 
HETATM   31  O   UNL     1      44.232 -19.235   2.929  1.00  0.00    -0.323 OA
HETATM   32  O   UNL     1      44.910 -21.429   3.666  1.00  0.00    -0.323 OA
HETATM   33  C   UNL     1      44.335 -21.048   6.002  1.00  0.00     0.040 A 
HETATM   34  C   UNL     1      44.780 -20.516   2.557  1.00  0.00     0.352 A 
HETATM   35  C   UNL     1      43.821 -20.120   6.915  1.00  0.00     0.012 A 
ENDBRANCH  26  27
ENDBRANCH   4  26
BRANCH  11  36
HETATM   36  C   UNL     1      40.625 -11.033   4.052  1.00  0.00     0.252 C 
HETATM   37  N   UNL     1      39.610 -10.936   3.120  1.00  0.00    -0.352 N 
HETATM   38  H   UNL     1      38.942 -11.692   3.033  1.00  0.00     0.163 HD
HETATM   39  O   UNL     1      41.327 -10.090   4.397  1.00  0.00    -0.268 OA
BRANCH  37  40
HETATM   40  C   UNL     1      39.234  -9.664   2.508  1.00  0.00     0.084 C 
HETATM   41  C   UNL     1      39.694  -9.613   1.047  1.00  0.00     0.025 C 
HETATM   42  C   UNL     1      38.878 -10.525   0.132  1.00  0.00     0.002 C 
HETATM   43  C   UNL     1      37.383 -10.261   0.260  1.00  0.00     0.000 C 
HETATM   44  C   UNL     1      36.913 -10.357   1.709  1.00  0.00     0.002 C 
HETATM   45  C   UNL     1      37.721  -9.439   2.628  1.00  0.00     0.025 C 
ENDBRANCH  37  40
ENDBRANCH  11  36
TORSDOF 8
ENDMDL
MODEL 8
REMARK VINA RESULT:      -8.3      2.238      5.050
REMARK  8 active torsions:
REMARK  status: ('A' for Active; 'I' for Inactive)
REMARK    1  A    between atoms: O_2  and  C_3 
REMARK    2  A    between atoms: C_6  and  N_7 
REMARK       I    between atoms: N_7  and  C_8 
REMARK    3  A    between atoms: C_8  and  C_9 
REMARK    4  A    between atoms: C_9  and  N_10 
REMARK    5  A    between atoms: N_13  and  C_14 
REMARK    6  A    between atoms: C_14  and  C_15 
REMARK    7  A    between atoms: C_30  and  C_31 
REMARK       I    between atoms: C_31  and  N_32 
REMARK    8  A    between atoms: N_32  and  C_33 
ROOT
HETATM    1  N   UNL     1      41.237 -13.608   5.039  1.00  0.00    -0.290 N 
HETATM    2  C   UNL     1      40.427 -14.423   4.261  1.00  0.00     0.332 C 
HETATM    3  O   UNL     1      39.288 -14.058   3.951  1.00  0.00    -0.246 OA
HETATM    4  N   UNL     1      40.947 -15.649   3.882  1.00  0.00    -0.261 N 
HETATM    5  C   UNL     1      42.109 -16.204   4.400  1.00  0.00     0.264 C 
HETATM    6  O   UNL     1      42.522 -17.326   4.115  1.00  0.00    -0.267 OA
HETATM    7  C   UNL     1      42.863 -15.385   5.364  1.00  0.00     0.059 A 
HETATM    8  C   UNL     1      42.431 -14.089   5.641  1.00  0.00     0.056 A 
HETATM    9  C   UNL     1      44.007 -15.913   5.979  1.00  0.00     0.020 A 
HETATM   10  C   UNL     1      44.717 -15.149   6.905  1.00  0.00     0.018 A 
HETATM   11  C   UNL     1      44.295 -13.852   7.208  1.00  0.00     0.034 A 
HETATM   12  C   UNL     1      43.180 -13.317   6.545  1.00  0.00     0.048 A 
ENDROOT
BRANCH   1  13
HETATM   13  C   UNL     1      40.745 -12.256   5.322  1.00  0.00     0.237 C 
BRANCH  13  14
HETATM   14  C   UNL     1      41.013 -11.313   4.148  1.00  0.00     0.240 C 
HETATM   15  N   UNL     1      40.747 -11.893   2.919  1.00  0.00    -0.326 N 
HETATM   16  H   UNL     1      40.360 -12.836   2.939  1.00  0.00     0.169 HD
HETATM   17  O   UNL     1      41.389 -10.160   4.354  1.00  0.00    -0.271 OA
BRANCH  15  18
HETATM   18  C   UNL     1      40.944 -11.324   1.645  1.00  0.00     0.034 A 
HETATM   19  C   UNL     1      42.092 -11.706   0.939  1.00  0.00     0.032 A 
HETATM   20  C   UNL     1      42.382 -11.158  -0.318  1.00  0.00     0.039 A 
HETATM   21  C   UNL     1      41.523 -10.219  -0.886  1.00  0.00     0.068 A 
HETATM   22  C   UNL     1      40.369  -9.854  -0.196  1.00  0.00     0.039 A 
HETATM   23  C   UNL     1      40.080 -10.397   1.062  1.00  0.00     0.032 A 
BRANCH  21  24
HETATM   24  O   UNL     1      41.691  -9.600  -2.093  1.00  0.00    -0.356 OA
HETATM   25  C   UNL     1      42.804 -10.012  -2.875  1.00  0.00     0.210 C 
ENDBRANCH  21  24
ENDBRANCH  15  18
ENDBRANCH  13  14
ENDBRANCH   1  13
BRANCH   4  26
HETATM   26  C   UNL     1      40.216 -16.424   2.888  1.00  0.00     0.175 C 
BRANCH  26  27
HETATM   27  C   UNL     1      40.501 -15.924   1.484  1.00  0.00    -0.037 A 
HETATM   28  C   UNL     1      39.799 -14.821   0.969  1.00  0.00     0.048 A 
HETATM   29  C   UNL     1      40.065 -14.427  -0.326  1.00  0.00     0.105 A 
HETATM   30  C   UNL     1      40.980 -15.086  -1.111  1.00  0.00     0.105 A 
HETATM   31  O   UNL     1      39.480 -13.385  -0.976  1.00  0.00    -0.323 OA
HETATM   32  O   UNL     1      41.086 -14.543  -2.354  1.00  0.00    -0.323 OA
HETATM   33  C   UNL     1      41.683 -16.175  -0.647  1.00  0.00     0.040 A 
HETATM   34  C   UNL     1      40.135 -13.462  -2.259  1.00  0.00     0.352 A 
HETATM   35  C   UNL     1      41.440 -16.596   0.665  1.00  0.00     0.012 A 
ENDBRANCH  26  27
ENDBRANCH   4  26
BRANCH  11  36
HETATM   36  C   UNL     1      45.050 -13.072   8.230  1.00  0.00     0.252 C 
HETATM   37  N   UNL     1      44.390 -12.804   9.413  1.00  0.00    -0.352 N 
HETATM   38  H   UNL     1      43.525 -13.287   9.619  1.00  0.00     0.163 HD
HETATM   39  O   UNL     1      46.204 -12.727   7.999  1.00  0.00    -0.268 OA
BRANCH  37  40
HETATM   40  C   UNL     1      45.045 -12.140  10.537  1.00  0.00     0.084 C 
HETATM   41  C   UNL     1      45.069 -10.622  10.326  1.00  0.00     0.025 C 
HETATM   42  C   UNL     1      43.693  -9.975  10.484  1.00  0.00     0.002 C 
HETATM   43  C   UNL     1      43.045 -10.348  11.812  1.00  0.00     0.000 C 
HETATM   44  C   UNL     1      42.978 -11.859  12.005  1.00  0.00     0.002 C 
HETATM   45  C   UNL     1      44.354 -12.511  11.856  1.00  0.00     0.025 C 
ENDBRANCH  37  40
ENDBRANCH  11  36
TORSDOF 8
ENDMDL
MODEL 9
REMARK VINA RESULT:      -8.3      3.840      7.948
REMARK  8 active torsions:
REMARK  status: ('A' for Active; 'I' for Inactive)
REMARK    1  A    between atoms: O_2  and  C_3 
REMARK    2  A    between atoms: C_6  and  N_7 
REMARK       I    between atoms: N_7  and  C_8 
REMARK    3  A    between atoms: C_8  and  C_9 
REMARK    4  A    between atoms: C_9  and  N_10 
REMARK    5  A    between atoms: N_13  and  C_14 
REMARK    6  A    between atoms: C_14  and  C_15 
REMARK    7  A    between atoms: C_30  and  C_31 
REMARK       I    between atoms: C_31  and  N_32 
REMARK    8  A    between atoms: N_32  and  C_33 
ROOT
HETATM    1  N   UNL     1      39.808 -11.704   3.206  1.00  0.00    -0.290 N 
HETATM    2  C   UNL     1      41.051 -12.317   3.289  1.00  0.00     0.332 C 
HETATM    3  O   UNL     1      41.939 -11.833   3.997  1.00  0.00    -0.246 OA
HETATM    4  N   UNL     1      41.238 -13.462   2.533  1.00  0.00    -0.261 N 
HETATM    5  C   UNL     1      40.368 -13.904   1.546  1.00  0.00     0.264 C 
HETATM    6  O   UNL     1      40.580 -14.878   0.827  1.00  0.00    -0.267 OA
HETATM    7  C   UNL     1      39.131 -13.129   1.357  1.00  0.00     0.059 A 
HETATM    8  C   UNL     1      38.858 -12.062   2.212  1.00  0.00     0.056 A 
HETATM    9  C   UNL     1      38.241 -13.478   0.330  1.00  0.00     0.020 A 
HETATM   10  C   UNL     1      37.076 -12.738   0.135  1.00  0.00     0.018 A 
HETATM   11  C   UNL     1      36.788 -11.658   0.972  1.00  0.00     0.034 A 
HETATM   12  C   UNL     1      37.660 -11.353   2.029  1.00  0.00     0.048 A 
ENDROOT
BRANCH   1  13
HETATM   13  C   UNL     1      39.560 -10.578   4.111  1.00  0.00     0.237 C 
BRANCH  13  14
HETATM   14  C   UNL     1      39.530 -11.036   5.570  1.00  0.00     0.240 C 
HETATM   15  N   UNL     1      40.381 -10.306   6.382  1.00  0.00    -0.326 N 
HETATM   16  H   UNL     1      40.874  -9.531   5.938  1.00  0.00     0.169 HD
HETATM   17  O   UNL     1      38.774 -11.942   5.919  1.00  0.00    -0.271 OA
BRANCH  15  18
HETATM   18  C   UNL     1      40.637 -10.507   7.753  1.00  0.00     0.034 A 
HETATM   19  C   UNL     1      41.971 -10.447   8.174  1.00  0.00     0.032 A 
HETATM   20  C   UNL     1      42.316 -10.673   9.514  1.00  0.00     0.039 A 
HETATM   21  C   UNL     1      41.325 -10.963  10.451  1.00  0.00     0.068 A 
HETATM   22  C   UNL     1      39.995 -11.002  10.038  1.00  0.00     0.039 A 
HETATM   23  C   UNL     1      39.650 -10.779   8.699  1.00  0.00     0.032 A 
BRANCH  21  24
HETATM   24  O   UNL     1      41.522 -11.215  11.779  1.00  0.00    -0.356 OA
HETATM   25  C   UNL     1      40.451 -10.895  12.658  1.00  0.00     0.210 C 
ENDBRANCH  21  24
ENDBRANCH  15  18
ENDBRANCH  13  14
ENDBRANCH   1  13
BRANCH   4  26
HETATM   26  C   UNL     1      42.444 -14.247   2.768  1.00  0.00     0.175 C 
BRANCH  26  27
HETATM   27  C   UNL     1      42.314 -15.084   4.027  1.00  0.00    -0.037 A 
HETATM   28  C   UNL     1      43.295 -15.011   5.031  1.00  0.00     0.048 A 
HETATM   29  C   UNL     1      43.155 -15.821   6.139  1.00  0.00     0.105 A 
HETATM   30  C   UNL     1      42.097 -16.689   6.274  1.00  0.00     0.105 A 
HETATM   31  O   UNL     1      44.007 -15.874   7.198  1.00  0.00    -0.323 OA
HETATM   32  O   UNL     1      42.152 -17.398   7.434  1.00  0.00    -0.323 OA
HETATM   33  C   UNL     1      41.119 -16.795   5.311  1.00  0.00     0.040 A 
HETATM   34  C   UNL     1      43.362 -16.872   8.016  1.00  0.00     0.352 A 
HETATM   35  C   UNL     1      41.231 -15.983   4.177  1.00  0.00     0.012 A 
ENDBRANCH  26  27
ENDBRANCH   4  26
BRANCH  11  36
HETATM   36  C   UNL     1      35.553 -10.860   0.716  1.00  0.00     0.252 C 
HETATM   37  N   UNL     1      34.651 -10.768   1.758  1.00  0.00    -0.352 N 
HETATM   38  H   UNL     1      34.930 -11.069   2.684  1.00  0.00     0.163 HD
HETATM   39  O   UNL     1      35.401 -10.312  -0.369  1.00  0.00    -0.268 OA
BRANCH  37  40
HETATM   40  C   UNL     1      33.453  -9.936   1.679  1.00  0.00     0.084 C 
HETATM   41  C   UNL     1      32.203 -10.761   2.006  1.00  0.00     0.025 C 
HETATM   42  C   UNL     1      32.098 -11.125   3.487  1.00  0.00     0.002 C 
HETATM   43  C   UNL     1      32.209  -9.895   4.379  1.00  0.00     0.000 C 
HETATM   44  C   UNL     1      33.476  -9.096   4.088  1.00  0.00     0.002 C 
HETATM   45  C   UNL     1      33.582  -8.722   2.608  1.00  0.00     0.025 C 
ENDBRANCH  37  40
ENDBRANCH  11  36
TORSDOF 8
ENDMDL
MODEL 10
REMARK VINA RESULT:      -8.1      2.555      9.856
REMARK  8 active torsions:
REMARK  status: ('A' for Active; 'I' for Inactive)
REMARK    1  A    between atoms: O_2  and  C_3 
REMARK    2  A    between atoms: C_6  and  N_7 
REMARK       I    between atoms: N_7  and  C_8 
REMARK    3  A    between atoms: C_8  and  C_9 
REMARK    4  A    between atoms: C_9  and  N_10 
REMARK    5  A    between atoms: N_13  and  C_14 
REMARK    6  A    between atoms: C_14  and  C_15 
REMARK    7  A    between atoms: C_30  and  C_31 
REMARK       I    between atoms: C_31  and  N_32 
REMARK    8  A    between atoms: N_32  and  C_33 
ROOT
HETATM    1  N   UNL     1      39.522 -11.681   6.293  1.00  0.00    -0.290 N 
HETATM    2  C   UNL     1      39.508 -11.360   7.643  1.00  0.00     0.332 C 
HETATM    3  O   UNL     1      39.045 -12.154   8.469  1.00  0.00    -0.246 OA
HETATM    4  N   UNL     1      40.010 -10.120   7.999  1.00  0.00    -0.261 N 
HETATM    5  C   UNL     1      40.313  -9.106   7.101  1.00  0.00     0.264 C 
HETATM    6  O   UNL     1      40.684  -7.982   7.431  1.00  0.00    -0.267 OA
HETATM    7  C   UNL     1      40.150  -9.417   5.671  1.00  0.00     0.059 A 
HETATM    8  C   UNL     1      39.789 -10.710   5.292  1.00  0.00     0.056 A 
HETATM    9  C   UNL     1      40.369  -8.417   4.713  1.00  0.00     0.020 A 
HETATM   10  C   UNL     1      40.201  -8.700   3.358  1.00  0.00     0.018 A 
HETATM   11  C   UNL     1      39.829  -9.985   2.955  1.00  0.00     0.034 A 
HETATM   12  C   UNL     1      39.664 -10.990   3.921  1.00  0.00     0.048 A 
ENDROOT
BRANCH   1  13
HETATM   13  C   UNL     1      39.125 -13.045   5.929  1.00  0.00     0.237 C 
BRANCH  13  14
HETATM   14  C   UNL     1      40.343 -13.905   5.592  1.00  0.00     0.240 C 
HETATM   15  N   UNL     1      40.017 -15.041   4.868  1.00  0.00    -0.326 N 
HETATM   16  H   UNL     1      39.038 -15.140   4.602  1.00  0.00     0.169 HD
HETATM   17  O   UNL     1      41.469 -13.543   5.929  1.00  0.00    -0.271 OA
BRANCH  15  18
HETATM   18  C   UNL     1      40.887 -16.068   4.452  1.00  0.00     0.034 A 
HETATM   19  C   UNL     1      41.322 -16.043   3.122  1.00  0.00     0.032 A 
HETATM   20  C   UNL     1      42.158 -17.050   2.617  1.00  0.00     0.039 A 
HETATM   21  C   UNL     1      42.569 -18.095   3.441  1.00  0.00     0.068 A 
HETATM   22  C   UNL     1      42.155 -18.110   4.772  1.00  0.00     0.039 A 
HETATM   23  C   UNL     1      41.317 -17.108   5.276  1.00  0.00     0.032 A 
BRANCH  21  24
HETATM   24  O   UNL     1      43.369 -19.142   3.077  1.00  0.00    -0.356 OA
HETATM   25  C   UNL     1      44.250 -19.650   4.070  1.00  0.00     0.210 C 
ENDBRANCH  21  24
ENDBRANCH  15  18
ENDBRANCH  13  14
ENDBRANCH   1  13
BRANCH   4  26
HETATM   26  C   UNL     1      40.214  -9.846   9.417  1.00  0.00     0.175 C 
BRANCH  26  27
HETATM   27  C   UNL     1      41.522 -10.439   9.906  1.00  0.00    -0.037 A 
HETATM   28  C   UNL     1      42.612 -10.571   9.028  1.00  0.00     0.048 A 
HETATM   29  C   UNL     1      43.767 -11.153   9.508  1.00  0.00     0.105 A 
HETATM   30  C   UNL     1      43.869 -11.605  10.801  1.00  0.00     0.105 A 
HETATM   31  O   UNL     1      44.909 -11.355   8.797  1.00  0.00    -0.323 OA
HETATM   32  O   UNL     1      45.086 -12.150  11.068  1.00  0.00    -0.323 OA
HETATM   33  C   UNL     1      42.823 -11.500  11.690  1.00  0.00     0.040 A 
HETATM   34  C   UNL     1      45.742 -11.983   9.794  1.00  0.00     0.352 A 
HETATM   35  C   UNL     1      41.638 -10.910  11.235  1.00  0.00     0.012 A 
ENDBRANCH  26  27
ENDBRANCH   4  26
BRANCH  11  36
HETATM   36  C   UNL     1      39.619 -10.249   1.502  1.00  0.00     0.252 C 
HETATM   37  N   UNL     1      40.272 -11.345   0.974  1.00  0.00    -0.352 N 
HETATM   38  H   UNL     1      40.700 -12.017   1.599  1.00  0.00     0.163 HD
HETATM   39  O   UNL     1      38.876  -9.520   0.855  1.00  0.00    -0.268 OA
BRANCH  37  40
HETATM   40  C   UNL     1      40.074 -11.779  -0.407  1.00  0.00     0.084 C 
HETATM   41  C   UNL     1      41.367 -12.377  -0.973  1.00  0.00     0.025 C 
HETATM   42  C   UNL     1      41.703 -13.745  -0.379  1.00  0.00     0.002 C 
HETATM   43  C   UNL     1      40.533 -14.714  -0.502  1.00  0.00     0.000 C 
HETATM   44  C   UNL     1      39.255 -14.140   0.103  1.00  0.00     0.002 C 
HETATM   45  C   UNL     1      38.910 -12.774  -0.495  1.00  0.00     0.025 C 
ENDBRANCH  37  40
ENDBRANCH  11  36
TORSDOF 8
ENDMDL
