MODEL 1
REMARK VINA RESULT:      -8.5      0.000      0.000
REMARK  5 active torsions:
REMARK  status: ('A' for Active; 'I' for Inactive)
REMARK    1  A    between atoms: C_4  and  O_5 
REMARK    2  A    between atoms: O_5  and  C_6 
REMARK    3  A    between atoms: C_6  and  C_7 
REMARK       I    between atoms: C_7  and  N_8 
REMARK    4  A    between atoms: N_8  and  N_9 
REMARK    5  A    between atoms: C_10  and  C_11 
ROOT
HETATM    1  C   UNL     1      42.579 -13.954   2.480  1.00  0.00     0.261 C 
HETATM    2  N   UNL     1      42.103 -15.249   2.649  1.00  0.00    -0.246 N 
HETATM    3  O   UNL     1      43.559 -13.457   3.031  1.00  0.00    -0.269 OA
HETATM    4  H   UNL     1      41.373 -15.555   2.007  1.00  0.00     0.192 HD
ENDROOT
BRANCH   2   5
HETATM    5  N   UNL     1      42.655 -16.264   3.391  1.00  0.00    -0.184 NA
HETATM    6  C   UNL     1      43.286 -17.227   2.800  1.00  0.00     0.152 C 
BRANCH   6   7
HETATM    7  C   UNL     1      43.833 -18.314   3.591  1.00  0.00     0.011 A 
HETATM    8  C   UNL     1      43.993 -19.676   3.175  1.00  0.00     0.004 A 
HETATM    9  C   UNL     1      44.549 -20.379   4.245  1.00  0.00     0.043 A 
HETATM   10  C   UNL     1      43.703 -20.382   1.987  1.00  0.00     0.014 A 
HETATM   11  C   UNL     1      44.833 -21.749   4.186  1.00  0.00     0.030 A 
HETATM   12  N   UNL     1      44.725 -19.479   5.271  1.00  0.00    -0.364 N 
HETATM   13  C   UNL     1      44.533 -22.423   2.998  1.00  0.00     0.002 A 
HETATM   14  C   UNL     1      43.977 -21.752   1.913  1.00  0.00     0.001 A 
HETATM   15  H   UNL     1      45.113 -19.711   6.175  1.00  0.00     0.165 HD
HETATM   16  C   UNL     1      44.290 -18.238   4.893  1.00  0.00     0.102 A 
ENDBRANCH   6   7
ENDBRANCH   2   5
BRANCH   1  17
HETATM   17  C   UNL     1      41.691 -13.114   1.566  1.00  0.00     0.280 C 
BRANCH  17  18
HETATM   18  O   UNL     1      42.473 -12.268   0.726  1.00  0.00    -0.342 OA
BRANCH  18  19
HETATM   19  C   UNL     1      42.321 -12.511  -0.617  1.00  0.00     0.075 A 
HETATM   20  C   UNL     1      41.755 -13.688  -1.124  1.00  0.00     0.044 A 
HETATM   21  C   UNL     1      41.623 -13.881  -2.505  1.00  0.00    -0.059 A 
HETATM   22  C   UNL     1      40.977 -15.121  -3.048  1.00  0.00     0.048 C 
HETATM   23  C   UNL     1      42.059 -12.880  -3.376  1.00  0.00     0.007 A 
HETATM   24  C   UNL     1      42.648 -11.716  -2.876  1.00  0.00     0.010 A 
HETATM   25  C   UNL     1      42.797 -11.526  -1.495  1.00  0.00    -0.029 A 
HETATM   26  C   UNL     1      43.413 -10.257  -0.978  1.00  0.00     0.051 C 
ENDBRANCH  18  19
ENDBRANCH  17  18
ENDBRANCH   1  17
TORSDOF 5
ENDMDL
MODEL 2
REMARK VINA RESULT:      -8.5      6.037      8.528
REMARK  5 active torsions:
REMARK  status: ('A' for Active; 'I' for Inactive)
REMARK    1  A    between atoms: C_4  and  O_5 
REMARK    2  A    between atoms: O_5  and  C_6 
REMARK    3  A    between atoms: C_6  and  C_7 
REMARK       I    between atoms: C_7  and  N_8 
REMARK    4  A    between atoms: N_8  and  N_9 
REMARK    5  A    between atoms: C_10  and  C_11 
ROOT
HETATM    1  C   UNL     1      45.003 -13.285   7.639  1.00  0.00     0.261 C 
HETATM    2  N   UNL     1      43.913 -14.056   7.257  1.00  0.00    -0.246 N 
HETATM    3  O   UNL     1      46.049 -13.132   7.010  1.00  0.00    -0.269 OA
HETATM    4  H   UNL     1      43.065 -13.958   7.815  1.00  0.00     0.192 HD
ENDROOT
BRANCH   2   5
HETATM    5  N   UNL     1      43.730 -14.742   6.081  1.00  0.00    -0.184 NA
HETATM    6  C   UNL     1      43.520 -16.019   6.103  1.00  0.00     0.152 C 
BRANCH   6   7
HETATM    7  C   UNL     1      43.365 -16.739   4.853  1.00  0.00     0.011 A 
HETATM    8  C   UNL     1      43.881 -18.040   4.548  1.00  0.00     0.004 A 
HETATM    9  C   UNL     1      43.503 -18.345   3.239  1.00  0.00     0.043 A 
HETATM   10  C   UNL     1      44.650 -18.985   5.262  1.00  0.00     0.014 A 
HETATM   11  C   UNL     1      43.852 -19.547   2.611  1.00  0.00     0.030 A 
HETATM   12  N   UNL     1      42.781 -17.274   2.768  1.00  0.00    -0.364 N 
HETATM   13  C   UNL     1      44.616 -20.463   3.340  1.00  0.00     0.002 A 
HETATM   14  C   UNL     1      45.010 -20.190   4.646  1.00  0.00     0.001 A 
HETATM   15  H   UNL     1      42.378 -17.217   1.842  1.00  0.00     0.165 HD
HETATM   16  C   UNL     1      42.698 -16.299   3.725  1.00  0.00     0.102 A 
ENDBRANCH   6   7
ENDBRANCH   2   5
BRANCH   1  17
HETATM   17  C   UNL     1      44.833 -12.667   9.024  1.00  0.00     0.280 C 
BRANCH  17  18
HETATM   18  O   UNL     1      44.707 -11.249   8.943  1.00  0.00    -0.342 OA
BRANCH  18  19
HETATM   19  C   UNL     1      43.803 -10.711   9.825  1.00  0.00     0.075 A 
HETATM   20  C   UNL     1      44.110 -10.441  11.166  1.00  0.00     0.044 A 
HETATM   21  C   UNL     1      43.148  -9.888  12.022  1.00  0.00    -0.059 A 
HETATM   22  C   UNL     1      43.488  -9.557  13.445  1.00  0.00     0.048 C 
HETATM   23  C   UNL     1      41.876  -9.603  11.521  1.00  0.00     0.007 A 
HETATM   24  C   UNL     1      41.558  -9.895  10.193  1.00  0.00     0.010 A 
HETATM   25  C   UNL     1      42.511 -10.464   9.337  1.00  0.00    -0.029 A 
HETATM   26  C   UNL     1      42.155 -10.749   7.906  1.00  0.00     0.051 C 
ENDBRANCH  18  19
ENDBRANCH  17  18
ENDBRANCH   1  17
TORSDOF 5
ENDMDL
MODEL 3
REMARK VINA RESULT:      -8.4      2.265      2.872
REMARK  5 active torsions:
REMARK  status: ('A' for Active; 'I' for Inactive)
REMARK    1  A    between atoms: C_4  and  O_5 
REMARK    2  A    between atoms: O_5  and  C_6 
REMARK    3  A    between atoms: C_6  and  C_7 
REMARK       I    between atoms: C_7  and  N_8 
REMARK    4  A    between atoms: N_8  and  N_9 
REMARK    5  A    between atoms: C_10  and  C_11 
ROOT
HETATM    1  C   UNL     1      39.327 -14.965   2.177  1.00  0.00     0.261 C 
HETATM    2  N   UNL     1      39.856 -16.202   1.831  1.00  0.00    -0.246 N 
HETATM    3  O   UNL     1      39.482 -14.375   3.245  1.00  0.00    -0.269 OA
HETATM    4  H   UNL     1      39.760 -16.483   0.856  1.00  0.00     0.192 HD
ENDROOT
BRANCH   2   5
HETATM    5  N   UNL     1      40.716 -16.989   2.556  1.00  0.00    -0.184 NA
HETATM    6  C   UNL     1      41.965 -16.664   2.653  1.00  0.00     0.152 C 
BRANCH   6   7
HETATM    7  C   UNL     1      42.872 -17.523   3.391  1.00  0.00     0.011 A 
HETATM    8  C   UNL     1      43.315 -18.829   3.004  1.00  0.00     0.004 A 
HETATM    9  C   UNL     1      44.172 -19.295   4.003  1.00  0.00     0.043 A 
HETATM   10  C   UNL     1      43.056 -19.668   1.899  1.00  0.00     0.014 A 
HETATM   11  C   UNL     1      44.784 -20.553   3.950  1.00  0.00     0.030 A 
HETATM   12  N   UNL     1      44.251 -18.308   4.958  1.00  0.00    -0.364 N 
HETATM   13  C   UNL     1      44.506 -21.364   2.845  1.00  0.00     0.002 A 
HETATM   14  C   UNL     1      43.655 -20.931   1.833  1.00  0.00     0.001 A 
HETATM   15  H   UNL     1      44.805 -18.371   5.802  1.00  0.00     0.165 HD
HETATM   16  C   UNL     1      43.468 -17.243   4.606  1.00  0.00     0.102 A 
ENDBRANCH   6   7
ENDBRANCH   2   5
BRANCH   1  17
HETATM   17  C   UNL     1      38.412 -14.392   1.099  1.00  0.00     0.280 C 
BRANCH  17  18
HETATM   18  O   UNL     1      39.139 -13.563   0.195  1.00  0.00    -0.342 OA
BRANCH  18  19
HETATM   19  C   UNL     1      39.200 -14.045  -1.090  1.00  0.00     0.075 A 
HETATM   20  C   UNL     1      38.078 -14.144  -1.924  1.00  0.00     0.044 A 
HETATM   21  C   UNL     1      38.199 -14.642  -3.228  1.00  0.00    -0.059 A 
HETATM   22  C   UNL     1      37.008 -14.707  -4.137  1.00  0.00     0.048 C 
HETATM   23  C   UNL     1      39.457 -15.035  -3.691  1.00  0.00     0.007 A 
HETATM   24  C   UNL     1      40.573 -14.962  -2.855  1.00  0.00     0.010 A 
HETATM   25  C   UNL     1      40.454 -14.481  -1.543  1.00  0.00    -0.029 A 
HETATM   26  C   UNL     1      41.670 -14.390  -0.668  1.00  0.00     0.051 C 
ENDBRANCH  18  19
ENDBRANCH  17  18
ENDBRANCH   1  17
TORSDOF 5
ENDMDL
MODEL 4
REMARK VINA RESULT:      -8.3      0.799      2.051
REMARK  5 active torsions:
REMARK  status: ('A' for Active; 'I' for Inactive)
REMARK    1  A    between atoms: C_4  and  O_5 
REMARK    2  A    between atoms: O_5  and  C_6 
REMARK    3  A    between atoms: C_6  and  C_7 
REMARK       I    between atoms: C_7  and  N_8 
REMARK    4  A    between atoms: N_8  and  N_9 
REMARK    5  A    between atoms: C_10  and  C_11 
ROOT
HETATM    1  C   UNL     1      42.939 -13.846   2.760  1.00  0.00     0.261 C 
HETATM    2  N   UNL     1      42.594 -15.168   2.510  1.00  0.00    -0.246 N 
HETATM    3  O   UNL     1      43.913 -13.452   3.400  1.00  0.00    -0.269 OA
HETATM    4  H   UNL     1      41.844 -15.325   1.837  1.00  0.00     0.192 HD
ENDROOT
BRANCH   2   5
HETATM    5  N   UNL     1      43.289 -16.304   2.844  1.00  0.00    -0.184 NA
HETATM    6  C   UNL     1      42.855 -17.073   3.790  1.00  0.00     0.152 C 
BRANCH   6   7
HETATM    7  C   UNL     1      43.617 -18.251   4.160  1.00  0.00     0.011 A 
HETATM    8  C   UNL     1      43.750 -19.456   3.397  1.00  0.00     0.004 A 
HETATM    9  C   UNL     1      44.564 -20.326   4.124  1.00  0.00     0.043 A 
HETATM   10  C   UNL     1      43.240 -19.895   2.156  1.00  0.00     0.014 A 
HETATM   11  C   UNL     1      44.896 -21.609   3.672  1.00  0.00     0.030 A 
HETATM   12  N   UNL     1      44.918 -19.674   5.282  1.00  0.00    -0.364 N 
HETATM   13  C   UNL     1      44.375 -22.019   2.440  1.00  0.00     0.002 A 
HETATM   14  C   UNL     1      43.559 -21.177   1.691  1.00  0.00     0.001 A 
HETATM   15  H   UNL     1      45.507 -20.067   6.004  1.00  0.00     0.165 HD
HETATM   16  C   UNL     1      44.348 -18.430   5.319  1.00  0.00     0.102 A 
ENDBRANCH   6   7
ENDBRANCH   2   5
BRANCH   1  17
HETATM   17  C   UNL     1      41.912 -12.856   2.221  1.00  0.00     0.280 C 
BRANCH  17  18
HETATM   18  O   UNL     1      41.268 -13.367   1.056  1.00  0.00    -0.342 OA
BRANCH  18  19
HETATM   19  C   UNL     1      41.776 -12.888  -0.127  1.00  0.00     0.075 A 
HETATM   20  C   UNL     1      42.395 -11.636  -0.242  1.00  0.00     0.044 A 
HETATM   21  C   UNL     1      42.899 -11.199  -1.475  1.00  0.00    -0.059 A 
HETATM   22  C   UNL     1      43.602  -9.879  -1.591  1.00  0.00     0.048 C 
HETATM   23  C   UNL     1      42.779 -12.030  -2.591  1.00  0.00     0.007 A 
HETATM   24  C   UNL     1      42.139 -13.267  -2.486  1.00  0.00     0.010 A 
HETATM   25  C   UNL     1      41.619 -13.701  -1.258  1.00  0.00    -0.029 A 
HETATM   26  C   UNL     1      40.954 -15.045  -1.162  1.00  0.00     0.051 C 
ENDBRANCH  18  19
ENDBRANCH  17  18
ENDBRANCH   1  17
TORSDOF 5
ENDMDL
MODEL 5
REMARK VINA RESULT:      -8.0      2.108      8.809
REMARK  5 active torsions:
REMARK  status: ('A' for Active; 'I' for Inactive)
REMARK    1  A    between atoms: C_4  and  O_5 
REMARK    2  A    between atoms: O_5  and  C_6 
REMARK    3  A    between atoms: C_6  and  C_7 
REMARK       I    between atoms: C_7  and  N_8 
REMARK    4  A    between atoms: N_8  and  N_9 
REMARK    5  A    between atoms: C_10  and  C_11 
ROOT
HETATM    1  C   UNL     1      41.473 -16.080   2.654  1.00  0.00     0.261 C 
HETATM    2  N   UNL     1      41.428 -16.372   1.297  1.00  0.00    -0.246 N 
HETATM    3  O   UNL     1      41.245 -14.991   3.177  1.00  0.00    -0.269 OA
HETATM    4  H   UNL     1      41.494 -17.356   1.038  1.00  0.00     0.192 HD
ENDROOT
BRANCH   2   5
HETATM    5  N   UNL     1      41.049 -15.549   0.265  1.00  0.00    -0.184 NA
HETATM    6  C   UNL     1      41.311 -15.881  -0.958  1.00  0.00     0.152 C 
BRANCH   6   7
HETATM    7  C   UNL     1      40.939 -14.987  -2.037  1.00  0.00     0.011 A 
HETATM    8  C   UNL     1      41.501 -13.697  -2.310  1.00  0.00     0.004 A 
HETATM    9  C   UNL     1      40.849 -13.184  -3.432  1.00  0.00     0.043 A 
HETATM   10  C   UNL     1      42.498 -12.910  -1.695  1.00  0.00     0.014 A 
HETATM   11  C   UNL     1      41.146 -11.926  -3.972  1.00  0.00     0.030 A 
HETATM   12  N   UNL     1      39.930 -14.127  -3.831  1.00  0.00    -0.364 N 
HETATM   13  C   UNL     1      42.137 -11.167  -3.341  1.00  0.00     0.002 A 
HETATM   14  C   UNL     1      42.804 -11.649  -2.219  1.00  0.00     0.001 A 
HETATM   15  H   UNL     1      39.311 -14.023  -4.624  1.00  0.00     0.165 HD
HETATM   16  C   UNL     1      39.968 -15.210  -2.996  1.00  0.00     0.102 A 
ENDBRANCH   6   7
ENDBRANCH   2   5
BRANCH   1  17
HETATM   17  C   UNL     1      41.939 -17.264   3.497  1.00  0.00     0.280 C 
BRANCH  17  18
HETATM   18  O   UNL     1      43.359 -17.385   3.473  1.00  0.00    -0.342 OA
BRANCH  18  19
HETATM   19  C   UNL     1      43.817 -18.678   3.537  1.00  0.00     0.075 A 
HETATM   20  C   UNL     1      43.675 -19.593   2.485  1.00  0.00     0.044 A 
HETATM   21  C   UNL     1      44.165 -20.900   2.604  1.00  0.00    -0.059 A 
HETATM   22  C   UNL     1      44.054 -21.867   1.463  1.00  0.00     0.048 C 
HETATM   23  C   UNL     1      44.803 -21.282   3.787  1.00  0.00     0.007 A 
HETATM   24  C   UNL     1      44.923 -20.382   4.848  1.00  0.00     0.010 A 
HETATM   25  C   UNL     1      44.419 -19.078   4.739  1.00  0.00    -0.029 A 
HETATM   26  C   UNL     1      44.579 -18.118   5.884  1.00  0.00     0.051 C 
ENDBRANCH  18  19
ENDBRANCH  17  18
ENDBRANCH   1  17
TORSDOF 5
ENDMDL
MODEL 6
REMARK VINA RESULT:      -7.9      3.062      9.413
REMARK  5 active torsions:
REMARK  status: ('A' for Active; 'I' for Inactive)
REMARK    1  A    between atoms: C_4  and  O_5 
REMARK    2  A    between atoms: O_5  and  C_6 
REMARK    3  A    between atoms: C_6  and  C_7 
REMARK       I    between atoms: C_7  and  N_8 
REMARK    4  A    between atoms: N_8  and  N_9 
REMARK    5  A    between atoms: C_10  and  C_11 
ROOT
HETATM    1  C   UNL     1      42.053 -17.053   0.732  1.00  0.00     0.261 C 
HETATM    2  N   UNL     1      42.122 -15.853   0.035  1.00  0.00    -0.246 N 
HETATM    3  O   UNL     1      41.031 -17.628   1.101  1.00  0.00    -0.269 OA
HETATM    4  H   UNL     1      43.037 -15.587  -0.329  1.00  0.00     0.192 HD
ENDROOT
BRANCH   2   5
HETATM    5  N   UNL     1      41.086 -15.098  -0.458  1.00  0.00    -0.184 NA
HETATM    6  C   UNL     1      41.311 -14.203  -1.365  1.00  0.00     0.152 C 
BRANCH   6   7
HETATM    7  C   UNL     1      40.215 -13.386  -1.851  1.00  0.00     0.011 A 
HETATM    8  C   UNL     1      39.117 -13.825  -2.660  1.00  0.00     0.004 A 
HETATM    9  C   UNL     1      38.303 -12.717  -2.898  1.00  0.00     0.043 A 
HETATM   10  C   UNL     1      38.745 -15.065  -3.225  1.00  0.00     0.014 A 
HETATM   11  C   UNL     1      37.135 -12.786  -3.670  1.00  0.00     0.030 A 
HETATM   12  N   UNL     1      38.879 -11.647  -2.256  1.00  0.00    -0.364 N 
HETATM   13  C   UNL     1      36.793 -14.026  -4.219  1.00  0.00     0.002 A 
HETATM   14  C   UNL     1      37.584 -15.150  -4.001  1.00  0.00     0.001 A 
HETATM   15  H   UNL     1      38.504 -10.708  -2.257  1.00  0.00     0.165 HD
HETATM   16  C   UNL     1      40.033 -12.035  -1.630  1.00  0.00     0.102 A 
ENDBRANCH   6   7
ENDBRANCH   2   5
BRANCH   1  17
HETATM   17  C   UNL     1      43.429 -17.598   1.104  1.00  0.00     0.280 C 
BRANCH  17  18
HETATM   18  O   UNL     1      43.374 -18.998   1.366  1.00  0.00    -0.342 OA
BRANCH  18  19
HETATM   19  C   UNL     1      43.853 -19.361   2.601  1.00  0.00     0.075 A 
HETATM   20  C   UNL     1      43.993 -18.459   3.663  1.00  0.00     0.044 A 
HETATM   21  C   UNL     1      44.486 -18.886   4.904  1.00  0.00    -0.059 A 
HETATM   22  C   UNL     1      44.595 -17.931   6.055  1.00  0.00     0.048 C 
HETATM   23  C   UNL     1      44.835 -20.228   5.071  1.00  0.00     0.007 A 
HETATM   24  C   UNL     1      44.721 -21.126   4.007  1.00  0.00     0.010 A 
HETATM   25  C   UNL     1      44.244 -20.699   2.759  1.00  0.00    -0.029 A 
HETATM   26  C   UNL     1      44.109 -21.685   1.634  1.00  0.00     0.051 C 
ENDBRANCH  18  19
ENDBRANCH  17  18
ENDBRANCH   1  17
TORSDOF 5
ENDMDL
MODEL 7
REMARK VINA RESULT:      -7.7      7.660     11.079
REMARK  5 active torsions:
REMARK  status: ('A' for Active; 'I' for Inactive)
REMARK    1  A    between atoms: C_4  and  O_5 
REMARK    2  A    between atoms: O_5  and  C_6 
REMARK    3  A    between atoms: C_6  and  C_7 
REMARK       I    between atoms: C_7  and  N_8 
REMARK    4  A    between atoms: N_8  and  N_9 
REMARK    5  A    between atoms: C_10  and  C_11 
ROOT
HETATM    1  C   UNL     1      44.773 -13.012   8.205  1.00  0.00     0.261 C 
HETATM    2  N   UNL     1      43.689 -12.155   8.068  1.00  0.00    -0.246 N 
HETATM    3  O   UNL     1      45.721 -12.876   8.976  1.00  0.00    -0.269 OA
HETATM    4  H   UNL     1      42.913 -12.486   7.495  1.00  0.00     0.192 HD
ENDROOT
BRANCH   2   5
HETATM    5  N   UNL     1      43.399 -11.030   8.801  1.00  0.00    -0.184 NA
HETATM    6  C   UNL     1      42.248 -10.915   9.382  1.00  0.00     0.152 C 
BRANCH   6   7
HETATM    7  C   UNL     1      41.939  -9.707  10.123  1.00  0.00     0.011 A 
HETATM    8  C   UNL     1      42.361  -9.392  11.456  1.00  0.00     0.004 A 
HETATM    9  C   UNL     1      41.837  -8.139  11.776  1.00  0.00     0.043 A 
HETATM   10  C   UNL     1      43.131 -10.065  12.428  1.00  0.00     0.014 A 
HETATM   11  C   UNL     1      42.047  -7.524  13.017  1.00  0.00     0.030 A 
HETATM   12  N   UNL     1      41.129  -7.705  10.680  1.00  0.00    -0.364 N 
HETATM   13  C   UNL     1      42.812  -8.215  13.962  1.00  0.00     0.002 A 
HETATM   14  C   UNL     1      43.347  -9.467  13.675  1.00  0.00     0.001 A 
HETATM   15  H   UNL     1      40.638  -6.822  10.627  1.00  0.00     0.165 HD
HETATM   16  C   UNL     1      41.176  -8.642   9.684  1.00  0.00     0.102 A 
ENDBRANCH   6   7
ENDBRANCH   2   5
BRANCH   1  17
HETATM   17  C   UNL     1      44.742 -14.166   7.207  1.00  0.00     0.280 C 
BRANCH  17  18
HETATM   18  O   UNL     1      43.453 -14.297   6.612  1.00  0.00    -0.342 OA
BRANCH  18  19
HETATM   19  C   UNL     1      43.144 -15.572   6.208  1.00  0.00     0.075 A 
HETATM   20  C   UNL     1      44.081 -16.613   6.174  1.00  0.00     0.044 A 
HETATM   21  C   UNL     1      43.709 -17.897   5.755  1.00  0.00    -0.059 A 
HETATM   22  C   UNL     1      44.701 -19.023   5.761  1.00  0.00     0.048 C 
HETATM   23  C   UNL     1      42.386 -18.131   5.372  1.00  0.00     0.007 A 
HETATM   24  C   UNL     1      41.455 -17.090   5.379  1.00  0.00     0.010 A 
HETATM   25  C   UNL     1      41.826 -15.800   5.782  1.00  0.00    -0.029 A 
HETATM   26  C   UNL     1      40.804 -14.700   5.803  1.00  0.00     0.051 C 
ENDBRANCH  18  19
ENDBRANCH  17  18
ENDBRANCH   1  17
TORSDOF 5
ENDMDL
MODEL 8
REMARK VINA RESULT:      -7.7      2.639      8.505
REMARK  5 active torsions:
REMARK  status: ('A' for Active; 'I' for Inactive)
REMARK    1  A    between atoms: C_4  and  O_5 
REMARK    2  A    between atoms: O_5  and  C_6 
REMARK    3  A    between atoms: C_6  and  C_7 
REMARK       I    between atoms: C_7  and  N_8 
REMARK    4  A    between atoms: N_8  and  N_9 
REMARK    5  A    between atoms: C_10  and  C_11 
ROOT
HETATM    1  C   UNL     1      41.682 -16.479   4.377  1.00  0.00     0.261 C 
HETATM    2  N   UNL     1      41.109 -16.812   3.156  1.00  0.00    -0.246 N 
HETATM    3  O   UNL     1      41.544 -15.419   4.986  1.00  0.00    -0.269 OA
HETATM    4  H   UNL     1      41.199 -17.783   2.858  1.00  0.00     0.192 HD
ENDROOT
BRANCH   2   5
HETATM    5  N   UNL     1      40.217 -16.081   2.410  1.00  0.00    -0.184 NA
HETATM    6  C   UNL     1      40.641 -15.335   1.441  1.00  0.00     0.152 C 
BRANCH   6   7
HETATM    7  C   UNL     1      39.693 -14.539   0.684  1.00  0.00     0.011 A 
HETATM    8  C   UNL     1      39.730 -14.279  -0.724  1.00  0.00     0.004 A 
HETATM    9  C   UNL     1      38.636 -13.469  -1.030  1.00  0.00     0.043 A 
HETATM   10  C   UNL     1      40.605 -14.647  -1.769  1.00  0.00     0.014 A 
HETATM   11  C   UNL     1      38.370 -13.012  -2.327  1.00  0.00     0.030 A 
HETATM   12  N   UNL     1      37.956 -13.249   0.145  1.00  0.00    -0.364 N 
HETATM   13  C   UNL     1      39.254 -13.390  -3.342  1.00  0.00     0.002 A 
HETATM   14  C   UNL     1      40.356 -14.196  -3.071  1.00  0.00     0.001 A 
HETATM   15  H   UNL     1      37.116 -12.692   0.226  1.00  0.00     0.165 HD
HETATM   16  C   UNL     1      38.586 -13.880   1.183  1.00  0.00     0.102 A 
ENDBRANCH   6   7
ENDBRANCH   2   5
BRANCH   1  17
HETATM   17  C   UNL     1      42.623 -17.560   4.901  1.00  0.00     0.280 C 
BRANCH  17  18
HETATM   18  O   UNL     1      43.749 -17.721   4.043  1.00  0.00    -0.342 OA
BRANCH  18  19
HETATM   19  C   UNL     1      44.011 -19.023   3.693  1.00  0.00     0.075 A 
HETATM   20  C   UNL     1      44.448 -19.989   4.609  1.00  0.00     0.044 A 
HETATM   21  C   UNL     1      44.697 -21.305   4.196  1.00  0.00    -0.059 A 
HETATM   22  C   UNL     1      45.123 -22.350   5.183  1.00  0.00     0.048 C 
HETATM   23  C   UNL     1      44.500 -21.645   2.855  1.00  0.00     0.007 A 
HETATM   24  C   UNL     1      44.088 -20.679   1.934  1.00  0.00     0.010 A 
HETATM   25  C   UNL     1      43.854 -19.358   2.340  1.00  0.00    -0.029 A 
HETATM   26  C   UNL     1      43.391 -18.340   1.337  1.00  0.00     0.051 C 
ENDBRANCH  18  19
ENDBRANCH  17  18
ENDBRANCH   1  17
TORSDOF 5
ENDMDL
MODEL 9
REMARK VINA RESULT:      -7.7      6.185      8.709
REMARK  5 active torsions:
REMARK  status: ('A' for Active; 'I' for Inactive)
REMARK    1  A    between atoms: C_4  and  O_5 
REMARK    2  A    between atoms: O_5  and  C_6 
REMARK    3  A    between atoms: C_6  and  C_7 
REMARK       I    between atoms: C_7  and  N_8 
REMARK    4  A    between atoms: N_8  and  N_9 
REMARK    5  A    between atoms: C_10  and  C_11 
ROOT
HETATM    1  C   UNL     1      41.506 -11.478   6.572  1.00  0.00     0.261 C 
HETATM    2  N   UNL     1      42.276 -12.633   6.634  1.00  0.00    -0.246 N 
HETATM    3  O   UNL     1      40.726 -11.165   5.675  1.00  0.00    -0.269 OA
HETATM    4  H   UNL     1      42.757 -12.815   7.515  1.00  0.00     0.192 HD
ENDROOT
BRANCH   2   5
HETATM    5  N   UNL     1      42.279 -13.697   5.767  1.00  0.00    -0.184 NA
HETATM    6  C   UNL     1      43.194 -14.608   5.863  1.00  0.00     0.152 C 
BRANCH   6   7
HETATM    7  C   UNL     1      43.208 -15.709   4.918  1.00  0.00     0.011 A 
HETATM    8  C   UNL     1      43.746 -17.018   5.141  1.00  0.00     0.004 A 
HETATM    9  C   UNL     1      43.554 -17.755   3.971  1.00  0.00     0.043 A 
HETATM   10  C   UNL     1      44.394 -17.642   6.228  1.00  0.00     0.014 A 
HETATM   11  C   UNL     1      43.973 -19.084   3.836  1.00  0.00     0.030 A 
HETATM   12  N   UNL     1      42.918 -16.929   3.074  1.00  0.00    -0.364 N 
HETATM   13  C   UNL     1      44.615 -19.677   4.929  1.00  0.00     0.002 A 
HETATM   14  C   UNL     1      44.824 -18.969   6.108  1.00  0.00     0.001 A 
HETATM   15  H   UNL     1      42.652 -17.199   2.136  1.00  0.00     0.165 HD
HETATM   16  C   UNL     1      42.713 -15.695   3.628  1.00  0.00     0.102 A 
ENDBRANCH   6   7
ENDBRANCH   2   5
BRANCH   1  17
HETATM   17  C   UNL     1      41.780 -10.524   7.732  1.00  0.00     0.280 C 
BRANCH  17  18
HETATM   18  O   UNL     1      42.990 -10.865   8.403  1.00  0.00    -0.342 OA
BRANCH  18  19
HETATM   19  C   UNL     1      42.973 -10.626   9.755  1.00  0.00     0.075 A 
HETATM   20  C   UNL     1      41.801 -10.333  10.466  1.00  0.00     0.044 A 
HETATM   21  C   UNL     1      41.842 -10.100  11.847  1.00  0.00    -0.059 A 
HETATM   22  C   UNL     1      40.584  -9.830  12.617  1.00  0.00     0.048 C 
HETATM   23  C   UNL     1      43.069 -10.168  12.512  1.00  0.00     0.007 A 
HETATM   24  C   UNL     1      44.243 -10.433  11.803  1.00  0.00     0.010 A 
HETATM   25  C   UNL     1      44.209 -10.650  10.418  1.00  0.00    -0.029 A 
HETATM   26  C   UNL     1      45.480 -10.957   9.679  1.00  0.00     0.051 C 
ENDBRANCH  18  19
ENDBRANCH  17  18
ENDBRANCH   1  17
TORSDOF 5
ENDMDL
MODEL 10
REMARK VINA RESULT:      -7.5      2.343      8.942
REMARK  5 active torsions:
REMARK  status: ('A' for Active; 'I' for Inactive)
REMARK    1  A    between atoms: C_4  and  O_5 
REMARK    2  A    between atoms: O_5  and  C_6 
REMARK    3  A    between atoms: C_6  and  C_7 
REMARK       I    between atoms: C_7  and  N_8 
REMARK    4  A    between atoms: N_8  and  N_9 
REMARK    5  A    between atoms: C_10  and  C_11 
ROOT
HETATM    1  C   UNL     1      40.765 -15.561   2.895  1.00  0.00     0.261 C 
HETATM    2  N   UNL     1      41.018 -15.899   1.572  1.00  0.00    -0.246 N 
HETATM    3  O   UNL     1      40.290 -14.502   3.302  1.00  0.00    -0.269 OA
HETATM    4  H   UNL     1      41.272 -16.870   1.389  1.00  0.00     0.192 HD
ENDROOT
BRANCH   2   5
HETATM    5  N   UNL     1      40.725 -15.177   0.441  1.00  0.00    -0.184 NA
HETATM    6  C   UNL     1      41.213 -15.539  -0.702  1.00  0.00     0.152 C 
BRANCH   6   7
HETATM    7  C   UNL     1      40.927 -14.747  -1.883  1.00  0.00     0.011 A 
HETATM    8  C   UNL     1      41.517 -13.488  -2.230  1.00  0.00     0.004 A 
HETATM    9  C   UNL     1      40.953 -13.080  -3.440  1.00  0.00     0.043 A 
HETATM   10  C   UNL     1      42.471 -12.647  -1.617  1.00  0.00     0.014 A 
HETATM   11  C   UNL     1      41.298 -11.877  -4.069  1.00  0.00     0.030 A 
HETATM   12  N   UNL     1      40.060 -14.055  -3.818  1.00  0.00    -0.364 N 
HETATM   13  C   UNL     1      42.244 -11.062  -3.438  1.00  0.00     0.002 A 
HETATM   14  C   UNL     1      42.824 -11.439  -2.230  1.00  0.00     0.001 A 
HETATM   15  H   UNL     1      39.502 -14.025  -4.661  1.00  0.00     0.165 HD
HETATM   16  C   UNL     1      40.029 -15.057  -2.887  1.00  0.00     0.102 A 
ENDBRANCH   6   7
ENDBRANCH   2   5
BRANCH   1  17
HETATM   17  C   UNL     1      41.229 -16.633   3.877  1.00  0.00     0.280 C 
BRANCH  17  18
HETATM   18  O   UNL     1      41.806 -17.742   3.193  1.00  0.00    -0.342 OA
BRANCH  18  19
HETATM   19  C   UNL     1      42.717 -18.452   3.935  1.00  0.00     0.075 A 
HETATM   20  C   UNL     1      42.786 -18.384   5.333  1.00  0.00     0.044 A 
HETATM   21  C   UNL     1      43.736 -19.133   6.039  1.00  0.00    -0.059 A 
HETATM   22  C   UNL     1      43.781 -19.095   7.538  1.00  0.00     0.048 C 
HETATM   23  C   UNL     1      44.615 -19.957   5.332  1.00  0.00     0.007 A 
HETATM   24  C   UNL     1      44.567 -20.008   3.937  1.00  0.00     0.010 A 
HETATM   25  C   UNL     1      43.630 -19.247   3.225  1.00  0.00    -0.029 A 
HETATM   26  C   UNL     1      43.581 -19.334   1.726  1.00  0.00     0.051 C 
ENDBRANCH  18  19
ENDBRANCH  17  18
ENDBRANCH   1  17
TORSDOF 5
ENDMDL
