MODEL 1
REMARK VINA RESULT:      -8.9      0.000      0.000
REMARK  10 active torsions:
REMARK  status: ('A' for Active; 'I' for Inactive)
REMARK    1  A    between atoms: C_2  and  N_3 
REMARK    2  A    between atoms: N_3  and  N_4 
REMARK       I    between atoms: N_4  and  C_5 
REMARK    3  A    between atoms: C_5  and  C_6 
REMARK    4  A    between atoms: C_9  and  N_10 
REMARK    5  A    between atoms: C_14  and  C_15 
REMARK       I    between atoms: C_15  and  N_16 
REMARK    6  A    between atoms: N_16  and  C_17 
REMARK    7  A    between atoms: C_17  and  C_18 
REMARK    8  A    between atoms: C_18  and  C_19 
REMARK    9  A    between atoms: C_21  and  O_22 
REMARK   10  A    between atoms: C_24  and  O_25 
ROOT
HETATM    1  C   UNL     1      46.380 -12.475   8.048  1.00  0.00     0.063 C 
HETATM    2  C   UNL     1      45.143 -13.313   7.822  1.00  0.00     0.007 C 
HETATM    3  C   UNL     1      45.000 -13.979   6.658  1.00  0.00     0.094 C 
ENDROOT
BRANCH   2   4
HETATM    4  N   UNL     1      44.251 -13.366   8.887  1.00  0.00    -0.207 NA
HETATM    5  H   UNL     1      43.383 -13.884   8.642  1.00  0.00     0.152 HD
BRANCH   4   6
HETATM    6  N   UNL     1      43.920 -12.179   9.577  1.00  0.00    -0.283 N 
HETATM    7  C   UNL     1      44.245 -12.142  10.927  1.00  0.00     0.266 C 
HETATM    8  O   UNL     1      44.984 -12.959  11.472  1.00  0.00    -0.266 OA
HETATM    9  H   UNL     1      43.094 -11.696   9.246  1.00  0.00     0.184 HD
BRANCH   7  10
HETATM   10  C   UNL     1      43.577 -11.083  11.732  1.00  0.00     0.033 A 
HETATM   11  C   UNL     1      43.563  -9.739  11.343  1.00  0.00     0.019 A 
HETATM   12  C   UNL     1      42.885  -8.793  12.121  1.00  0.00     0.024 A 
HETATM   13  C   UNL     1      42.258  -9.160  13.315  1.00  0.00     0.005 A 
HETATM   14  C   UNL     1      42.244 -10.508  13.677  1.00  0.00     0.024 A 
HETATM   15  C   UNL     1      42.919 -11.462  12.908  1.00  0.00     0.019 A 
BRANCH  13  16
HETATM   16  N   UNL     1      41.469  -8.237  14.009  1.00  0.00    -0.303 NA
HETATM   17  H   UNL     1      41.891  -7.318  14.099  1.00  0.00     0.124 HD
HETATM   18  H   UNL     1      41.120  -8.585  14.897  1.00  0.00     0.124 HD
ENDBRANCH  13  16
ENDBRANCH   7  10
ENDBRANCH   4   6
ENDBRANCH   2   4
BRANCH   3  19
HETATM   19  C   UNL     1      43.810 -14.820   6.379  1.00  0.00     0.242 C 
HETATM   20  N   UNL     1      43.562 -15.756   7.355  1.00  0.00    -0.357 N 
HETATM   21  H   UNL     1      44.200 -15.852   8.133  1.00  0.00     0.162 HD
HETATM   22  O   UNL     1      43.160 -14.704   5.349  1.00  0.00    -0.269 OA
BRANCH  20  23
HETATM   23  C   UNL     1      42.568 -16.803   7.154  1.00  0.00     0.127 C 
BRANCH  23  24
HETATM   24  C   UNL     1      43.181 -18.209   7.301  1.00  0.00     0.058 C 
BRANCH  24  25
HETATM   25  C   UNL     1      43.558 -18.898   6.008  1.00  0.00    -0.054 A 
HETATM   26  C   UNL     1      43.234 -18.328   4.768  1.00  0.00     0.046 A 
HETATM   27  C   UNL     1      43.635 -18.919   3.563  1.00  0.00     0.102 A 
HETATM   28  C   UNL     1      44.384 -20.110   3.591  1.00  0.00     0.101 A 
HETATM   29  C   UNL     1      44.729 -20.672   4.825  1.00  0.00     0.040 A 
HETATM   30  C   UNL     1      44.323 -20.068   6.021  1.00  0.00     0.010 A 
BRANCH  27  31
HETATM   31  O   UNL     1      43.335 -18.413   2.322  1.00  0.00    -0.353 OA
HETATM   32  C   UNL     1      44.040 -17.245   1.915  1.00  0.00     0.210 C 
ENDBRANCH  27  31
BRANCH  28  33
HETATM   33  O   UNL     1      44.741 -20.626   2.370  1.00  0.00    -0.353 OA
HETATM   34  C   UNL     1      44.156 -21.858   1.979  1.00  0.00     0.210 C 
ENDBRANCH  28  33
ENDBRANCH  24  25
ENDBRANCH  23  24
ENDBRANCH  20  23
ENDBRANCH   3  19
TORSDOF 10
ENDMDL
MODEL 2
REMARK VINA RESULT:      -8.7      1.221      2.265
REMARK  10 active torsions:
REMARK  status: ('A' for Active; 'I' for Inactive)
REMARK    1  A    between atoms: C_2  and  N_3 
REMARK    2  A    between atoms: N_3  and  N_4 
REMARK       I    between atoms: N_4  and  C_5 
REMARK    3  A    between atoms: C_5  and  C_6 
REMARK    4  A    between atoms: C_9  and  N_10 
REMARK    5  A    between atoms: C_14  and  C_15 
REMARK       I    between atoms: C_15  and  N_16 
REMARK    6  A    between atoms: N_16  and  C_17 
REMARK    7  A    between atoms: C_17  and  C_18 
REMARK    8  A    between atoms: C_18  and  C_19 
REMARK    9  A    between atoms: C_21  and  O_22 
REMARK   10  A    between atoms: C_24  and  O_25 
ROOT
HETATM    1  C   UNL     1      46.365 -12.340   7.976  1.00  0.00     0.063 C 
HETATM    2  C   UNL     1      45.212 -13.301   7.805  1.00  0.00     0.007 C 
HETATM    3  C   UNL     1      45.121 -14.031   6.674  1.00  0.00     0.094 C 
ENDROOT
BRANCH   2   4
HETATM    4  N   UNL     1      44.339 -13.390   8.883  1.00  0.00    -0.207 NA
HETATM    5  H   UNL     1      43.492 -13.947   8.653  1.00  0.00     0.152 HD
BRANCH   4   6
HETATM    6  N   UNL     1      43.965 -12.216   9.574  1.00  0.00    -0.283 N 
HETATM    7  C   UNL     1      44.279 -12.173  10.926  1.00  0.00     0.266 C 
HETATM    8  O   UNL     1      45.039 -12.967  11.474  1.00  0.00    -0.266 OA
HETATM    9  H   UNL     1      43.126 -11.758   9.238  1.00  0.00     0.184 HD
BRANCH   7  10
HETATM   10  C   UNL     1      43.572 -11.137  11.730  1.00  0.00     0.033 A 
HETATM   11  C   UNL     1      42.894 -11.439  12.916  1.00  0.00     0.019 A 
HETATM   12  C   UNL     1      42.282 -10.417  13.650  1.00  0.00     0.024 A 
HETATM   13  C   UNL     1      42.292  -9.097  13.191  1.00  0.00     0.005 A 
HETATM   14  C   UNL     1      43.003  -8.798  12.027  1.00  0.00     0.024 A 
HETATM   15  C   UNL     1      43.617  -9.811  11.285  1.00  0.00     0.019 A 
BRANCH  13  16
HETATM   16  N   UNL     1      41.799  -8.067  13.999  1.00  0.00    -0.303 NA
HETATM   17  H   UNL     1      42.195  -8.048  14.933  1.00  0.00     0.124 HD
HETATM   18  H   UNL     1      40.784  -8.011  14.014  1.00  0.00     0.124 HD
ENDBRANCH  13  16
ENDBRANCH   7  10
ENDBRANCH   4   6
ENDBRANCH   2   4
BRANCH   3  19
HETATM   19  C   UNL     1      44.014 -14.992   6.449  1.00  0.00     0.242 C 
HETATM   20  N   UNL     1      43.332 -14.774   5.276  1.00  0.00    -0.357 N 
HETATM   21  H   UNL     1      43.571 -13.983   4.695  1.00  0.00     0.162 HD
HETATM   22  O   UNL     1      43.726 -15.854   7.268  1.00  0.00    -0.269 OA
BRANCH  20  23
HETATM   23  C   UNL     1      42.090 -15.481   4.989  1.00  0.00     0.127 C 
BRANCH  23  24
HETATM   24  C   UNL     1      42.068 -16.041   3.554  1.00  0.00     0.058 C 
BRANCH  24  25
HETATM   25  C   UNL     1      42.826 -17.333   3.343  1.00  0.00    -0.054 A 
HETATM   26  C   UNL     1      43.231 -18.116   4.433  1.00  0.00     0.046 A 
HETATM   27  C   UNL     1      43.874 -19.347   4.253  1.00  0.00     0.102 A 
HETATM   28  C   UNL     1      44.117 -19.817   2.950  1.00  0.00     0.101 A 
HETATM   29  C   UNL     1      43.696 -19.051   1.857  1.00  0.00     0.040 A 
HETATM   30  C   UNL     1      43.053 -17.823   2.053  1.00  0.00     0.010 A 
BRANCH  27  31
HETATM   31  O   UNL     1      44.303 -20.148   5.283  1.00  0.00    -0.353 OA
HETATM   32  C   UNL     1      43.885 -19.790   6.596  1.00  0.00     0.210 C 
ENDBRANCH  27  31
BRANCH  28  33
HETATM   33  O   UNL     1      44.748 -21.032   2.855  1.00  0.00    -0.353 OA
HETATM   34  C   UNL     1      44.311 -21.925   1.843  1.00  0.00     0.210 C 
ENDBRANCH  28  33
ENDBRANCH  24  25
ENDBRANCH  23  24
ENDBRANCH  20  23
ENDBRANCH   3  19
TORSDOF 10
ENDMDL
MODEL 3
REMARK VINA RESULT:      -8.5      4.795      9.448
REMARK  10 active torsions:
REMARK  status: ('A' for Active; 'I' for Inactive)
REMARK    1  A    between atoms: C_2  and  N_3 
REMARK    2  A    between atoms: N_3  and  N_4 
REMARK       I    between atoms: N_4  and  C_5 
REMARK    3  A    between atoms: C_5  and  C_6 
REMARK    4  A    between atoms: C_9  and  N_10 
REMARK    5  A    between atoms: C_14  and  C_15 
REMARK       I    between atoms: C_15  and  N_16 
REMARK    6  A    between atoms: N_16  and  C_17 
REMARK    7  A    between atoms: C_17  and  C_18 
REMARK    8  A    between atoms: C_18  and  C_19 
REMARK    9  A    between atoms: C_21  and  O_22 
REMARK   10  A    between atoms: C_24  and  O_25 
ROOT
HETATM    1  C   UNL     1      41.124 -16.129  -1.220  1.00  0.00     0.063 C 
HETATM    2  C   UNL     1      41.545 -15.603   0.133  1.00  0.00     0.007 C 
HETATM    3  C   UNL     1      40.733 -14.751   0.792  1.00  0.00     0.094 C 
ENDROOT
BRANCH   2   4
HETATM    4  N   UNL     1      42.749 -16.097   0.621  1.00  0.00    -0.207 NA
HETATM    5  H   UNL     1      43.546 -15.873  -0.008  1.00  0.00     0.152 HD
BRANCH   4   6
HETATM    6  N   UNL     1      42.831 -17.445   1.034  1.00  0.00    -0.283 N 
HETATM    7  C   UNL     1      43.260 -17.663   2.338  1.00  0.00     0.266 C 
HETATM    8  O   UNL     1      43.342 -16.776   3.184  1.00  0.00    -0.266 OA
HETATM    9  H   UNL     1      43.069 -18.111   0.310  1.00  0.00     0.184 HD
BRANCH   7  10
HETATM   10  C   UNL     1      43.707 -19.047   2.657  1.00  0.00     0.033 A 
HETATM   11  C   UNL     1      44.342 -19.373   3.860  1.00  0.00     0.019 A 
HETATM   12  C   UNL     1      44.704 -20.700   4.122  1.00  0.00     0.024 A 
HETATM   13  C   UNL     1      44.486 -21.705   3.175  1.00  0.00     0.005 A 
HETATM   14  C   UNL     1      43.818 -21.378   1.994  1.00  0.00     0.024 A 
HETATM   15  C   UNL     1      43.453 -20.056   1.721  1.00  0.00     0.019 A 
BRANCH  13  16
HETATM   16  N   UNL     1      44.724 -23.044   3.502  1.00  0.00    -0.303 NA
HETATM   17  H   UNL     1      44.290 -23.708   2.870  1.00  0.00     0.124 HD
HETATM   18  H   UNL     1      44.536 -23.265   4.476  1.00  0.00     0.124 HD
ENDBRANCH  13  16
ENDBRANCH   7  10
ENDBRANCH   4   6
ENDBRANCH   2   4
BRANCH   3  19
HETATM   19  C   UNL     1      41.090 -14.204   2.124  1.00  0.00     0.242 C 
HETATM   20  N   UNL     1      40.026 -14.145   2.992  1.00  0.00    -0.357 N 
HETATM   21  H   UNL     1      39.103 -14.407   2.674  1.00  0.00     0.162 HD
HETATM   22  O   UNL     1      42.217 -13.804   2.381  1.00  0.00    -0.269 OA
BRANCH  20  23
HETATM   23  C   UNL     1      40.136 -13.445   4.266  1.00  0.00     0.127 C 
BRANCH  23  24
HETATM   24  C   UNL     1      39.917 -14.394   5.460  1.00  0.00     0.058 C 
BRANCH  24  25
HETATM   25  C   UNL     1      41.097 -15.264   5.830  1.00  0.00    -0.054 A 
HETATM   26  C   UNL     1      42.359 -14.702   6.070  1.00  0.00     0.046 A 
HETATM   27  C   UNL     1      43.445 -15.486   6.479  1.00  0.00     0.102 A 
HETATM   28  C   UNL     1      43.270 -16.870   6.660  1.00  0.00     0.101 A 
HETATM   29  C   UNL     1      42.009 -17.435   6.443  1.00  0.00     0.040 A 
HETATM   30  C   UNL     1      40.932 -16.637   6.036  1.00  0.00     0.010 A 
BRANCH  27  31
HETATM   31  O   UNL     1      44.705 -14.992   6.715  1.00  0.00    -0.353 OA
HETATM   32  C   UNL     1      44.790 -13.744   7.396  1.00  0.00     0.210 C 
ENDBRANCH  27  31
BRANCH  28  33
HETATM   33  O   UNL     1      44.380 -17.570   7.064  1.00  0.00    -0.353 OA
HETATM   34  C   UNL     1      44.174 -18.814   7.713  1.00  0.00     0.210 C 
ENDBRANCH  28  33
ENDBRANCH  24  25
ENDBRANCH  23  24
ENDBRANCH  20  23
ENDBRANCH   3  19
TORSDOF 10
ENDMDL
MODEL 4
REMARK VINA RESULT:      -8.3      2.028      2.738
REMARK  10 active torsions:
REMARK  status: ('A' for Active; 'I' for Inactive)
REMARK    1  A    between atoms: C_2  and  N_3 
REMARK    2  A    between atoms: N_3  and  N_4 
REMARK       I    between atoms: N_4  and  C_5 
REMARK    3  A    between atoms: C_5  and  C_6 
REMARK    4  A    between atoms: C_9  and  N_10 
REMARK    5  A    between atoms: C_14  and  C_15 
REMARK       I    between atoms: C_15  and  N_16 
REMARK    6  A    between atoms: N_16  and  C_17 
REMARK    7  A    between atoms: C_17  and  C_18 
REMARK    8  A    between atoms: C_18  and  C_19 
REMARK    9  A    between atoms: C_21  and  O_22 
REMARK   10  A    between atoms: C_24  and  O_25 
ROOT
HETATM    1  C   UNL     1      40.240 -10.849   7.001  1.00  0.00     0.063 C 
HETATM    2  C   UNL     1      41.456 -11.729   6.833  1.00  0.00     0.007 C 
HETATM    3  C   UNL     1      41.524 -12.568   5.778  1.00  0.00     0.094 C 
ENDROOT
BRANCH   2   4
HETATM    4  N   UNL     1      42.456 -11.560   7.784  1.00  0.00    -0.207 NA
HETATM    5  H   UNL     1      43.056 -12.405   7.872  1.00  0.00     0.152 HD
BRANCH   4   6
HETATM    6  N   UNL     1      42.120 -11.076   9.068  1.00  0.00    -0.283 N 
HETATM    7  C   UNL     1      43.183 -10.722   9.888  1.00  0.00     0.266 C 
HETATM    8  O   UNL     1      44.337 -10.592   9.488  1.00  0.00    -0.266 OA
HETATM    9  H   UNL     1      41.278 -11.466   9.476  1.00  0.00     0.184 HD
BRANCH   7  10
HETATM   10  C   UNL     1      42.872 -10.578  11.337  1.00  0.00     0.033 A 
HETATM   11  C   UNL     1      43.686  -9.849  12.212  1.00  0.00     0.019 A 
HETATM   12  C   UNL     1      43.321  -9.715  13.557  1.00  0.00     0.024 A 
HETATM   13  C   UNL     1      42.176 -10.341  14.057  1.00  0.00     0.005 A 
HETATM   14  C   UNL     1      41.349 -11.033  13.170  1.00  0.00     0.024 A 
HETATM   15  C   UNL     1      41.704 -11.175  11.825  1.00  0.00     0.019 A 
BRANCH  13  16
HETATM   16  N   UNL     1      41.749 -10.086  15.365  1.00  0.00    -0.303 NA
HETATM   17  H   UNL     1      40.740 -10.074  15.476  1.00  0.00     0.124 HD
HETATM   18  H   UNL     1      42.188  -9.272  15.785  1.00  0.00     0.124 HD
ENDBRANCH  13  16
ENDBRANCH   7  10
ENDBRANCH   4   6
ENDBRANCH   2   4
BRANCH   3  19
HETATM   19  C   UNL     1      42.693 -13.454   5.558  1.00  0.00     0.242 C 
HETATM   20  N   UNL     1      42.869 -14.384   6.555  1.00  0.00    -0.357 N 
HETATM   21  H   UNL     1      42.262 -14.374   7.363  1.00  0.00     0.162 HD
HETATM   22  O   UNL     1      43.440 -13.316   4.599  1.00  0.00    -0.269 OA
BRANCH  20  23
HETATM   23  C   UNL     1      44.077 -15.196   6.617  1.00  0.00     0.127 C 
BRANCH  23  24
HETATM   24  C   UNL     1      43.753 -16.688   6.827  1.00  0.00     0.058 C 
BRANCH  24  25
HETATM   25  C   UNL     1      43.976 -17.582   5.628  1.00  0.00    -0.054 A 
HETATM   26  C   UNL     1      44.630 -18.815   5.761  1.00  0.00     0.046 A 
HETATM   27  C   UNL     1      44.784 -19.684   4.674  1.00  0.00     0.102 A 
HETATM   28  C   UNL     1      44.268 -19.319   3.417  1.00  0.00     0.101 A 
HETATM   29  C   UNL     1      43.595 -18.100   3.282  1.00  0.00     0.040 A 
HETATM   30  C   UNL     1      43.447 -17.243   4.379  1.00  0.00     0.010 A 
BRANCH  27  31
HETATM   31  O   UNL     1      45.426 -20.897   4.744  1.00  0.00    -0.353 OA
HETATM   32  C   UNL     1      44.746 -21.949   5.418  1.00  0.00     0.210 C 
ENDBRANCH  27  31
BRANCH  28  33
HETATM   33  O   UNL     1      44.456 -20.224   2.402  1.00  0.00    -0.353 OA
HETATM   34  C   UNL     1      43.312 -20.890   1.892  1.00  0.00     0.210 C 
ENDBRANCH  28  33
ENDBRANCH  24  25
ENDBRANCH  23  24
ENDBRANCH  20  23
ENDBRANCH   3  19
TORSDOF 10
ENDMDL
MODEL 5
REMARK VINA RESULT:      -8.1      1.776      2.600
REMARK  10 active torsions:
REMARK  status: ('A' for Active; 'I' for Inactive)
REMARK    1  A    between atoms: C_2  and  N_3 
REMARK    2  A    between atoms: N_3  and  N_4 
REMARK       I    between atoms: N_4  and  C_5 
REMARK    3  A    between atoms: C_5  and  C_6 
REMARK    4  A    between atoms: C_9  and  N_10 
REMARK    5  A    between atoms: C_14  and  C_15 
REMARK       I    between atoms: C_15  and  N_16 
REMARK    6  A    between atoms: N_16  and  C_17 
REMARK    7  A    between atoms: C_17  and  C_18 
REMARK    8  A    between atoms: C_18  and  C_19 
REMARK    9  A    between atoms: C_21  and  O_22 
REMARK   10  A    between atoms: C_24  and  O_25 
ROOT
HETATM    1  C   UNL     1      46.358 -12.304   7.997  1.00  0.00     0.063 C 
HETATM    2  C   UNL     1      45.199 -13.254   7.807  1.00  0.00     0.007 C 
HETATM    3  C   UNL     1      45.113 -13.973   6.668  1.00  0.00     0.094 C 
ENDROOT
BRANCH   2   4
HETATM    4  N   UNL     1      44.317 -13.347   8.877  1.00  0.00    -0.207 NA
HETATM    5  H   UNL     1      43.513 -13.972   8.666  1.00  0.00     0.152 HD
BRANCH   4   6
HETATM    6  N   UNL     1      43.853 -12.167   9.500  1.00  0.00    -0.283 N 
HETATM    7  C   UNL     1      43.998 -12.103  10.880  1.00  0.00     0.266 C 
HETATM    8  O   UNL     1      44.691 -12.883  11.528  1.00  0.00    -0.266 OA
HETATM    9  H   UNL     1      43.058 -11.721   9.057  1.00  0.00     0.184 HD
BRANCH   7  10
HETATM   10  C   UNL     1      43.191 -11.063  11.576  1.00  0.00     0.033 A 
HETATM   11  C   UNL     1      43.742 -10.190  12.520  1.00  0.00     0.019 A 
HETATM   12  C   UNL     1      42.942  -9.206  13.112  1.00  0.00     0.024 A 
HETATM   13  C   UNL     1      41.580  -9.110  12.813  1.00  0.00     0.005 A 
HETATM   14  C   UNL     1      41.047  -9.959  11.842  1.00  0.00     0.024 A 
HETATM   15  C   UNL     1      41.836 -10.947  11.244  1.00  0.00     0.019 A 
BRANCH  13  16
HETATM   16  N   UNL     1      40.826  -8.039  13.304  1.00  0.00    -0.303 NA
HETATM   17  H   UNL     1      41.287  -7.138  13.227  1.00  0.00     0.124 HD
HETATM   18  H   UNL     1      40.452  -8.198  14.235  1.00  0.00     0.124 HD
ENDBRANCH  13  16
ENDBRANCH   7  10
ENDBRANCH   4   6
ENDBRANCH   2   4
BRANCH   3  19
HETATM   19  C   UNL     1      44.001 -14.924   6.425  1.00  0.00     0.242 C 
HETATM   20  N   UNL     1      44.245 -16.185   6.915  1.00  0.00    -0.357 N 
HETATM   21  H   UNL     1      45.138 -16.396   7.337  1.00  0.00     0.162 HD
HETATM   22  O   UNL     1      42.998 -14.604   5.802  1.00  0.00    -0.269 OA
BRANCH  20  23
HETATM   23  C   UNL     1      43.364 -17.299   6.588  1.00  0.00     0.127 C 
BRANCH  23  24
HETATM   24  C   UNL     1      43.910 -18.134   5.413  1.00  0.00     0.058 C 
BRANCH  24  25
HETATM   25  C   UNL     1      43.202 -17.947   4.090  1.00  0.00    -0.054 A 
HETATM   26  C   UNL     1      41.967 -17.285   4.022  1.00  0.00     0.046 A 
HETATM   27  C   UNL     1      41.331 -17.045   2.798  1.00  0.00     0.102 A 
HETATM   28  C   UNL     1      41.942 -17.471   1.605  1.00  0.00     0.101 A 
HETATM   29  C   UNL     1      43.184 -18.113   1.664  1.00  0.00     0.040 A 
HETATM   30  C   UNL     1      43.808 -18.344   2.895  1.00  0.00     0.010 A 
BRANCH  27  31
HETATM   31  O   UNL     1      40.117 -16.413   2.674  1.00  0.00    -0.353 OA
HETATM   32  C   UNL     1      40.073 -15.030   3.007  1.00  0.00     0.210 C 
ENDBRANCH  27  31
BRANCH  28  33
HETATM   33  O   UNL     1      41.259 -17.197   0.447  1.00  0.00    -0.353 OA
HETATM   34  C   UNL     1      41.627 -16.033  -0.277  1.00  0.00     0.210 C 
ENDBRANCH  28  33
ENDBRANCH  24  25
ENDBRANCH  23  24
ENDBRANCH  20  23
ENDBRANCH   3  19
TORSDOF 10
ENDMDL
MODEL 6
REMARK VINA RESULT:      -8.1      2.066      2.418
REMARK  10 active torsions:
REMARK  status: ('A' for Active; 'I' for Inactive)
REMARK    1  A    between atoms: C_2  and  N_3 
REMARK    2  A    between atoms: N_3  and  N_4 
REMARK       I    between atoms: N_4  and  C_5 
REMARK    3  A    between atoms: C_5  and  C_6 
REMARK    4  A    between atoms: C_9  and  N_10 
REMARK    5  A    between atoms: C_14  and  C_15 
REMARK       I    between atoms: C_15  and  N_16 
REMARK    6  A    between atoms: N_16  and  C_17 
REMARK    7  A    between atoms: C_17  and  C_18 
REMARK    8  A    between atoms: C_18  and  C_19 
REMARK    9  A    between atoms: C_21  and  O_22 
REMARK   10  A    between atoms: C_24  and  O_25 
ROOT
HETATM    1  C   UNL     1      40.334 -10.805   6.910  1.00  0.00     0.063 C 
HETATM    2  C   UNL     1      41.546 -11.697   6.777  1.00  0.00     0.007 C 
HETATM    3  C   UNL     1      41.667 -12.492   5.694  1.00  0.00     0.094 C 
ENDROOT
BRANCH   2   4
HETATM    4  N   UNL     1      42.489 -11.583   7.792  1.00  0.00    -0.207 NA
HETATM    5  H   UNL     1      43.030 -12.462   7.921  1.00  0.00     0.152 HD
BRANCH   4   6
HETATM    6  N   UNL     1      42.098 -11.073   9.050  1.00  0.00    -0.283 N 
HETATM    7  C   UNL     1      43.126 -10.696   9.906  1.00  0.00     0.266 C 
HETATM    8  O   UNL     1      44.295 -10.569   9.551  1.00  0.00    -0.266 OA
HETATM    9  H   UNL     1      41.242 -11.457   9.432  1.00  0.00     0.184 HD
BRANCH   7  10
HETATM   10  C   UNL     1      42.754 -10.522  11.338  1.00  0.00     0.033 A 
HETATM   11  C   UNL     1      41.601 -11.091  11.890  1.00  0.00     0.019 A 
HETATM   12  C   UNL     1      41.324 -10.926  13.252  1.00  0.00     0.024 A 
HETATM   13  C   UNL     1      42.159 -10.156  14.067  1.00  0.00     0.005 A 
HETATM   14  C   UNL     1      43.326  -9.624  13.518  1.00  0.00     0.024 A 
HETATM   15  C   UNL     1      43.613  -9.782  12.158  1.00  0.00     0.019 A 
BRANCH  13  16
HETATM   16  N   UNL     1      41.948 -10.114  15.449  1.00  0.00    -0.303 NA
HETATM   17  H   UNL     1      41.250  -9.437  15.741  1.00  0.00     0.124 HD
HETATM   18  H   UNL     1      42.805 -10.035  15.990  1.00  0.00     0.124 HD
ENDBRANCH  13  16
ENDBRANCH   7  10
ENDBRANCH   4   6
ENDBRANCH   2   4
BRANCH   3  19
HETATM   19  C   UNL     1      42.835 -13.386   5.506  1.00  0.00     0.242 C 
HETATM   20  N   UNL     1      43.107 -14.167   6.604  1.00  0.00    -0.357 N 
HETATM   21  H   UNL     1      42.563 -14.053   7.448  1.00  0.00     0.162 HD
HETATM   22  O   UNL     1      43.505 -13.373   4.482  1.00  0.00    -0.269 OA
BRANCH  20  23
HETATM   23  C   UNL     1      44.335 -14.949   6.682  1.00  0.00     0.127 C 
BRANCH  23  24
HETATM   24  C   UNL     1      44.055 -16.416   7.062  1.00  0.00     0.058 C 
BRANCH  24  25
HETATM   25  C   UNL     1      43.976 -17.388   5.906  1.00  0.00    -0.054 A 
HETATM   26  C   UNL     1      43.237 -17.079   4.755  1.00  0.00     0.046 A 
HETATM   27  C   UNL     1      43.208 -17.938   3.649  1.00  0.00     0.102 A 
HETATM   28  C   UNL     1      43.940 -19.139   3.686  1.00  0.00     0.101 A 
HETATM   29  C   UNL     1      44.697 -19.444   4.823  1.00  0.00     0.040 A 
HETATM   30  C   UNL     1      44.717 -18.574   5.920  1.00  0.00     0.010 A 
BRANCH  27  31
HETATM   31  O   UNL     1      42.493 -17.692   2.502  1.00  0.00    -0.353 OA
HETATM   32  C   UNL     1      41.216 -17.083   2.657  1.00  0.00     0.210 C 
ENDBRANCH  27  31
BRANCH  28  33
HETATM   33  O   UNL     1      43.865 -19.926   2.565  1.00  0.00    -0.353 OA
HETATM   34  C   UNL     1      44.588 -21.147   2.566  1.00  0.00     0.210 C 
ENDBRANCH  28  33
ENDBRANCH  24  25
ENDBRANCH  23  24
ENDBRANCH  20  23
ENDBRANCH   3  19
TORSDOF 10
ENDMDL
MODEL 7
REMARK VINA RESULT:      -8.1      2.763      9.961
REMARK  10 active torsions:
REMARK  status: ('A' for Active; 'I' for Inactive)
REMARK    1  A    between atoms: C_2  and  N_3 
REMARK    2  A    between atoms: N_3  and  N_4 
REMARK       I    between atoms: N_4  and  C_5 
REMARK    3  A    between atoms: C_5  and  C_6 
REMARK    4  A    between atoms: C_9  and  N_10 
REMARK    5  A    between atoms: C_14  and  C_15 
REMARK       I    between atoms: C_15  and  N_16 
REMARK    6  A    between atoms: N_16  and  C_17 
REMARK    7  A    between atoms: C_17  and  C_18 
REMARK    8  A    between atoms: C_18  and  C_19 
REMARK    9  A    between atoms: C_21  and  O_22 
REMARK   10  A    between atoms: C_24  and  O_25 
ROOT
HETATM    1  C   UNL     1      39.706 -14.211   5.311  1.00  0.00     0.063 C 
HETATM    2  C   UNL     1      41.139 -14.428   5.736  1.00  0.00     0.007 C 
HETATM    3  C   UNL     1      42.068 -13.500   5.427  1.00  0.00     0.094 C 
ENDROOT
BRANCH   2   4
HETATM    4  N   UNL     1      41.379 -15.580   6.476  1.00  0.00    -0.207 NA
HETATM    5  H   UNL     1      42.073 -15.420   7.233  1.00  0.00     0.152 HD
BRANCH   4   6
HETATM    6  N   UNL     1      41.674 -16.788   5.805  1.00  0.00    -0.283 N 
HETATM    7  C   UNL     1      42.957 -17.291   5.983  1.00  0.00     0.266 C 
HETATM    8  O   UNL     1      43.735 -16.884   6.841  1.00  0.00    -0.266 OA
HETATM    9  H   UNL     1      41.198 -16.926   4.921  1.00  0.00     0.184 HD
BRANCH   7  10
HETATM   10  C   UNL     1      43.394 -18.327   5.006  1.00  0.00     0.033 A 
HETATM   11  C   UNL     1      42.916 -18.372   3.692  1.00  0.00     0.019 A 
HETATM   12  C   UNL     1      43.394 -19.345   2.807  1.00  0.00     0.024 A 
HETATM   13  C   UNL     1      44.311 -20.312   3.229  1.00  0.00     0.005 A 
HETATM   14  C   UNL     1      44.812 -20.238   4.530  1.00  0.00     0.024 A 
HETATM   15  C   UNL     1      44.341 -19.270   5.423  1.00  0.00     0.019 A 
BRANCH  13  16
HETATM   16  N   UNL     1      44.884 -21.190   2.303  1.00  0.00    -0.303 NA
HETATM   17  H   UNL     1      44.328 -21.329   1.465  1.00  0.00     0.124 HD
HETATM   18  H   UNL     1      45.187 -22.071   2.710  1.00  0.00     0.124 HD
ENDBRANCH  13  16
ENDBRANCH   7  10
ENDBRANCH   4   6
ENDBRANCH   2   4
BRANCH   3  19
HETATM   19  C   UNL     1      43.490 -13.655   5.820  1.00  0.00     0.242 C 
HETATM   20  N   UNL     1      43.679 -13.696   7.181  1.00  0.00    -0.357 N 
HETATM   21  H   UNL     1      42.892 -13.568   7.801  1.00  0.00     0.162 HD
HETATM   22  O   UNL     1      44.392 -13.689   4.994  1.00  0.00    -0.269 OA
BRANCH  20  23
HETATM   23  C   UNL     1      45.018 -13.632   7.753  1.00  0.00     0.127 C 
BRANCH  23  24
HETATM   24  C   UNL     1      45.308 -12.254   8.377  1.00  0.00     0.058 C 
BRANCH  24  25
HETATM   25  C   UNL     1      44.343 -11.804   9.452  1.00  0.00    -0.054 A 
HETATM   26  C   UNL     1      43.222 -11.025   9.133  1.00  0.00     0.046 A 
HETATM   27  C   UNL     1      42.283 -10.658  10.105  1.00  0.00     0.102 A 
HETATM   28  C   UNL     1      42.461 -11.082  11.434  1.00  0.00     0.101 A 
HETATM   29  C   UNL     1      43.566 -11.878  11.756  1.00  0.00     0.040 A 
HETATM   30  C   UNL     1      44.495 -12.239  10.772  1.00  0.00     0.010 A 
BRANCH  27  31
HETATM   31  O   UNL     1      41.175  -9.886   9.851  1.00  0.00    -0.353 OA
HETATM   32  C   UNL     1      40.143 -10.477   9.069  1.00  0.00     0.210 C 
ENDBRANCH  27  31
BRANCH  28  33
HETATM   33  O   UNL     1      41.498 -10.685  12.328  1.00  0.00    -0.353 OA
HETATM   34  C   UNL     1      40.569 -11.660  12.774  1.00  0.00     0.210 C 
ENDBRANCH  28  33
ENDBRANCH  24  25
ENDBRANCH  23  24
ENDBRANCH  20  23
ENDBRANCH   3  19
TORSDOF 10
ENDMDL
MODEL 8
REMARK VINA RESULT:      -7.9      4.793      9.577
REMARK  10 active torsions:
REMARK  status: ('A' for Active; 'I' for Inactive)
REMARK    1  A    between atoms: C_2  and  N_3 
REMARK    2  A    between atoms: N_3  and  N_4 
REMARK       I    between atoms: N_4  and  C_5 
REMARK    3  A    between atoms: C_5  and  C_6 
REMARK    4  A    between atoms: C_9  and  N_10 
REMARK    5  A    between atoms: C_14  and  C_15 
REMARK       I    between atoms: C_15  and  N_16 
REMARK    6  A    between atoms: N_16  and  C_17 
REMARK    7  A    between atoms: C_17  and  C_18 
REMARK    8  A    between atoms: C_18  and  C_19 
REMARK    9  A    between atoms: C_21  and  O_22 
REMARK   10  A    between atoms: C_24  and  O_25 
ROOT
HETATM    1  C   UNL     1      44.659 -14.548   6.825  1.00  0.00     0.063 C 
HETATM    2  C   UNL     1      43.501 -15.232   6.137  1.00  0.00     0.007 C 
HETATM    3  C   UNL     1      42.976 -14.683   5.022  1.00  0.00     0.094 C 
ENDROOT
BRANCH   2   4
HETATM    4  N   UNL     1      43.092 -16.435   6.702  1.00  0.00    -0.207 NA
HETATM    5  H   UNL     1      43.606 -16.647   7.580  1.00  0.00     0.152 HD
BRANCH   4   6
HETATM    6  N   UNL     1      43.025 -17.593   5.896  1.00  0.00    -0.283 N 
HETATM    7  C   UNL     1      44.181 -18.360   5.825  1.00  0.00     0.266 C 
HETATM    8  O   UNL     1      45.140 -18.217   6.579  1.00  0.00    -0.266 OA
HETATM    9  H   UNL     1      42.413 -17.532   5.091  1.00  0.00     0.184 HD
BRANCH   7  10
HETATM   10  C   UNL     1      44.246 -19.345   4.710  1.00  0.00     0.033 A 
HETATM   11  C   UNL     1      44.766 -20.634   4.873  1.00  0.00     0.019 A 
HETATM   12  C   UNL     1      44.765 -21.530   3.798  1.00  0.00     0.024 A 
HETATM   13  C   UNL     1      44.294 -21.142   2.540  1.00  0.00     0.005 A 
HETATM   14  C   UNL     1      43.742 -19.869   2.395  1.00  0.00     0.024 A 
HETATM   15  C   UNL     1      43.739 -18.965   3.462  1.00  0.00     0.019 A 
BRANCH  13  16
HETATM   16  N   UNL     1      44.170 -22.086   1.515  1.00  0.00    -0.303 NA
HETATM   17  H   UNL     1      45.011 -22.207   0.960  1.00  0.00     0.124 HD
HETATM   18  H   UNL     1      43.346 -21.951   0.934  1.00  0.00     0.124 HD
ENDBRANCH  13  16
ENDBRANCH   7  10
ENDBRANCH   4   6
ENDBRANCH   2   4
BRANCH   3  19
HETATM   19  C   UNL     1      41.841 -15.309   4.301  1.00  0.00     0.242 C 
HETATM   20  N   UNL     1      42.011 -15.339   2.937  1.00  0.00    -0.357 N 
HETATM   21  H   UNL     1      42.824 -14.905   2.523  1.00  0.00     0.162 HD
HETATM   22  O   UNL     1      40.842 -15.707   4.883  1.00  0.00    -0.269 OA
BRANCH  20  23
HETATM   23  C   UNL     1      40.916 -15.721   2.054  1.00  0.00     0.127 C 
BRANCH  23  24
HETATM   24  C   UNL     1      41.432 -16.309   0.726  1.00  0.00     0.058 C 
BRANCH  24  25
HETATM   25  C   UNL     1      41.357 -15.388  -0.472  1.00  0.00    -0.054 A 
HETATM   26  C   UNL     1      40.914 -15.861  -1.716  1.00  0.00     0.046 A 
HETATM   27  C   UNL     1      40.775 -15.006  -2.817  1.00  0.00     0.102 A 
HETATM   28  C   UNL     1      41.080 -13.640  -2.676  1.00  0.00     0.101 A 
HETATM   29  C   UNL     1      41.501 -13.158  -1.432  1.00  0.00     0.040 A 
HETATM   30  C   UNL     1      41.634 -14.024  -0.340  1.00  0.00     0.010 A 
BRANCH  27  31
HETATM   31  O   UNL     1      40.358 -15.416  -4.060  1.00  0.00    -0.353 OA
HETATM   32  C   UNL     1      39.042 -15.950  -4.155  1.00  0.00     0.210 C 
ENDBRANCH  27  31
BRANCH  28  33
HETATM   33  O   UNL     1      40.915 -12.867  -3.798  1.00  0.00    -0.353 OA
HETATM   34  C   UNL     1      39.862 -11.918  -3.796  1.00  0.00     0.210 C 
ENDBRANCH  28  33
ENDBRANCH  24  25
ENDBRANCH  23  24
ENDBRANCH  20  23
ENDBRANCH   3  19
TORSDOF 10
ENDMDL
MODEL 9
REMARK VINA RESULT:      -7.9      2.478      3.303
REMARK  10 active torsions:
REMARK  status: ('A' for Active; 'I' for Inactive)
REMARK    1  A    between atoms: C_2  and  N_3 
REMARK    2  A    between atoms: N_3  and  N_4 
REMARK       I    between atoms: N_4  and  C_5 
REMARK    3  A    between atoms: C_5  and  C_6 
REMARK    4  A    between atoms: C_9  and  N_10 
REMARK    5  A    between atoms: C_14  and  C_15 
REMARK       I    between atoms: C_15  and  N_16 
REMARK    6  A    between atoms: N_16  and  C_17 
REMARK    7  A    between atoms: C_17  and  C_18 
REMARK    8  A    between atoms: C_18  and  C_19 
REMARK    9  A    between atoms: C_21  and  O_22 
REMARK   10  A    between atoms: C_24  and  O_25 
ROOT
HETATM    1  C   UNL     1      40.392 -10.227   7.036  1.00  0.00     0.063 C 
HETATM    2  C   UNL     1      41.456 -11.269   6.785  1.00  0.00     0.007 C 
HETATM    3  C   UNL     1      41.489 -11.908   5.597  1.00  0.00     0.094 C 
ENDROOT
BRANCH   2   4
HETATM    4  N   UNL     1      42.371 -11.454   7.815  1.00  0.00    -0.207 NA
HETATM    5  H   UNL     1      42.701 -12.438   7.872  1.00  0.00     0.152 HD
BRANCH   4   6
HETATM    6  N   UNL     1      42.066 -10.976   9.109  1.00  0.00    -0.283 N 
HETATM    7  C   UNL     1      43.151 -10.658   9.917  1.00  0.00     0.266 C 
HETATM    8  O   UNL     1      44.301 -10.552   9.502  1.00  0.00    -0.266 OA
HETATM    9  H   UNL     1      41.222 -11.349   9.526  1.00  0.00     0.184 HD
BRANCH   7  10
HETATM   10  C   UNL     1      42.865 -10.523  11.373  1.00  0.00     0.033 A 
HETATM   11  C   UNL     1      43.673  -9.769  12.231  1.00  0.00     0.019 A 
HETATM   12  C   UNL     1      43.332  -9.646  13.583  1.00  0.00     0.024 A 
HETATM   13  C   UNL     1      42.217 -10.307  14.106  1.00  0.00     0.005 A 
HETATM   14  C   UNL     1      41.395 -11.025  13.237  1.00  0.00     0.024 A 
HETATM   15  C   UNL     1      41.726 -11.156  11.885  1.00  0.00     0.019 A 
BRANCH  13  16
HETATM   16  N   UNL     1      41.809 -10.065  15.422  1.00  0.00    -0.303 NA
HETATM   17  H   UNL     1      42.509 -10.294  16.121  1.00  0.00     0.124 HD
HETATM   18  H   UNL     1      40.901 -10.463  15.647  1.00  0.00     0.124 HD
ENDBRANCH  13  16
ENDBRANCH   7  10
ENDBRANCH   4   6
ENDBRANCH   2   4
BRANCH   3  19
HETATM   19  C   UNL     1      42.511 -12.938   5.291  1.00  0.00     0.242 C 
HETATM   20  N   UNL     1      42.849 -12.992   3.960  1.00  0.00    -0.357 N 
HETATM   21  H   UNL     1      42.369 -12.402   3.295  1.00  0.00     0.162 HD
HETATM   22  O   UNL     1      42.955 -13.688   6.149  1.00  0.00    -0.269 OA
BRANCH  20  23
HETATM   23  C   UNL     1      43.674 -14.075   3.439  1.00  0.00     0.127 C 
BRANCH  23  24
HETATM   24  C   UNL     1      42.826 -15.297   3.035  1.00  0.00     0.058 C 
BRANCH  24  25
HETATM   25  C   UNL     1      43.255 -16.619   3.631  1.00  0.00    -0.054 A 
HETATM   26  C   UNL     1      43.163 -16.850   5.011  1.00  0.00     0.046 A 
HETATM   27  C   UNL     1      43.492 -18.091   5.570  1.00  0.00     0.102 A 
HETATM   28  C   UNL     1      43.922 -19.136   4.732  1.00  0.00     0.101 A 
HETATM   29  C   UNL     1      43.996 -18.919   3.351  1.00  0.00     0.040 A 
HETATM   30  C   UNL     1      43.661 -17.673   2.807  1.00  0.00     0.010 A 
BRANCH  27  31
HETATM   31  O   UNL     1      43.432 -18.369   6.914  1.00  0.00    -0.353 OA
HETATM   32  C   UNL     1      42.975 -17.327   7.769  1.00  0.00     0.210 C 
ENDBRANCH  27  31
BRANCH  28  33
HETATM   33  O   UNL     1      44.223 -20.322   5.353  1.00  0.00    -0.353 OA
HETATM   34  C   UNL     1      45.041 -21.245   4.651  1.00  0.00     0.210 C 
ENDBRANCH  28  33
ENDBRANCH  24  25
ENDBRANCH  23  24
ENDBRANCH  20  23
ENDBRANCH   3  19
TORSDOF 10
ENDMDL
MODEL 10
REMARK VINA RESULT:      -7.9      5.534      9.162
REMARK  10 active torsions:
REMARK  status: ('A' for Active; 'I' for Inactive)
REMARK    1  A    between atoms: C_2  and  N_3 
REMARK    2  A    between atoms: N_3  and  N_4 
REMARK       I    between atoms: N_4  and  C_5 
REMARK    3  A    between atoms: C_5  and  C_6 
REMARK    4  A    between atoms: C_9  and  N_10 
REMARK    5  A    between atoms: C_14  and  C_15 
REMARK       I    between atoms: C_15  and  N_16 
REMARK    6  A    between atoms: N_16  and  C_17 
REMARK    7  A    between atoms: C_17  and  C_18 
REMARK    8  A    between atoms: C_18  and  C_19 
REMARK    9  A    between atoms: C_21  and  O_22 
REMARK   10  A    between atoms: C_24  and  O_25 
ROOT
HETATM    1  C   UNL     1      44.791 -22.475   4.765  1.00  0.00     0.063 C 
HETATM    2  C   UNL     1      44.677 -20.996   5.049  1.00  0.00     0.007 C 
HETATM    3  C   UNL     1      44.428 -20.582   6.309  1.00  0.00     0.094 C 
ENDROOT
BRANCH   2   4
HETATM    4  N   UNL     1      44.894 -20.157   3.963  1.00  0.00    -0.207 NA
HETATM    5  H   UNL     1      45.828 -19.701   4.003  1.00  0.00     0.152 HD
BRANCH   4   6
HETATM    6  N   UNL     1      43.912 -19.203   3.614  1.00  0.00    -0.283 N 
HETATM    7  C   UNL     1      43.253 -19.413   2.410  1.00  0.00     0.266 C 
HETATM    8  O   UNL     1      43.311 -20.464   1.776  1.00  0.00    -0.266 OA
HETATM    9  H   UNL     1      44.087 -18.258   3.933  1.00  0.00     0.184 HD
BRANCH   7  10
HETATM   10  C   UNL     1      42.509 -18.246   1.859  1.00  0.00     0.033 A 
HETATM   11  C   UNL     1      43.056 -17.393   0.894  1.00  0.00     0.019 A 
HETATM   12  C   UNL     1      42.294 -16.335   0.384  1.00  0.00     0.024 A 
HETATM   13  C   UNL     1      41.004 -16.084   0.860  1.00  0.00     0.005 A 
HETATM   14  C   UNL     1      40.451 -16.962   1.793  1.00  0.00     0.024 A 
HETATM   15  C   UNL     1      41.203 -18.021   2.311  1.00  0.00     0.019 A 
BRANCH  13  16
HETATM   16  N   UNL     1      40.205 -15.114   0.246  1.00  0.00    -0.303 NA
HETATM   17  H   UNL     1      40.169 -14.230   0.744  1.00  0.00     0.124 HD
HETATM   18  H   UNL     1      39.277 -15.448  -0.004  1.00  0.00     0.124 HD
ENDBRANCH  13  16
ENDBRANCH   7  10
ENDBRANCH   4   6
ENDBRANCH   2   4
BRANCH   3  19
HETATM   19  C   UNL     1      44.308 -19.144   6.651  1.00  0.00     0.242 C 
HETATM   20  N   UNL     1      43.160 -18.840   7.343  1.00  0.00    -0.357 N 
HETATM   21  H   UNL     1      42.474 -19.562   7.518  1.00  0.00     0.162 HD
HETATM   22  O   UNL     1      45.141 -18.320   6.296  1.00  0.00    -0.269 OA
BRANCH  20  23
HETATM   23  C   UNL     1      42.770 -17.456   7.578  1.00  0.00     0.127 C 
BRANCH  23  24
HETATM   24  C   UNL     1      41.559 -17.048   6.717  1.00  0.00     0.058 C 
BRANCH  24  25
HETATM   25  C   UNL     1      41.800 -15.920   5.739  1.00  0.00    -0.054 A 
HETATM   26  C   UNL     1      41.055 -14.734   5.811  1.00  0.00     0.046 A 
HETATM   27  C   UNL     1      41.312 -13.655   4.956  1.00  0.00     0.102 A 
HETATM   28  C   UNL     1      42.342 -13.756   4.004  1.00  0.00     0.101 A 
HETATM   29  C   UNL     1      43.103 -14.928   3.941  1.00  0.00     0.040 A 
HETATM   30  C   UNL     1      42.836 -15.998   4.804  1.00  0.00     0.010 A 
BRANCH  27  31
HETATM   31  O   UNL     1      40.607 -12.476   4.973  1.00  0.00    -0.353 OA
HETATM   32  C   UNL     1      39.329 -12.479   4.347  1.00  0.00     0.210 C 
ENDBRANCH  27  31
BRANCH  28  33
HETATM   33  O   UNL     1      42.534 -12.657   3.204  1.00  0.00    -0.353 OA
HETATM   34  C   UNL     1      42.194 -12.772   1.832  1.00  0.00     0.210 C 
ENDBRANCH  28  33
ENDBRANCH  24  25
ENDBRANCH  23  24
ENDBRANCH  20  23
ENDBRANCH   3  19
TORSDOF 10
ENDMDL
