MODEL 1
REMARK VINA RESULT:      -9.0      0.000      0.000
REMARK  13 active torsions:
REMARK  status: ('A' for Active; 'I' for Inactive)
REMARK    1  A    between atoms: C_2  and  O_3 
REMARK    2  A    between atoms: O_3  and  C_4 
REMARK    3  A    between atoms: C_5  and  O_6 
REMARK    4  A    between atoms: C_9  and  C_10 
REMARK    5  A    between atoms: N_11  and  C_12 
REMARK    6  A    between atoms: C_12  and  C_13 
REMARK    7  A    between atoms: C_13  and  N_14 
REMARK    8  A    between atoms: C_23  and  O_24 
REMARK    9  A    between atoms: C_25  and  C_26 
REMARK   10  A    between atoms: C_26  and  C_27 
REMARK   11  A    between atoms: C_31  and  O_32 
REMARK   12  A    between atoms: O_32  and  C_33 
REMARK   13  A    between atoms: C_33  and  C_34 
ROOT
HETATM    1  C   UNL     1      40.252 -13.608  -0.637  1.00  0.00     0.161 A 
HETATM    2  N   UNL     1      40.521 -12.246  -1.099  1.00  0.00    -0.332 N 
HETATM    3  C   UNL     1      39.697 -11.338  -0.490  1.00  0.00     0.278 A 
HETATM    4  O   UNL     1      39.563 -10.165  -0.798  1.00  0.00    -0.265 OA
HETATM    5  C   UNL     1      38.899 -12.047   0.519  1.00  0.00     0.146 A 
HETATM    6  C   UNL     1      39.223 -13.344   0.430  1.00  0.00     0.059 A 
ENDROOT
BRANCH   6   7
HETATM    7  C   UNL     1      38.728 -14.467   1.257  1.00  0.00     0.194 C 
HETATM    8  O   UNL     1      37.532 -14.714   1.331  1.00  0.00    -0.287 OA
BRANCH   7   9
HETATM    9  C   UNL     1      39.712 -15.299   1.973  1.00  0.00     0.021 A 
HETATM   10  C   UNL     1      40.269 -14.882   3.192  1.00  0.00    -0.045 A 
HETATM   11  C   UNL     1      39.787 -13.664   3.920  1.00  0.00     0.049 C 
HETATM   12  C   UNL     1      41.288 -15.667   3.753  1.00  0.00     0.044 A 
HETATM   13  C   UNL     1      41.754 -16.820   3.109  1.00  0.00     0.069 A 
HETATM   14  C   UNL     1      41.145 -17.249   1.931  1.00  0.00     0.038 A 
HETATM   15  C   UNL     1      40.120 -16.491   1.360  1.00  0.00     0.019 A 
BRANCH  13  16
HETATM   16  O   UNL     1      42.799 -17.443   3.733  1.00  0.00    -0.347 OA
BRANCH  16  17
HETATM   17  C   UNL     1      43.911 -17.789   2.906  1.00  0.00     0.214 C 
BRANCH  17  18
HETATM   18  C   UNL     1      44.067 -19.288   2.919  1.00  0.00    -0.034 A 
HETATM   19  C   UNL     1      43.626 -20.055   1.831  1.00  0.00     0.009 A 
HETATM   20  C   UNL     1      43.768 -21.443   1.838  1.00  0.00     0.001 A 
HETATM   21  C   UNL     1      44.344 -22.079   2.937  1.00  0.00     0.000 A 
HETATM   22  C   UNL     1      44.771 -21.330   4.031  1.00  0.00     0.001 A 
HETATM   23  C   UNL     1      44.630 -19.942   4.024  1.00  0.00     0.009 A 
ENDBRANCH  17  18
ENDBRANCH  16  17
ENDBRANCH  13  16
ENDBRANCH   7   9
ENDBRANCH   6   7
BRANCH   1  24
HETATM   24  C   UNL     1      39.799 -14.461  -1.809  1.00  0.00    -0.028 A 
HETATM   25  C   UNL     1      40.734 -15.310  -2.432  1.00  0.00     0.012 A 
HETATM   26  C   UNL     1      40.396 -16.023  -3.582  1.00  0.00     0.040 A 
HETATM   27  C   UNL     1      39.118 -15.905  -4.104  1.00  0.00     0.099 A 
HETATM   28  C   UNL     1      38.155 -15.107  -3.487  1.00  0.00     0.102 A 
HETATM   29  C   UNL     1      38.501 -14.367  -2.355  1.00  0.00     0.049 A 
BRANCH  27  30
HETATM   30  O   UNL     1      38.820 -16.600  -5.241  1.00  0.00    -0.358 OA
HETATM   31  H   UNL     1      37.886 -16.874  -5.156  1.00  0.00     0.218 HD
ENDBRANCH  27  30
BRANCH  28  32
HETATM   32  O   UNL     1      36.929 -15.065  -4.096  1.00  0.00    -0.349 OA
BRANCH  32  33
HETATM   33  C   UNL     1      36.466 -13.754  -4.436  1.00  0.00     0.171 C 
HETATM   34  C   UNL     1      35.630 -13.865  -5.698  1.00  0.00     0.034 C 
ENDBRANCH  32  33
ENDBRANCH  28  32
ENDBRANCH   1  24
BRANCH   5  35
HETATM   35  O   UNL     1      38.015 -11.423   1.343  1.00  0.00    -0.355 OA
HETATM   36  H   UNL     1      38.202 -10.464   1.308  1.00  0.00     0.218 HD
ENDBRANCH   5  35
BRANCH   2  37
HETATM   37  C   UNL     1      41.558 -11.910  -2.076  1.00  0.00     0.155 C 
BRANCH  37  38
HETATM   38  C   UNL     1      42.935 -11.586  -1.456  1.00  0.00     0.255 C 
BRANCH  38  39
HETATM   39  N   UNL     1      43.244 -10.104  -1.503  1.00  0.00    -0.066 N 
HETATM   40  H   UNL     1      44.244 -10.003  -1.737  1.00  0.00     0.280 HD
HETATM   41  C   UNL     1      42.528  -9.348  -2.617  1.00  0.00     0.261 C 
HETATM   42  C   UNL     1      42.997  -7.886  -2.611  1.00  0.00     0.195 C 
HETATM   43  O   UNL     1      42.752  -7.276  -1.338  1.00  0.00    -0.388 OA
HETATM   44  C   UNL     1      43.458  -7.943  -0.285  1.00  0.00     0.195 C 
HETATM   45  C   UNL     1      43.022  -9.408  -0.170  1.00  0.00     0.261 C 
ENDBRANCH  38  39
ENDBRANCH  37  38
ENDBRANCH   2  37
TORSDOF 13
ENDMDL
MODEL 2
REMARK VINA RESULT:      -8.8      1.345      1.666
REMARK  13 active torsions:
REMARK  status: ('A' for Active; 'I' for Inactive)
REMARK    1  A    between atoms: C_2  and  O_3 
REMARK    2  A    between atoms: O_3  and  C_4 
REMARK    3  A    between atoms: C_5  and  O_6 
REMARK    4  A    between atoms: C_9  and  C_10 
REMARK    5  A    between atoms: N_11  and  C_12 
REMARK    6  A    between atoms: C_12  and  C_13 
REMARK    7  A    between atoms: C_13  and  N_14 
REMARK    8  A    between atoms: C_23  and  O_24 
REMARK    9  A    between atoms: C_25  and  C_26 
REMARK   10  A    between atoms: C_26  and  C_27 
REMARK   11  A    between atoms: C_31  and  O_32 
REMARK   12  A    between atoms: O_32  and  C_33 
REMARK   13  A    between atoms: C_33  and  C_34 
ROOT
HETATM    1  C   UNL     1      40.790 -13.719  -0.441  1.00  0.00     0.161 A 
HETATM    2  N   UNL     1      41.318 -12.434  -0.901  1.00  0.00    -0.332 N 
HETATM    3  C   UNL     1      40.673 -11.384  -0.301  1.00  0.00     0.278 A 
HETATM    4  O   UNL     1      40.767 -10.209  -0.610  1.00  0.00    -0.265 OA
HETATM    5  C   UNL     1      39.744 -11.928   0.699  1.00  0.00     0.146 A 
HETATM    6  C   UNL     1      39.818 -13.263   0.614  1.00  0.00     0.059 A 
ENDROOT
BRANCH   6   7
HETATM    7  C   UNL     1      39.111 -14.270   1.435  1.00  0.00     0.194 C 
HETATM    8  O   UNL     1      37.888 -14.312   1.465  1.00  0.00    -0.287 OA
BRANCH   7   9
HETATM    9  C   UNL     1      39.913 -15.242   2.200  1.00  0.00     0.021 A 
HETATM   10  C   UNL     1      40.396 -14.939   3.482  1.00  0.00    -0.045 A 
HETATM   11  C   UNL     1      39.996 -13.695   4.218  1.00  0.00     0.049 C 
HETATM   12  C   UNL     1      41.254 -15.864   4.099  1.00  0.00     0.044 A 
HETATM   13  C   UNL     1      41.638 -17.042   3.449  1.00  0.00     0.069 A 
HETATM   14  C   UNL     1      41.097 -17.353   2.201  1.00  0.00     0.038 A 
HETATM   15  C   UNL     1      40.232 -16.454   1.574  1.00  0.00     0.019 A 
BRANCH  13  16
HETATM   16  O   UNL     1      42.534 -17.812   4.138  1.00  0.00    -0.347 OA
BRANCH  16  17
HETATM   17  C   UNL     1      43.814 -17.985   3.528  1.00  0.00     0.214 C 
BRANCH  17  18
HETATM   18  C   UNL     1      44.034 -19.457   3.288  1.00  0.00    -0.034 A 
HETATM   19  C   UNL     1      43.660 -20.039   2.069  1.00  0.00     0.009 A 
HETATM   20  C   UNL     1      43.861 -21.401   1.843  1.00  0.00     0.001 A 
HETATM   21  C   UNL     1      44.429 -22.196   2.837  1.00  0.00     0.000 A 
HETATM   22  C   UNL     1      44.790 -21.633   4.058  1.00  0.00     0.001 A 
HETATM   23  C   UNL     1      44.590 -20.271   4.285  1.00  0.00     0.009 A 
ENDBRANCH  17  18
ENDBRANCH  16  17
ENDBRANCH  13  16
ENDBRANCH   7   9
ENDBRANCH   6   7
BRANCH   1  24
HETATM   24  C   UNL     1      40.198 -14.474  -1.619  1.00  0.00    -0.028 A 
HETATM   25  C   UNL     1      40.903 -15.575  -2.143  1.00  0.00     0.012 A 
HETATM   26  C   UNL     1      40.457 -16.225  -3.294  1.00  0.00     0.040 A 
HETATM   27  C   UNL     1      39.298 -15.790  -3.915  1.00  0.00     0.099 A 
HETATM   28  C   UNL     1      38.552 -14.731  -3.396  1.00  0.00     0.102 A 
HETATM   29  C   UNL     1      39.014 -14.057  -2.264  1.00  0.00     0.049 A 
BRANCH  27  30
HETATM   30  O   UNL     1      38.894 -16.433  -5.050  1.00  0.00    -0.358 OA
HETATM   31  H   UNL     1      38.525 -17.290  -4.761  1.00  0.00     0.218 HD
ENDBRANCH  27  30
BRANCH  28  32
HETATM   32  O   UNL     1      37.427 -14.388  -4.098  1.00  0.00    -0.349 OA
BRANCH  32  33
HETATM   33  C   UNL     1      36.878 -13.107  -3.772  1.00  0.00     0.171 C 
HETATM   34  C   UNL     1      36.044 -12.641  -4.951  1.00  0.00     0.034 C 
ENDBRANCH  32  33
ENDBRANCH  28  32
ENDBRANCH   1  24
BRANCH   5  35
HETATM   35  O   UNL     1      38.985 -11.147   1.512  1.00  0.00    -0.355 OA
HETATM   36  H   UNL     1      38.964 -10.248   1.128  1.00  0.00     0.218 HD
ENDBRANCH   5  35
BRANCH   2  37
HETATM   37  C   UNL     1      42.410 -12.301  -1.865  1.00  0.00     0.155 C 
BRANCH  37  38
HETATM   38  C   UNL     1      41.949 -12.146  -3.331  1.00  0.00     0.255 C 
BRANCH  38  39
HETATM   39  N   UNL     1      41.534 -10.725  -3.649  1.00  0.00    -0.066 N 
HETATM   40  H   UNL     1      41.593 -10.182  -2.774  1.00  0.00     0.280 HD
HETATM   41  C   UNL     1      42.475  -9.994  -4.600  1.00  0.00     0.261 C 
HETATM   42  C   UNL     1      41.993  -8.545  -4.764  1.00  0.00     0.195 C 
HETATM   43  O   UNL     1      40.645  -8.506  -5.247  1.00  0.00    -0.388 OA
HETATM   44  C   UNL     1      39.738  -9.145  -4.340  1.00  0.00     0.195 C 
HETATM   45  C   UNL     1      40.101 -10.622  -4.146  1.00  0.00     0.261 C 
ENDBRANCH  38  39
ENDBRANCH  37  38
ENDBRANCH   2  37
TORSDOF 13
ENDMDL
MODEL 3
REMARK VINA RESULT:      -8.8      4.529      8.190
REMARK  13 active torsions:
REMARK  status: ('A' for Active; 'I' for Inactive)
REMARK    1  A    between atoms: C_2  and  O_3 
REMARK    2  A    between atoms: O_3  and  C_4 
REMARK    3  A    between atoms: C_5  and  O_6 
REMARK    4  A    between atoms: C_9  and  C_10 
REMARK    5  A    between atoms: N_11  and  C_12 
REMARK    6  A    between atoms: C_12  and  C_13 
REMARK    7  A    between atoms: C_13  and  N_14 
REMARK    8  A    between atoms: C_23  and  O_24 
REMARK    9  A    between atoms: C_25  and  C_26 
REMARK   10  A    between atoms: C_26  and  C_27 
REMARK   11  A    between atoms: C_31  and  O_32 
REMARK   12  A    between atoms: O_32  and  C_33 
REMARK   13  A    between atoms: C_33  and  C_34 
ROOT
HETATM    1  C   UNL     1      39.996 -12.979   5.153  1.00  0.00     0.161 A 
HETATM    2  N   UNL     1      40.007 -11.947   6.190  1.00  0.00    -0.332 N 
HETATM    3  C   UNL     1      40.575 -10.786   5.735  1.00  0.00     0.278 A 
HETATM    4  O   UNL     1      40.884  -9.821   6.413  1.00  0.00    -0.265 OA
HETATM    5  C   UNL     1      40.871 -10.949   4.305  1.00  0.00     0.146 A 
HETATM    6  C   UNL     1      40.536 -12.206   3.980  1.00  0.00     0.059 A 
ENDROOT
BRANCH   6   7
HETATM    7  C   UNL     1      40.602 -12.852   2.650  1.00  0.00     0.194 C 
HETATM    8  O   UNL     1      39.976 -12.402   1.700  1.00  0.00    -0.287 OA
BRANCH   7   9
HETATM    9  C   UNL     1      41.462 -14.038   2.488  1.00  0.00     0.021 A 
HETATM   10  C   UNL     1      40.913 -15.309   2.261  1.00  0.00    -0.045 A 
HETATM   11  C   UNL     1      39.451 -15.519   2.006  1.00  0.00     0.049 C 
HETATM   12  C   UNL     1      41.786 -16.409   2.239  1.00  0.00     0.044 A 
HETATM   13  C   UNL     1      43.159 -16.250   2.460  1.00  0.00     0.069 A 
HETATM   14  C   UNL     1      43.691 -14.972   2.621  1.00  0.00     0.038 A 
HETATM   15  C   UNL     1      42.844 -13.861   2.634  1.00  0.00     0.019 A 
BRANCH  13  16
HETATM   16  O   UNL     1      43.875 -17.416   2.483  1.00  0.00    -0.347 OA
BRANCH  16  17
HETATM   17  C   UNL     1      43.804 -18.173   3.692  1.00  0.00     0.214 C 
BRANCH  17  18
HETATM   18  C   UNL     1      44.033 -19.625   3.359  1.00  0.00    -0.034 A 
HETATM   19  C   UNL     1      43.637 -20.137   2.115  1.00  0.00     0.009 A 
HETATM   20  C   UNL     1      43.846 -21.481   1.803  1.00  0.00     0.001 A 
HETATM   21  C   UNL     1      44.447 -22.328   2.733  1.00  0.00     0.000 A 
HETATM   22  C   UNL     1      44.831 -21.835   3.978  1.00  0.00     0.001 A 
HETATM   23  C   UNL     1      44.622 -20.491   4.292  1.00  0.00     0.009 A 
ENDBRANCH  17  18
ENDBRANCH  16  17
ENDBRANCH  13  16
ENDBRANCH   7   9
ENDBRANCH   6   7
BRANCH   1  24
HETATM   24  C   UNL     1      40.825 -14.167   5.612  1.00  0.00    -0.028 A 
HETATM   25  C   UNL     1      40.187 -15.408   5.800  1.00  0.00     0.012 A 
HETATM   26  C   UNL     1      40.881 -16.494   6.331  1.00  0.00     0.040 A 
HETATM   27  C   UNL     1      42.220 -16.351   6.659  1.00  0.00     0.099 A 
HETATM   28  C   UNL     1      42.893 -15.149   6.444  1.00  0.00     0.102 A 
HETATM   29  C   UNL     1      42.191 -14.050   5.944  1.00  0.00     0.049 A 
BRANCH  27  30
HETATM   30  O   UNL     1      42.870 -17.426   7.194  1.00  0.00    -0.358 OA
HETATM   31  H   UNL     1      43.167 -17.151   8.083  1.00  0.00     0.218 HD
ENDBRANCH  27  30
BRANCH  28  32
HETATM   32  O   UNL     1      44.212 -15.125   6.811  1.00  0.00    -0.349 OA
BRANCH  32  33
HETATM   33  C   UNL     1      44.868 -13.866   6.630  1.00  0.00     0.171 C 
HETATM   34  C   UNL     1      45.089 -13.251   8.001  1.00  0.00     0.034 C 
ENDBRANCH  32  33
ENDBRANCH  28  32
ENDBRANCH   1  24
BRANCH   5  35
HETATM   35  O   UNL     1      41.393  -9.958   3.535  1.00  0.00    -0.355 OA
HETATM   36  H   UNL     1      40.802  -9.836   2.766  1.00  0.00     0.218 HD
ENDBRANCH   5  35
BRANCH   2  37
HETATM   37  C   UNL     1      39.458 -12.138   7.533  1.00  0.00     0.155 C 
BRANCH  37  38
HETATM   38  C   UNL     1      39.645 -10.928   8.474  1.00  0.00     0.255 C 
BRANCH  38  39
HETATM   39  N   UNL     1      40.659 -11.207   9.564  1.00  0.00    -0.066 N 
HETATM   40  H   UNL     1      40.838 -12.223   9.567  1.00  0.00     0.280 HD
HETATM   41  C   UNL     1      42.032 -10.591   9.317  1.00  0.00     0.261 C 
HETATM   42  C   UNL     1      42.983 -11.025  10.441  1.00  0.00     0.195 C 
HETATM   43  O   UNL     1      42.471 -10.638  11.722  1.00  0.00    -0.388 OA
HETATM   44  C   UNL     1      41.203 -11.248  11.993  1.00  0.00     0.195 C 
HETATM   45  C   UNL     1      40.158 -10.835  10.950  1.00  0.00     0.261 C 
ENDBRANCH  38  39
ENDBRANCH  37  38
ENDBRANCH   2  37
TORSDOF 13
ENDMDL
MODEL 4
REMARK VINA RESULT:      -8.6      2.735      5.059
REMARK  13 active torsions:
REMARK  status: ('A' for Active; 'I' for Inactive)
REMARK    1  A    between atoms: C_2  and  O_3 
REMARK    2  A    between atoms: O_3  and  C_4 
REMARK    3  A    between atoms: C_5  and  O_6 
REMARK    4  A    between atoms: C_9  and  C_10 
REMARK    5  A    between atoms: N_11  and  C_12 
REMARK    6  A    between atoms: C_12  and  C_13 
REMARK    7  A    between atoms: C_13  and  N_14 
REMARK    8  A    between atoms: C_23  and  O_24 
REMARK    9  A    between atoms: C_25  and  C_26 
REMARK   10  A    between atoms: C_26  and  C_27 
REMARK   11  A    between atoms: C_31  and  O_32 
REMARK   12  A    between atoms: O_32  and  C_33 
REMARK   13  A    between atoms: C_33  and  C_34 
ROOT
HETATM    1  C   UNL     1      40.598 -12.402   3.053  1.00  0.00     0.161 A 
HETATM    2  N   UNL     1      40.218 -11.400   2.057  1.00  0.00    -0.332 N 
HETATM    3  C   UNL     1      39.058 -10.761   2.408  1.00  0.00     0.278 A 
HETATM    4  O   UNL     1      38.404 -10.014   1.699  1.00  0.00    -0.265 OA
HETATM    5  C   UNL     1      38.659 -11.231   3.741  1.00  0.00     0.146 A 
HETATM    6  C   UNL     1      39.547 -12.168   4.104  1.00  0.00     0.059 A 
ENDROOT
BRANCH   6   7
HETATM    7  C   UNL     1      39.611 -12.918   5.378  1.00  0.00     0.194 C 
HETATM    8  O   UNL     1      38.740 -12.790   6.229  1.00  0.00    -0.287 OA
BRANCH   7   9
HETATM    9  C   UNL     1      40.737 -13.846   5.591  1.00  0.00     0.021 A 
HETATM   10  C   UNL     1      42.016 -13.374   5.921  1.00  0.00    -0.045 A 
HETATM   11  C   UNL     1      42.284 -11.933   6.239  1.00  0.00     0.049 C 
HETATM   12  C   UNL     1      43.065 -14.305   5.988  1.00  0.00     0.044 A 
HETATM   13  C   UNL     1      42.850 -15.660   5.712  1.00  0.00     0.069 A 
HETATM   14  C   UNL     1      41.560 -16.117   5.446  1.00  0.00     0.038 A 
HETATM   15  C   UNL     1      40.499 -15.211   5.387  1.00  0.00     0.019 A 
BRANCH  13  16
HETATM   16  O   UNL     1      43.975 -16.437   5.743  1.00  0.00    -0.347 OA
BRANCH  16  17
HETATM   17  C   UNL     1      44.168 -17.217   6.923  1.00  0.00     0.214 C 
BRANCH  17  18
HETATM   18  C   UNL     1      44.240 -18.671   6.529  1.00  0.00    -0.034 A 
HETATM   19  C   UNL     1      44.862 -19.049   5.330  1.00  0.00     0.009 A 
HETATM   20  C   UNL     1      44.929 -20.393   4.960  1.00  0.00     0.001 A 
HETATM   21  C   UNL     1      44.369 -21.371   5.781  1.00  0.00     0.000 A 
HETATM   22  C   UNL     1      43.735 -21.007   6.966  1.00  0.00     0.001 A 
HETATM   23  C   UNL     1      43.666 -19.662   7.337  1.00  0.00     0.009 A 
ENDBRANCH  17  18
ENDBRANCH  16  17
ENDBRANCH  13  16
ENDBRANCH   7   9
ENDBRANCH   6   7
BRANCH   1  24
HETATM   24  C   UNL     1      40.609 -13.778   2.409  1.00  0.00    -0.028 A 
HETATM   25  C   UNL     1      39.394 -14.479   2.284  1.00  0.00     0.012 A 
HETATM   26  C   UNL     1      39.372 -15.789   1.808  1.00  0.00     0.040 A 
HETATM   27  C   UNL     1      40.560 -16.398   1.437  1.00  0.00     0.099 A 
HETATM   28  C   UNL     1      41.776 -15.717   1.507  1.00  0.00     0.102 A 
HETATM   29  C   UNL     1      41.804 -14.417   2.015  1.00  0.00     0.049 A 
BRANCH  27  30
HETATM   30  O   UNL     1      40.511 -17.688   0.991  1.00  0.00    -0.358 OA
HETATM   31  H   UNL     1      39.580 -17.971   1.075  1.00  0.00     0.218 HD
ENDBRANCH  27  30
BRANCH  28  32
HETATM   32  O   UNL     1      42.883 -16.422   1.118  1.00  0.00    -0.349 OA
BRANCH  32  33
HETATM   33  C   UNL     1      43.669 -16.955   2.189  1.00  0.00     0.171 C 
HETATM   34  C   UNL     1      43.915 -18.426   1.904  1.00  0.00     0.034 C 
ENDBRANCH  32  33
ENDBRANCH  28  32
ENDBRANCH   1  24
BRANCH   5  35
HETATM   35  O   UNL     1      37.575 -10.753   4.406  1.00  0.00    -0.355 OA
HETATM   36  H   UNL     1      37.688  -9.787   4.506  1.00  0.00     0.218 HD
ENDBRANCH   5  35
BRANCH   2  37
HETATM   37  C   UNL     1      40.999 -11.113   0.854  1.00  0.00     0.155 C 
BRANCH  37  38
HETATM   38  C   UNL     1      40.272 -11.440  -0.469  1.00  0.00     0.255 C 
BRANCH  38  39
HETATM   39  N   UNL     1      40.958 -12.555  -1.232  1.00  0.00    -0.066 N 
HETATM   40  H   UNL     1      41.792 -12.832  -0.693  1.00  0.00     0.280 HD
HETATM   41  C   UNL     1      40.142 -13.839  -1.337  1.00  0.00     0.261 C 
HETATM   42  C   UNL     1      40.982 -14.909  -2.048  1.00  0.00     0.195 C 
HETATM   43  O   UNL     1      41.395 -14.456  -3.344  1.00  0.00    -0.388 OA
HETATM   44  C   UNL     1      42.205 -13.278  -3.262  1.00  0.00     0.195 C 
HETATM   45  C   UNL     1      41.436 -12.124  -2.610  1.00  0.00     0.261 C 
ENDBRANCH  38  39
ENDBRANCH  37  38
ENDBRANCH   2  37
TORSDOF 13
ENDMDL
MODEL 5
REMARK VINA RESULT:      -8.5      2.679      5.667
REMARK  13 active torsions:
REMARK  status: ('A' for Active; 'I' for Inactive)
REMARK    1  A    between atoms: C_2  and  O_3 
REMARK    2  A    between atoms: O_3  and  C_4 
REMARK    3  A    between atoms: C_5  and  O_6 
REMARK    4  A    between atoms: C_9  and  C_10 
REMARK    5  A    between atoms: N_11  and  C_12 
REMARK    6  A    between atoms: C_12  and  C_13 
REMARK    7  A    between atoms: C_13  and  N_14 
REMARK    8  A    between atoms: C_23  and  O_24 
REMARK    9  A    between atoms: C_25  and  C_26 
REMARK   10  A    between atoms: C_26  and  C_27 
REMARK   11  A    between atoms: C_31  and  O_32 
REMARK   12  A    between atoms: O_32  and  C_33 
REMARK   13  A    between atoms: C_33  and  C_34 
ROOT
HETATM    1  C   UNL     1      40.751 -11.895   0.526  1.00  0.00     0.161 A 
HETATM    2  N   UNL     1      41.662 -10.813   0.154  1.00  0.00    -0.332 N 
HETATM    3  C   UNL     1      42.582 -11.231  -0.772  1.00  0.00     0.278 A 
HETATM    4  O   UNL     1      43.570 -10.614  -1.136  1.00  0.00    -0.265 OA
HETATM    5  C   UNL     1      42.250 -12.608  -1.161  1.00  0.00     0.146 A 
HETATM    6  C   UNL     1      41.201 -12.980  -0.415  1.00  0.00     0.059 A 
ENDROOT
BRANCH   6   7
HETATM    7  C   UNL     1      40.462 -14.261  -0.456  1.00  0.00     0.194 C 
HETATM    8  O   UNL     1      39.547 -14.435  -1.249  1.00  0.00    -0.287 OA
BRANCH   7   9
HETATM    9  C   UNL     1      40.871 -15.337   0.466  1.00  0.00     0.021 A 
HETATM   10  C   UNL     1      40.090 -15.674   1.583  1.00  0.00    -0.045 A 
HETATM   11  C   UNL     1      38.730 -15.089   1.818  1.00  0.00     0.049 C 
HETATM   12  C   UNL     1      40.602 -16.623   2.482  1.00  0.00     0.044 A 
HETATM   13  C   UNL     1      41.862 -17.201   2.287  1.00  0.00     0.069 A 
HETATM   14  C   UNL     1      42.593 -16.898   1.139  1.00  0.00     0.038 A 
HETATM   15  C   UNL     1      42.098 -15.966   0.224  1.00  0.00     0.019 A 
BRANCH  13  16
HETATM   16  O   UNL     1      42.262 -18.052   3.280  1.00  0.00    -0.347 OA
BRANCH  16  17
HETATM   17  C   UNL     1      43.672 -18.233   3.422  1.00  0.00     0.214 C 
BRANCH  17  18
HETATM   18  C   UNL     1      43.983 -19.700   3.262  1.00  0.00    -0.034 A 
HETATM   19  C   UNL     1      43.644 -20.370   2.078  1.00  0.00     0.009 A 
HETATM   20  C   UNL     1      43.929 -21.727   1.926  1.00  0.00     0.001 A 
HETATM   21  C   UNL     1      44.549 -22.430   2.958  1.00  0.00     0.000 A 
HETATM   22  C   UNL     1      44.877 -21.779   4.145  1.00  0.00     0.001 A 
HETATM   23  C   UNL     1      44.592 -20.421   4.299  1.00  0.00     0.009 A 
ENDBRANCH  17  18
ENDBRANCH  16  17
ENDBRANCH  13  16
ENDBRANCH   7   9
ENDBRANCH   6   7
BRANCH   1  24
HETATM   24  C   UNL     1      40.895 -12.191   2.009  1.00  0.00    -0.028 A 
HETATM   25  C   UNL     1      39.818 -11.896   2.868  1.00  0.00     0.012 A 
HETATM   26  C   UNL     1      39.947 -12.041   4.249  1.00  0.00     0.040 A 
HETATM   27  C   UNL     1      41.144 -12.498   4.776  1.00  0.00     0.099 A 
HETATM   28  C   UNL     1      42.215 -12.840   3.951  1.00  0.00     0.102 A 
HETATM   29  C   UNL     1      42.099 -12.664   2.571  1.00  0.00     0.049 A 
BRANCH  27  30
HETATM   30  O   UNL     1      41.248 -12.613   6.133  1.00  0.00    -0.358 OA
HETATM   31  H   UNL     1      40.713 -11.888   6.511  1.00  0.00     0.218 HD
ENDBRANCH  27  30
BRANCH  28  32
HETATM   32  O   UNL     1      43.347 -13.275   4.586  1.00  0.00    -0.349 OA
BRANCH  32  33
HETATM   33  C   UNL     1      43.606 -14.678   4.469  1.00  0.00     0.171 C 
HETATM   34  C   UNL     1      43.571 -15.279   5.863  1.00  0.00     0.034 C 
ENDBRANCH  32  33
ENDBRANCH  28  32
ENDBRANCH   1  24
BRANCH   5  35
HETATM   35  O   UNL     1      42.938 -13.301  -2.106  1.00  0.00    -0.355 OA
HETATM   36  H   UNL     1      43.763 -12.810  -2.295  1.00  0.00     0.218 HD
ENDBRANCH   5  35
BRANCH   2  37
HETATM   37  C   UNL     1      41.579  -9.456   0.694  1.00  0.00     0.155 C 
BRANCH  37  38
HETATM   38  C   UNL     1      40.353  -8.652   0.207  1.00  0.00     0.255 C 
BRANCH  38  39
HETATM   39  N   UNL     1      39.406  -8.318   1.340  1.00  0.00    -0.066 N 
HETATM   40  H   UNL     1      39.082  -7.349   1.198  1.00  0.00     0.280 HD
HETATM   41  C   UNL     1      38.122  -9.140   1.349  1.00  0.00     0.261 C 
HETATM   42  C   UNL     1      37.217  -8.641   2.485  1.00  0.00     0.195 C 
HETATM   43  O   UNL     1      37.889  -8.727   3.748  1.00  0.00    -0.388 OA
HETATM   44  C   UNL     1      39.072  -7.920   3.776  1.00  0.00     0.195 C 
HETATM   45  C   UNL     1      40.073  -8.372   2.706  1.00  0.00     0.261 C 
ENDBRANCH  38  39
ENDBRANCH  37  38
ENDBRANCH   2  37
TORSDOF 13
ENDMDL
MODEL 6
REMARK VINA RESULT:      -8.4      2.866      4.647
REMARK  13 active torsions:
REMARK  status: ('A' for Active; 'I' for Inactive)
REMARK    1  A    between atoms: C_2  and  O_3 
REMARK    2  A    between atoms: O_3  and  C_4 
REMARK    3  A    between atoms: C_5  and  O_6 
REMARK    4  A    between atoms: C_9  and  C_10 
REMARK    5  A    between atoms: N_11  and  C_12 
REMARK    6  A    between atoms: C_12  and  C_13 
REMARK    7  A    between atoms: C_13  and  N_14 
REMARK    8  A    between atoms: C_23  and  O_24 
REMARK    9  A    between atoms: C_25  and  C_26 
REMARK   10  A    between atoms: C_26  and  C_27 
REMARK   11  A    between atoms: C_31  and  O_32 
REMARK   12  A    between atoms: O_32  and  C_33 
REMARK   13  A    between atoms: C_33  and  C_34 
ROOT
HETATM    1  C   UNL     1      41.202 -12.246   3.507  1.00  0.00     0.161 A 
HETATM    2  N   UNL     1      40.060 -11.380   3.803  1.00  0.00    -0.332 N 
HETATM    3  C   UNL     1      39.478 -11.711   4.999  1.00  0.00     0.278 A 
HETATM    4  O   UNL     1      38.413 -11.292   5.422  1.00  0.00    -0.265 OA
HETATM    5  C   UNL     1      40.290 -12.758   5.631  1.00  0.00     0.146 A 
HETATM    6  C   UNL     1      41.275 -13.057   4.773  1.00  0.00     0.059 A 
ENDROOT
BRANCH   6   7
HETATM    7  C   UNL     1      42.383 -14.020   4.957  1.00  0.00     0.194 C 
HETATM    8  O   UNL     1      43.283 -13.800   5.757  1.00  0.00    -0.287 OA
BRANCH   7   9
HETATM    9  C   UNL     1      42.368 -15.267   4.170  1.00  0.00     0.021 A 
HETATM   10  C   UNL     1      41.628 -16.383   4.590  1.00  0.00    -0.045 A 
HETATM   11  C   UNL     1      40.687 -16.331   5.757  1.00  0.00     0.049 C 
HETATM   12  C   UNL     1      41.758 -17.574   3.858  1.00  0.00     0.044 A 
HETATM   13  C   UNL     1      42.615 -17.657   2.755  1.00  0.00     0.069 A 
HETATM   14  C   UNL     1      43.293 -16.519   2.318  1.00  0.00     0.038 A 
HETATM   15  C   UNL     1      43.170 -15.321   3.024  1.00  0.00     0.019 A 
BRANCH  13  16
HETATM   16  O   UNL     1      42.697 -18.897   2.183  1.00  0.00    -0.347 OA
BRANCH  16  17
HETATM   17  C   UNL     1      44.015 -19.397   1.953  1.00  0.00     0.214 C 
BRANCH  17  18
HETATM   18  C   UNL     1      44.309 -20.459   2.981  1.00  0.00    -0.034 A 
HETATM   19  C   UNL     1      44.550 -20.105   4.316  1.00  0.00     0.009 A 
HETATM   20  C   UNL     1      44.824 -21.084   5.271  1.00  0.00     0.001 A 
HETATM   21  C   UNL     1      44.866 -22.427   4.900  1.00  0.00     0.000 A 
HETATM   22  C   UNL     1      44.643 -22.792   3.574  1.00  0.00     0.001 A 
HETATM   23  C   UNL     1      44.369 -21.812   2.618  1.00  0.00     0.009 A 
ENDBRANCH  17  18
ENDBRANCH  16  17
ENDBRANCH  13  16
ENDBRANCH   7   9
ENDBRANCH   6   7
BRANCH   1  24
HETATM   24  C   UNL     1      40.933 -13.019   2.228  1.00  0.00    -0.028 A 
HETATM   25  C   UNL     1      39.911 -13.989   2.223  1.00  0.00     0.012 A 
HETATM   26  C   UNL     1      39.707 -14.804   1.110  1.00  0.00     0.040 A 
HETATM   27  C   UNL     1      40.509 -14.642  -0.008  1.00  0.00     0.099 A 
HETATM   28  C   UNL     1      41.500 -13.661  -0.052  1.00  0.00     0.102 A 
HETATM   29  C   UNL     1      41.729 -12.868   1.073  1.00  0.00     0.049 A 
BRANCH  27  30
HETATM   30  O   UNL     1      40.298 -15.465  -1.077  1.00  0.00    -0.358 OA
HETATM   31  H   UNL     1      39.755 -14.957  -1.711  1.00  0.00     0.218 HD
ENDBRANCH  27  30
BRANCH  28  32
HETATM   32  O   UNL     1      42.232 -13.598  -1.208  1.00  0.00    -0.349 OA
BRANCH  32  33
HETATM   33  C   UNL     1      42.137 -12.358  -1.917  1.00  0.00     0.171 C 
HETATM   34  C   UNL     1      41.428 -12.623  -3.233  1.00  0.00     0.034 C 
ENDBRANCH  32  33
ENDBRANCH  28  32
ENDBRANCH   1  24
BRANCH   5  35
HETATM   35  O   UNL     1      40.016 -13.273   6.859  1.00  0.00    -0.355 OA
HETATM   36  H   UNL     1      40.750 -13.027   7.456  1.00  0.00     0.218 HD
ENDBRANCH   5  35
BRANCH   2  37
HETATM   37  C   UNL     1      39.619 -10.290   2.933  1.00  0.00     0.155 C 
BRANCH  37  38
HETATM   38  C   UNL     1      38.346 -10.603   2.116  1.00  0.00     0.255 C 
BRANCH  38  39
HETATM   39  N   UNL     1      38.661 -10.884   0.661  1.00  0.00    -0.066 N 
HETATM   40  H   UNL     1      39.564 -11.382   0.630  1.00  0.00     0.280 HD
HETATM   41  C   UNL     1      37.688 -11.841  -0.019  1.00  0.00     0.261 C 
HETATM   42  C   UNL     1      38.171 -12.110  -1.452  1.00  0.00     0.195 C 
HETATM   43  O   UNL     1      38.287 -10.887  -2.190  1.00  0.00    -0.388 OA
HETATM   44  C   UNL     1      39.236  -9.995  -1.593  1.00  0.00     0.195 C 
HETATM   45  C   UNL     1      38.818  -9.618  -0.167  1.00  0.00     0.261 C 
ENDBRANCH  38  39
ENDBRANCH  37  38
ENDBRANCH   2  37
TORSDOF 13
ENDMDL
MODEL 7
REMARK VINA RESULT:      -8.2      2.630      4.407
REMARK  13 active torsions:
REMARK  status: ('A' for Active; 'I' for Inactive)
REMARK    1  A    between atoms: C_2  and  O_3 
REMARK    2  A    between atoms: O_3  and  C_4 
REMARK    3  A    between atoms: C_5  and  O_6 
REMARK    4  A    between atoms: C_9  and  C_10 
REMARK    5  A    between atoms: N_11  and  C_12 
REMARK    6  A    between atoms: C_12  and  C_13 
REMARK    7  A    between atoms: C_13  and  N_14 
REMARK    8  A    between atoms: C_23  and  O_24 
REMARK    9  A    between atoms: C_25  and  C_26 
REMARK   10  A    between atoms: C_26  and  C_27 
REMARK   11  A    between atoms: C_31  and  O_32 
REMARK   12  A    between atoms: O_32  and  C_33 
REMARK   13  A    between atoms: C_33  and  C_34 
ROOT
HETATM    1  C   UNL     1      40.766 -13.143   1.025  1.00  0.00     0.161 A 
HETATM    2  N   UNL     1      39.415 -12.584   0.990  1.00  0.00    -0.332 N 
HETATM    3  C   UNL     1      38.471 -13.535   1.276  1.00  0.00     0.278 A 
HETATM    4  O   UNL     1      37.264 -13.416   1.149  1.00  0.00    -0.265 OA
HETATM    5  C   UNL     1      39.168 -14.776   1.642  1.00  0.00     0.146 A 
HETATM    6  C   UNL     1      40.479 -14.543   1.497  1.00  0.00     0.059 A 
ENDROOT
BRANCH   6   7
HETATM    7  C   UNL     1      41.605 -15.460   1.780  1.00  0.00     0.194 C 
HETATM    8  O   UNL     1      42.296 -15.907   0.874  1.00  0.00    -0.287 OA
BRANCH   7   9
HETATM    9  C   UNL     1      41.894 -15.806   3.184  1.00  0.00     0.021 A 
HETATM   10  C   UNL     1      42.840 -15.087   3.931  1.00  0.00    -0.045 A 
HETATM   11  C   UNL     1      43.488 -13.837   3.416  1.00  0.00     0.049 C 
HETATM   12  C   UNL     1      43.151 -15.549   5.219  1.00  0.00     0.044 A 
HETATM   13  C   UNL     1      42.555 -16.704   5.739  1.00  0.00     0.069 A 
HETATM   14  C   UNL     1      41.573 -17.367   5.005  1.00  0.00     0.038 A 
HETATM   15  C   UNL     1      41.238 -16.918   3.725  1.00  0.00     0.019 A 
BRANCH  13  16
HETATM   16  O   UNL     1      43.008 -17.076   6.975  1.00  0.00    -0.347 OA
BRANCH  16  17
HETATM   17  C   UNL     1      44.352 -17.555   7.035  1.00  0.00     0.214 C 
BRANCH  17  18
HETATM   18  C   UNL     1      44.373 -18.979   6.539  1.00  0.00    -0.034 A 
HETATM   19  C   UNL     1      44.992 -19.294   5.321  1.00  0.00     0.009 A 
HETATM   20  C   UNL     1      45.013 -20.610   4.857  1.00  0.00     0.001 A 
HETATM   21  C   UNL     1      44.411 -21.622   5.602  1.00  0.00     0.000 A 
HETATM   22  C   UNL     1      43.780 -21.320   6.806  1.00  0.00     0.001 A 
HETATM   23  C   UNL     1      43.757 -20.003   7.271  1.00  0.00     0.009 A 
ENDBRANCH  17  18
ENDBRANCH  16  17
ENDBRANCH  13  16
ENDBRANCH   7   9
ENDBRANCH   6   7
BRANCH   1  24
HETATM   24  C   UNL     1      41.404 -13.014  -0.347  1.00  0.00    -0.028 A 
HETATM   25  C   UNL     1      42.335 -11.982  -0.570  1.00  0.00     0.012 A 
HETATM   26  C   UNL     1      42.857 -11.753  -1.843  1.00  0.00     0.040 A 
HETATM   27  C   UNL     1      42.465 -12.566  -2.894  1.00  0.00     0.099 A 
HETATM   28  C   UNL     1      41.579 -13.625  -2.699  1.00  0.00     0.102 A 
HETATM   29  C   UNL     1      41.029 -13.834  -1.433  1.00  0.00     0.049 A 
BRANCH  27  30
HETATM   30  O   UNL     1      42.978 -12.308  -4.133  1.00  0.00    -0.358 OA
HETATM   31  H   UNL     1      42.319 -12.635  -4.776  1.00  0.00     0.218 HD
ENDBRANCH  27  30
BRANCH  28  32
HETATM   32  O   UNL     1      41.262 -14.356  -3.813  1.00  0.00    -0.349 OA
BRANCH  32  33
HETATM   33  C   UNL     1      40.584 -15.590  -3.554  1.00  0.00     0.171 C 
HETATM   34  C   UNL     1      39.130 -15.419  -3.953  1.00  0.00     0.034 C 
ENDBRANCH  32  33
ENDBRANCH  28  32
ENDBRANCH   1  24
BRANCH   5  35
HETATM   35  O   UNL     1      38.521 -15.905   2.036  1.00  0.00    -0.355 OA
HETATM   36  H   UNL     1      38.972 -16.667   1.622  1.00  0.00     0.218 HD
ENDBRANCH   5  35
BRANCH   2  37
HETATM   37  C   UNL     1      39.123 -11.179   0.703  1.00  0.00     0.155 C 
BRANCH  37  38
HETATM   38  C   UNL     1      38.693 -10.353   1.935  1.00  0.00     0.255 C 
BRANCH  38  39
HETATM   39  N   UNL     1      39.483 -10.726   3.172  1.00  0.00    -0.066 N 
HETATM   40  H   UNL     1      40.131 -11.485   2.909  1.00  0.00     0.280 HD
HETATM   41  C   UNL     1      40.400  -9.622   3.688  1.00  0.00     0.261 C 
HETATM   42  C   UNL     1      41.206 -10.158   4.880  1.00  0.00     0.195 C 
HETATM   43  O   UNL     1      40.334 -10.627   5.916  1.00  0.00    -0.388 OA
HETATM   44  C   UNL     1      39.500 -11.700   5.464  1.00  0.00     0.195 C 
HETATM   45  C   UNL     1      38.609 -11.252   4.299  1.00  0.00     0.261 C 
ENDBRANCH  38  39
ENDBRANCH  37  38
ENDBRANCH   2  37
TORSDOF 13
ENDMDL
MODEL 8
REMARK VINA RESULT:      -8.1      2.648      5.259
REMARK  13 active torsions:
REMARK  status: ('A' for Active; 'I' for Inactive)
REMARK    1  A    between atoms: C_2  and  O_3 
REMARK    2  A    between atoms: O_3  and  C_4 
REMARK    3  A    between atoms: C_5  and  O_6 
REMARK    4  A    between atoms: C_9  and  C_10 
REMARK    5  A    between atoms: N_11  and  C_12 
REMARK    6  A    between atoms: C_12  and  C_13 
REMARK    7  A    between atoms: C_13  and  N_14 
REMARK    8  A    between atoms: C_23  and  O_24 
REMARK    9  A    between atoms: C_25  and  C_26 
REMARK   10  A    between atoms: C_26  and  C_27 
REMARK   11  A    between atoms: C_31  and  O_32 
REMARK   12  A    between atoms: O_32  and  C_33 
REMARK   13  A    between atoms: C_33  and  C_34 
ROOT
HETATM    1  C   UNL     1      40.965 -12.080   0.629  1.00  0.00     0.161 A 
HETATM    2  N   UNL     1      41.850 -11.001   0.190  1.00  0.00    -0.332 N 
HETATM    3  C   UNL     1      42.666 -11.408  -0.832  1.00  0.00     0.278 A 
HETATM    4  O   UNL     1      43.621 -10.795  -1.280  1.00  0.00    -0.265 OA
HETATM    5  C   UNL     1      42.278 -12.772  -1.216  1.00  0.00     0.146 A 
HETATM    6  C   UNL     1      41.303 -13.148  -0.376  1.00  0.00     0.059 A 
ENDROOT
BRANCH   6   7
HETATM    7  C   UNL     1      40.546 -14.420  -0.370  1.00  0.00     0.194 C 
HETATM    8  O   UNL     1      39.593 -14.589  -1.119  1.00  0.00    -0.287 OA
BRANCH   7   9
HETATM    9  C   UNL     1      40.982 -15.492   0.543  1.00  0.00     0.021 A 
HETATM   10  C   UNL     1      40.233 -15.828   1.681  1.00  0.00    -0.045 A 
HETATM   11  C   UNL     1      38.878 -15.245   1.953  1.00  0.00     0.049 C 
HETATM   12  C   UNL     1      40.772 -16.773   2.569  1.00  0.00     0.044 A 
HETATM   13  C   UNL     1      42.027 -17.349   2.341  1.00  0.00     0.069 A 
HETATM   14  C   UNL     1      42.725 -17.048   1.173  1.00  0.00     0.038 A 
HETATM   15  C   UNL     1      42.204 -16.120   0.269  1.00  0.00     0.019 A 
BRANCH  13  16
HETATM   16  O   UNL     1      42.456 -18.197   3.325  1.00  0.00    -0.347 OA
BRANCH  16  17
HETATM   17  C   UNL     1      43.869 -18.376   3.429  1.00  0.00     0.214 C 
BRANCH  17  18
HETATM   18  C   UNL     1      44.162 -19.854   3.464  1.00  0.00    -0.034 A 
HETATM   19  C   UNL     1      44.008 -20.633   2.309  1.00  0.00     0.009 A 
HETATM   20  C   UNL     1      44.277 -22.003   2.337  1.00  0.00     0.001 A 
HETATM   21  C   UNL     1      44.695 -22.607   3.521  1.00  0.00     0.000 A 
HETATM   22  C   UNL     1      44.837 -21.846   4.680  1.00  0.00     0.001 A 
HETATM   23  C   UNL     1      44.568 -20.477   4.653  1.00  0.00     0.009 A 
ENDBRANCH  17  18
ENDBRANCH  16  17
ENDBRANCH  13  16
ENDBRANCH   7   9
ENDBRANCH   6   7
BRANCH   1  24
HETATM   24  C   UNL     1      41.252 -12.411   2.083  1.00  0.00    -0.028 A 
HETATM   25  C   UNL     1      42.468 -13.044   2.408  1.00  0.00     0.012 A 
HETATM   26  C   UNL     1      42.724 -13.472   3.710  1.00  0.00     0.040 A 
HETATM   27  C   UNL     1      41.776 -13.254   4.697  1.00  0.00     0.099 A 
HETATM   28  C   UNL     1      40.581 -12.590   4.418  1.00  0.00     0.102 A 
HETATM   29  C   UNL     1      40.308 -12.191   3.108  1.00  0.00     0.049 A 
BRANCH  27  30
HETATM   30  O   UNL     1      42.045 -13.699   5.959  1.00  0.00    -0.358 OA
HETATM   31  H   UNL     1      42.871 -14.216   5.896  1.00  0.00     0.218 HD
ENDBRANCH  27  30
BRANCH  28  32
HETATM   32  O   UNL     1      39.719 -12.435   5.471  1.00  0.00    -0.349 OA
BRANCH  32  33
HETATM   33  C   UNL     1      39.987 -11.308   6.312  1.00  0.00     0.171 C 
HETATM   34  C   UNL     1      39.428 -11.608   7.691  1.00  0.00     0.034 C 
ENDBRANCH  32  33
ENDBRANCH  28  32
ENDBRANCH   1  24
BRANCH   5  35
HETATM   35  O   UNL     1      42.858 -13.451  -2.240  1.00  0.00    -0.355 OA
HETATM   36  H   UNL     1      42.158 -13.958  -2.697  1.00  0.00     0.218 HD
ENDBRANCH   5  35
BRANCH   2  37
HETATM   37  C   UNL     1      41.839  -9.656   0.765  1.00  0.00     0.155 C 
BRANCH  37  38
HETATM   38  C   UNL     1      40.452  -8.978   0.773  1.00  0.00     0.255 C 
BRANCH  38  39
HETATM   39  N   UNL     1      40.105  -8.379  -0.575  1.00  0.00    -0.066 N 
HETATM   40  H   UNL     1      39.595  -7.500  -0.401  1.00  0.00     0.280 HD
HETATM   41  C   UNL     1      41.313  -7.950  -1.400  1.00  0.00     0.261 C 
HETATM   42  C   UNL     1      40.822  -7.281  -2.693  1.00  0.00     0.195 C 
HETATM   43  O   UNL     1      39.980  -8.168  -3.439  1.00  0.00    -0.388 OA
HETATM   44  C   UNL     1      38.813  -8.543  -2.697  1.00  0.00     0.195 C 
HETATM   45  C   UNL     1      39.193  -9.271  -1.403  1.00  0.00     0.261 C 
ENDBRANCH  38  39
ENDBRANCH  37  38
ENDBRANCH   2  37
TORSDOF 13
ENDMDL
MODEL 9
REMARK VINA RESULT:      -7.8      2.162      4.724
REMARK  13 active torsions:
REMARK  status: ('A' for Active; 'I' for Inactive)
REMARK    1  A    between atoms: C_2  and  O_3 
REMARK    2  A    between atoms: O_3  and  C_4 
REMARK    3  A    between atoms: C_5  and  O_6 
REMARK    4  A    between atoms: C_9  and  C_10 
REMARK    5  A    between atoms: N_11  and  C_12 
REMARK    6  A    between atoms: C_12  and  C_13 
REMARK    7  A    between atoms: C_13  and  N_14 
REMARK    8  A    between atoms: C_23  and  O_24 
REMARK    9  A    between atoms: C_25  and  C_26 
REMARK   10  A    between atoms: C_26  and  C_27 
REMARK   11  A    between atoms: C_31  and  O_32 
REMARK   12  A    between atoms: O_32  and  C_33 
REMARK   13  A    between atoms: C_33  and  C_34 
ROOT
HETATM    1  C   UNL     1      39.705 -12.747   0.116  1.00  0.00     0.161 A 
HETATM    2  N   UNL     1      40.733 -11.851  -0.412  1.00  0.00    -0.332 N 
HETATM    3  C   UNL     1      41.905 -11.965   0.290  1.00  0.00     0.278 A 
HETATM    4  O   UNL     1      42.873 -11.228   0.201  1.00  0.00    -0.265 OA
HETATM    5  C   UNL     1      41.752 -13.052   1.266  1.00  0.00     0.146 A 
HETATM    6  C   UNL     1      40.491 -13.495   1.159  1.00  0.00     0.059 A 
ENDROOT
BRANCH   6   7
HETATM    7  C   UNL     1      39.851 -14.608   1.894  1.00  0.00     0.194 C 
HETATM    8  O   UNL     1      38.640 -14.775   1.855  1.00  0.00    -0.287 OA
BRANCH   7   9
HETATM    9  C   UNL     1      40.711 -15.531   2.658  1.00  0.00     0.021 A 
HETATM   10  C   UNL     1      41.355 -16.610   2.034  1.00  0.00    -0.045 A 
HETATM   11  C   UNL     1      41.349 -16.799   0.547  1.00  0.00     0.049 C 
HETATM   12  C   UNL     1      42.057 -17.517   2.845  1.00  0.00     0.044 A 
HETATM   13  C   UNL     1      42.097 -17.365   4.236  1.00  0.00     0.069 A 
HETATM   14  C   UNL     1      41.502 -16.252   4.829  1.00  0.00     0.038 A 
HETATM   15  C   UNL     1      40.809 -15.330   4.041  1.00  0.00     0.019 A 
BRANCH  13  16
HETATM   16  O   UNL     1      42.754 -18.362   4.903  1.00  0.00    -0.347 OA
BRANCH  16  17
HETATM   17  C   UNL     1      44.125 -18.556   4.552  1.00  0.00     0.214 C 
BRANCH  17  18
HETATM   18  C   UNL     1      44.321 -20.003   4.178  1.00  0.00    -0.034 A 
HETATM   19  C   UNL     1      44.684 -20.943   5.153  1.00  0.00     0.009 A 
HETATM   20  C   UNL     1      44.868 -22.283   4.811  1.00  0.00     0.001 A 
HETATM   21  C   UNL     1      44.699 -22.696   3.491  1.00  0.00     0.000 A 
HETATM   22  C   UNL     1      44.353 -21.769   2.510  1.00  0.00     0.001 A 
HETATM   23  C   UNL     1      44.169 -20.428   2.851  1.00  0.00     0.009 A 
ENDBRANCH  17  18
ENDBRANCH  16  17
ENDBRANCH  13  16
ENDBRANCH   7   9
ENDBRANCH   6   7
BRANCH   1  24
HETATM   24  C   UNL     1      38.529 -11.929   0.621  1.00  0.00    -0.028 A 
HETATM   25  C   UNL     1      38.712 -11.096   1.742  1.00  0.00     0.012 A 
HETATM   26  C   UNL     1      37.635 -10.418   2.311  1.00  0.00     0.040 A 
HETATM   27  C   UNL     1      36.374 -10.553   1.752  1.00  0.00     0.099 A 
HETATM   28  C   UNL     1      36.166 -11.335   0.615  1.00  0.00     0.102 A 
HETATM   29  C   UNL     1      37.237 -12.041   0.065  1.00  0.00     0.049 A 
BRANCH  27  30
HETATM   30  O   UNL     1      35.335  -9.891   2.340  1.00  0.00    -0.358 OA
HETATM   31  H   UNL     1      34.908  -9.370   1.633  1.00  0.00     0.218 HD
ENDBRANCH  27  30
BRANCH  28  32
HETATM   32  O   UNL     1      34.878 -11.396   0.156  1.00  0.00    -0.349 OA
BRANCH  32  33
HETATM   33  C   UNL     1      34.615 -10.614  -1.014  1.00  0.00     0.171 C 
HETATM   34  C   UNL     1      33.199 -10.077  -0.910  1.00  0.00     0.034 C 
ENDBRANCH  32  33
ENDBRANCH  28  32
ENDBRANCH   1  24
BRANCH   5  35
HETATM   35  O   UNL     1      42.754 -13.460   2.088  1.00  0.00    -0.355 OA
HETATM   36  H   UNL     1      42.602 -14.403   2.297  1.00  0.00     0.218 HD
ENDBRANCH   5  35
BRANCH   2  37
HETATM   37  C   UNL     1      40.529 -10.964  -1.557  1.00  0.00     0.155 C 
BRANCH  37  38
HETATM   38  C   UNL     1      40.705 -11.647  -2.931  1.00  0.00     0.255 C 
BRANCH  38  39
HETATM   39  N   UNL     1      40.392 -13.128  -2.872  1.00  0.00    -0.066 N 
HETATM   40  H   UNL     1      40.215 -13.368  -1.885  1.00  0.00     0.280 HD
HETATM   41  C   UNL     1      39.105 -13.526  -3.586  1.00  0.00     0.261 C 
HETATM   42  C   UNL     1      38.859 -15.027  -3.373  1.00  0.00     0.195 C 
HETATM   43  O   UNL     1      39.969 -15.799  -3.848  1.00  0.00    -0.388 OA
HETATM   44  C   UNL     1      41.179 -15.474  -3.154  1.00  0.00     0.195 C 
HETATM   45  C   UNL     1      41.546 -13.998  -3.346  1.00  0.00     0.261 C 
ENDBRANCH  38  39
ENDBRANCH  37  38
ENDBRANCH   2  37
TORSDOF 13
ENDMDL
MODEL 10
REMARK VINA RESULT:      -7.8      1.765      2.955
REMARK  13 active torsions:
REMARK  status: ('A' for Active; 'I' for Inactive)
REMARK    1  A    between atoms: C_2  and  O_3 
REMARK    2  A    between atoms: O_3  and  C_4 
REMARK    3  A    between atoms: C_5  and  O_6 
REMARK    4  A    between atoms: C_9  and  C_10 
REMARK    5  A    between atoms: N_11  and  C_12 
REMARK    6  A    between atoms: C_12  and  C_13 
REMARK    7  A    between atoms: C_13  and  N_14 
REMARK    8  A    between atoms: C_23  and  O_24 
REMARK    9  A    between atoms: C_25  and  C_26 
REMARK   10  A    between atoms: C_26  and  C_27 
REMARK   11  A    between atoms: C_31  and  O_32 
REMARK   12  A    between atoms: O_32  and  C_33 
REMARK   13  A    between atoms: C_33  and  C_34 
ROOT
HETATM    1  C   UNL     1      39.811 -12.033   0.350  1.00  0.00     0.161 A 
HETATM    2  N   UNL     1      40.066 -10.646   0.741  1.00  0.00    -0.332 N 
HETATM    3  C   UNL     1      39.665 -10.408   2.030  1.00  0.00     0.278 A 
HETATM    4  O   UNL     1      39.584  -9.318   2.570  1.00  0.00    -0.265 OA
HETATM    5  C   UNL     1      39.222 -11.681   2.616  1.00  0.00     0.146 A 
HETATM    6  C   UNL     1      39.310 -12.605   1.649  1.00  0.00     0.059 A 
ENDROOT
BRANCH   6   7
HETATM    7  C   UNL     1      39.020 -14.053   1.743  1.00  0.00     0.194 C 
HETATM    8  O   UNL     1      37.957 -14.509   1.345  1.00  0.00    -0.287 OA
BRANCH   7   9
HETATM    9  C   UNL     1      40.053 -14.941   2.307  1.00  0.00     0.021 A 
HETATM   10  C   UNL     1      40.886 -15.706   1.476  1.00  0.00    -0.045 A 
HETATM   11  C   UNL     1      40.896 -15.551  -0.015  1.00  0.00     0.049 C 
HETATM   12  C   UNL     1      41.762 -16.620   2.084  1.00  0.00     0.044 A 
HETATM   13  C   UNL     1      41.791 -16.782   3.474  1.00  0.00     0.069 A 
HETATM   14  C   UNL     1      41.000 -15.968   4.283  1.00  0.00     0.038 A 
HETATM   15  C   UNL     1      40.130 -15.043   3.701  1.00  0.00     0.019 A 
BRANCH  13  16
HETATM   16  O   UNL     1      42.639 -17.758   3.920  1.00  0.00    -0.347 OA
BRANCH  16  17
HETATM   17  C   UNL     1      43.799 -17.997   3.122  1.00  0.00     0.214 C 
BRANCH  17  18
HETATM   18  C   UNL     1      44.021 -19.485   3.035  1.00  0.00    -0.034 A 
HETATM   19  C   UNL     1      43.601 -20.199   1.904  1.00  0.00     0.009 A 
HETATM   20  C   UNL     1      43.803 -21.577   1.820  1.00  0.00     0.001 A 
HETATM   21  C   UNL     1      44.420 -22.256   2.869  1.00  0.00     0.000 A 
HETATM   22  C   UNL     1      44.829 -21.561   4.005  1.00  0.00     0.001 A 
HETATM   23  C   UNL     1      44.627 -20.183   4.090  1.00  0.00     0.009 A 
ENDBRANCH  17  18
ENDBRANCH  16  17
ENDBRANCH  13  16
ENDBRANCH   7   9
ENDBRANCH   6   7
BRANCH   1  24
HETATM   24  C   UNL     1      38.836 -12.060  -0.815  1.00  0.00    -0.028 A 
HETATM   25  C   UNL     1      37.724 -11.196  -0.790  1.00  0.00     0.012 A 
HETATM   26  C   UNL     1      36.742 -11.268  -1.778  1.00  0.00     0.040 A 
HETATM   27  C   UNL     1      36.876 -12.189  -2.804  1.00  0.00     0.099 A 
HETATM   28  C   UNL     1      37.987 -13.029  -2.882  1.00  0.00     0.102 A 
HETATM   29  C   UNL     1      38.954 -12.982  -1.876  1.00  0.00     0.049 A 
BRANCH  27  30
HETATM   30  O   UNL     1      35.892 -12.250  -3.748  1.00  0.00    -0.358 OA
HETATM   31  H   UNL     1      35.236 -12.894  -3.418  1.00  0.00     0.218 HD
ENDBRANCH  27  30
BRANCH  28  32
HETATM   32  O   UNL     1      38.008 -13.901  -3.938  1.00  0.00    -0.349 OA
BRANCH  32  33
HETATM   33  C   UNL     1      37.829 -15.278  -3.591  1.00  0.00     0.171 C 
HETATM   34  C   UNL     1      39.048 -16.045  -4.072  1.00  0.00     0.034 C 
ENDBRANCH  32  33
ENDBRANCH  28  32
ENDBRANCH   1  24
BRANCH   5  35
HETATM   35  O   UNL     1      38.811 -11.803   3.905  1.00  0.00    -0.355 OA
HETATM   36  H   UNL     1      38.703 -12.756   4.095  1.00  0.00     0.218 HD
ENDBRANCH   5  35
BRANCH   2  37
HETATM   37  C   UNL     1      40.689  -9.655  -0.136  1.00  0.00     0.155 C 
BRANCH  37  38
HETATM   38  C   UNL     1      42.197  -9.880  -0.380  1.00  0.00     0.255 C 
BRANCH  38  39
HETATM   39  N   UNL     1      42.456 -10.660  -1.652  1.00  0.00    -0.066 N 
HETATM   40  H   UNL     1      43.388 -10.387  -1.999  1.00  0.00     0.280 HD
HETATM   41  C   UNL     1      42.565 -12.168  -1.453  1.00  0.00     0.261 C 
HETATM   42  C   UNL     1      42.917 -12.826  -2.795  1.00  0.00     0.195 C 
HETATM   43  O   UNL     1      41.937 -12.510  -3.791  1.00  0.00    -0.388 OA
HETATM   44  C   UNL     1      41.856 -11.100  -4.029  1.00  0.00     0.195 C 
HETATM   45  C   UNL     1      41.456 -10.348  -2.754  1.00  0.00     0.261 C 
ENDBRANCH  38  39
ENDBRANCH  37  38
ENDBRANCH   2  37
TORSDOF 13
ENDMDL
