MODEL 1
REMARK VINA RESULT:      -8.1      0.000      0.000
REMARK  8 active torsions:
REMARK  status: ('A' for Active; 'I' for Inactive)
REMARK    1  A    between atoms: C_2  and  O_3 
REMARK    2  A    between atoms: O_3  and  C_4 
REMARK    3  A    between atoms: C_5  and  O_6 
REMARK    4  A    between atoms: O_6  and  C_7 
REMARK       I    between atoms: C_7  and  N_8 
REMARK    5  A    between atoms: C_18  and  C_19 
REMARK    6  A    between atoms: C_23  and  N_24 
REMARK    7  A    between atoms: C_31  and  C_32 
REMARK    8  A    between atoms: C_35  and  O_36 
ROOT
HETATM    1  C   UNL     1      40.870 -11.443   4.199  1.00  0.00     0.106 A 
HETATM    2  C   UNL     1      40.238 -10.170   4.770  1.00  0.00     0.081 A 
HETATM    3  C   UNL     1      40.588  -8.942   4.135  1.00  0.00     0.100 C 
HETATM    4  N   UNL     1      40.885  -7.954   3.601  1.00  0.00    -0.191 NA
HETATM    5  C   UNL     1      39.441 -10.166   5.873  1.00  0.00     0.140 A 
HETATM    6  O   UNL     1      39.129 -11.345   6.569  1.00  0.00    -0.279 OA
HETATM    7  C   UNL     1      39.704 -12.458   6.132  1.00  0.00     0.175 A 
HETATM    8  C   UNL     1      40.532 -12.620   5.052  1.00  0.00     0.040 A 
HETATM    9  N   UNL     1      39.549 -13.679   6.699  1.00  0.00    -0.256 N 
HETATM   10  H   UNL     1      39.001 -13.929   7.515  1.00  0.00     0.191 HD
HETATM   11  N   UNL     1      40.219 -14.644   6.045  1.00  0.00    -0.172 NA
HETATM   12  C   UNL     1      40.850 -14.008   5.039  1.00  0.00     0.099 A 
ENDROOT
BRANCH   1  13
HETATM   13  C   UNL     1      40.423 -11.742   2.768  1.00  0.00    -0.040 A 
HETATM   14  C   UNL     1      39.287 -12.508   2.448  1.00  0.00     0.030 A 
HETATM   15  C   UNL     1      38.979 -12.806   1.121  1.00  0.00     0.048 A 
HETATM   16  C   UNL     1      39.770 -12.290   0.093  1.00  0.00     0.131 A 
HETATM   17 BR   UNL     1      37.484 -13.915   0.762  1.00  0.00    -0.048 Br
HETATM   18  C   UNL     1      40.828 -11.416   0.368  1.00  0.00     0.104 A 
HETATM   19  C   UNL     1      41.171 -11.183   1.704  1.00  0.00     0.048 A 
BRANCH  16  20
HETATM   20  O   UNL     1      39.462 -12.616  -1.233  1.00  0.00    -0.257 OA
BRANCH  20  21
HETATM   21  C   UNL     1      40.078 -13.792  -1.648  1.00  0.00     0.368 C 
HETATM   22  N   UNL     1      39.416 -14.389  -2.709  1.00  0.00    -0.324 N 
HETATM   23  C   UNL     1      40.064 -15.487  -3.421  1.00  0.00     0.154 C 
HETATM   24  C   UNL     1      38.286 -13.776  -3.403  1.00  0.00     0.154 C 
HETATM   25  C   UNL     1      39.035 -16.478  -3.970  1.00  0.00     0.187 C 
HETATM   26  O   UNL     1      38.035 -15.806  -4.753  1.00  0.00    -0.388 OA
HETATM   27  C   UNL     1      37.333 -14.846  -3.949  1.00  0.00     0.187 C 
HETATM   28  O   UNL     1      41.081 -14.279  -1.132  1.00  0.00    -0.238 OA
ENDBRANCH  20  21
ENDBRANCH  16  20
BRANCH  18  29
HETATM   29  O   UNL     1      41.464 -10.873  -0.714  1.00  0.00    -0.349 OA
BRANCH  29  30
HETATM   30  C   UNL     1      42.823 -11.232  -0.968  1.00  0.00     0.171 C 
HETATM   31  C   UNL     1      43.676 -10.016  -1.291  1.00  0.00     0.034 C 
ENDBRANCH  29  30
ENDBRANCH  18  29
ENDBRANCH   1  13
BRANCH   5  32
HETATM   32  N   UNL     1      38.868  -9.050   6.441  1.00  0.00    -0.282 NA
HETATM   33  H   UNL     1      39.056  -8.168   5.971  1.00  0.00     0.126 HD
HETATM   34  H   UNL     1      37.882  -9.188   6.649  1.00  0.00     0.126 HD
ENDBRANCH   5  32
BRANCH  12  35
HETATM   35  C   UNL     1      41.670 -14.750   4.085  1.00  0.00    -0.005 A 
HETATM   36  C   UNL     1      41.128 -15.850   3.409  1.00  0.00     0.016 A 
HETATM   37  C   UNL     1      41.893 -16.551   2.474  1.00  0.00     0.037 A 
HETATM   38  C   UNL     1      43.207 -16.168   2.199  1.00  0.00     0.068 A 
HETATM   39  C   UNL     1      43.758 -15.083   2.882  1.00  0.00     0.037 A 
HETATM   40  C   UNL     1      42.993 -14.378   3.821  1.00  0.00     0.016 A 
BRANCH  38  41
HETATM   41  O   UNL     1      43.846 -16.940   1.269  1.00  0.00    -0.356 OA
HETATM   42  C   UNL     1      44.030 -18.310   1.597  1.00  0.00     0.210 C 
ENDBRANCH  38  41
ENDBRANCH  12  35
TORSDOF 8
ENDMDL
MODEL 2
REMARK VINA RESULT:      -7.8      3.263      7.005
REMARK  8 active torsions:
REMARK  status: ('A' for Active; 'I' for Inactive)
REMARK    1  A    between atoms: C_2  and  O_3 
REMARK    2  A    between atoms: O_3  and  C_4 
REMARK    3  A    between atoms: C_5  and  O_6 
REMARK    4  A    between atoms: O_6  and  C_7 
REMARK       I    between atoms: C_7  and  N_8 
REMARK    5  A    between atoms: C_18  and  C_19 
REMARK    6  A    between atoms: C_23  and  N_24 
REMARK    7  A    between atoms: C_31  and  C_32 
REMARK    8  A    between atoms: C_35  and  O_36 
ROOT
HETATM    1  C   UNL     1      40.088 -11.831   5.186  1.00  0.00     0.106 A 
HETATM    2  C   UNL     1      39.930 -11.046   6.492  1.00  0.00     0.081 A 
HETATM    3  C   UNL     1      39.330 -11.737   7.586  1.00  0.00     0.100 C 
HETATM    4  N   UNL     1      38.841 -12.319   8.463  1.00  0.00    -0.191 NA
HETATM    5  C   UNL     1      40.264  -9.732   6.615  1.00  0.00     0.140 A 
HETATM    6  O   UNL     1      40.793  -8.996   5.542  1.00  0.00    -0.279 OA
HETATM    7  C   UNL     1      40.892  -9.632   4.381  1.00  0.00     0.175 A 
HETATM    8  C   UNL     1      40.588 -10.939   4.100  1.00  0.00     0.040 A 
HETATM    9  N   UNL     1      41.344  -9.074   3.232  1.00  0.00    -0.256 N 
HETATM   10  H   UNL     1      41.657  -8.123   3.076  1.00  0.00     0.191 HD
HETATM   11  N   UNL     1      41.369  -9.944   2.207  1.00  0.00    -0.172 NA
HETATM   12  C   UNL     1      40.886 -11.094   2.716  1.00  0.00     0.099 A 
ENDROOT
BRANCH   1  13
HETATM   13  C   UNL     1      41.043 -13.018   5.315  1.00  0.00    -0.040 A 
HETATM   14  C   UNL     1      42.298 -12.944   5.948  1.00  0.00     0.030 A 
HETATM   15  C   UNL     1      43.153 -14.046   5.962  1.00  0.00     0.048 A 
HETATM   16  C   UNL     1      42.739 -15.254   5.398  1.00  0.00     0.131 A 
HETATM   17 BR   UNL     1      44.865 -13.857   6.755  1.00  0.00    -0.048 Br
HETATM   18  C   UNL     1      41.446 -15.400   4.879  1.00  0.00     0.104 A 
HETATM   19  C   UNL     1      40.627 -14.270   4.804  1.00  0.00     0.048 A 
BRANCH  16  20
HETATM   20  O   UNL     1      43.616 -16.344   5.401  1.00  0.00    -0.257 OA
BRANCH  20  21
HETATM   21  C   UNL     1      43.359 -17.229   6.443  1.00  0.00     0.368 C 
HETATM   22  N   UNL     1      43.852 -18.499   6.191  1.00  0.00    -0.324 N 
HETATM   23  C   UNL     1      43.887 -19.475   7.276  1.00  0.00     0.154 C 
HETATM   24  C   UNL     1      44.672 -18.831   5.028  1.00  0.00     0.154 C 
HETATM   25  C   UNL     1      43.707 -20.900   6.750  1.00  0.00     0.187 C 
HETATM   26  O   UNL     1      44.644 -21.187   5.700  1.00  0.00    -0.388 OA
HETATM   27  C   UNL     1      44.452 -20.286   4.599  1.00  0.00     0.187 C 
HETATM   28  O   UNL     1      42.746 -16.946   7.469  1.00  0.00    -0.238 OA
ENDBRANCH  20  21
ENDBRANCH  16  20
BRANCH  18  29
HETATM   29  O   UNL     1      41.100 -16.654   4.459  1.00  0.00    -0.349 OA
BRANCH  29  30
HETATM   30  C   UNL     1      40.935 -16.893   3.060  1.00  0.00     0.171 C 
HETATM   31  C   UNL     1      42.117 -17.650   2.476  1.00  0.00     0.034 C 
ENDBRANCH  29  30
ENDBRANCH  18  29
ENDBRANCH   1  13
BRANCH   5  32
HETATM   32  N   UNL     1      40.121  -8.974   7.755  1.00  0.00    -0.282 NA
HETATM   33  H   UNL     1      40.954  -8.478   8.064  1.00  0.00     0.126 HD
HETATM   34  H   UNL     1      39.294  -8.383   7.723  1.00  0.00     0.126 HD
ENDBRANCH   5  32
BRANCH  12  35
HETATM   35  C   UNL     1      40.786 -12.293   1.888  1.00  0.00    -0.005 A 
HETATM   36  C   UNL     1      41.950 -12.916   1.421  1.00  0.00     0.016 A 
HETATM   37  C   UNL     1      41.869 -14.078   0.650  1.00  0.00     0.037 A 
HETATM   38  C   UNL     1      40.630 -14.636   0.333  1.00  0.00     0.068 A 
HETATM   39  C   UNL     1      39.465 -14.009   0.780  1.00  0.00     0.037 A 
HETATM   40  C   UNL     1      39.543 -12.843   1.552  1.00  0.00     0.016 A 
BRANCH  38  41
HETATM   41  O   UNL     1      40.690 -15.768  -0.430  1.00  0.00    -0.356 OA
HETATM   42  C   UNL     1      40.976 -15.591  -1.811  1.00  0.00     0.210 C 
ENDBRANCH  38  41
ENDBRANCH  12  35
TORSDOF 8
ENDMDL
MODEL 3
REMARK VINA RESULT:      -7.7      3.158      6.958
REMARK  8 active torsions:
REMARK  status: ('A' for Active; 'I' for Inactive)
REMARK    1  A    between atoms: C_2  and  O_3 
REMARK    2  A    between atoms: O_3  and  C_4 
REMARK    3  A    between atoms: C_5  and  O_6 
REMARK    4  A    between atoms: O_6  and  C_7 
REMARK       I    between atoms: C_7  and  N_8 
REMARK    5  A    between atoms: C_18  and  C_19 
REMARK    6  A    between atoms: C_23  and  N_24 
REMARK    7  A    between atoms: C_31  and  C_32 
REMARK    8  A    between atoms: C_35  and  O_36 
ROOT
HETATM    1  C   UNL     1      40.130 -11.912   4.518  1.00  0.00     0.106 A 
HETATM    2  C   UNL     1      40.012 -11.162   5.849  1.00  0.00     0.081 A 
HETATM    3  C   UNL     1      39.440 -11.881   6.940  1.00  0.00     0.100 C 
HETATM    4  N   UNL     1      38.974 -12.485   7.814  1.00  0.00    -0.191 NA
HETATM    5  C   UNL     1      40.355  -9.854   5.997  1.00  0.00     0.140 A 
HETATM    6  O   UNL     1      40.857  -9.090   4.930  1.00  0.00    -0.279 OA
HETATM    7  C   UNL     1      40.920  -9.695   3.751  1.00  0.00     0.175 A 
HETATM    8  C   UNL     1      40.603 -10.993   3.442  1.00  0.00     0.040 A 
HETATM    9  N   UNL     1      41.342  -9.107   2.605  1.00  0.00    -0.256 N 
HETATM   10  H   UNL     1      41.655  -8.154   2.466  1.00  0.00     0.191 HD
HETATM   11  N   UNL     1      41.335  -9.949   1.556  1.00  0.00    -0.172 NA
HETATM   12  C   UNL     1      40.861 -11.111   2.047  1.00  0.00     0.099 A 
ENDROOT
BRANCH   1  13
HETATM   13  C   UNL     1      41.084 -13.105   4.587  1.00  0.00    -0.040 A 
HETATM   14  C   UNL     1      40.837 -14.338   3.955  1.00  0.00     0.030 A 
HETATM   15  C   UNL     1      41.713 -15.411   4.122  1.00  0.00     0.048 A 
HETATM   16  C   UNL     1      42.878 -15.246   4.873  1.00  0.00     0.131 A 
HETATM   17 BR   UNL     1      41.280 -17.072   3.315  1.00  0.00    -0.048 Br
HETATM   18  C   UNL     1      43.220 -13.996   5.405  1.00  0.00     0.104 A 
HETATM   19  C   UNL     1      42.300 -12.949   5.292  1.00  0.00     0.048 A 
BRANCH  16  20
HETATM   20  O   UNL     1      43.736 -16.337   5.050  1.00  0.00    -0.257 OA
BRANCH  20  21
HETATM   21  C   UNL     1      43.389 -17.112   6.153  1.00  0.00     0.368 C 
HETATM   22  N   UNL     1      43.865 -18.409   6.057  1.00  0.00    -0.324 N 
HETATM   23  C   UNL     1      43.805 -19.275   7.231  1.00  0.00     0.154 C 
HETATM   24  C   UNL     1      44.749 -18.868   4.988  1.00  0.00     0.154 C 
HETATM   25  C   UNL     1      43.622 -20.741   6.833  1.00  0.00     0.187 C 
HETATM   26  O   UNL     1      44.617 -21.147   5.880  1.00  0.00    -0.388 OA
HETATM   27  C   UNL     1      44.520 -20.354   4.687  1.00  0.00     0.187 C 
HETATM   28  O   UNL     1      42.719 -16.718   7.104  1.00  0.00    -0.238 OA
ENDBRANCH  20  21
ENDBRANCH  16  20
BRANCH  18  29
HETATM   29  O   UNL     1      44.438 -13.912   6.021  1.00  0.00    -0.349 OA
BRANCH  29  30
HETATM   30  C   UNL     1      44.484 -13.673   7.428  1.00  0.00     0.171 C 
HETATM   31  C   UNL     1      45.733 -12.903   7.828  1.00  0.00     0.034 C 
ENDBRANCH  29  30
ENDBRANCH  18  29
ENDBRANCH   1  13
BRANCH   5  32
HETATM   32  N   UNL     1      40.247  -9.127   7.161  1.00  0.00    -0.282 NA
HETATM   33  H   UNL     1      39.658  -9.532   7.884  1.00  0.00     0.126 HD
HETATM   34  H   UNL     1      41.153  -8.823   7.510  1.00  0.00     0.126 HD
ENDBRANCH   5  32
BRANCH  12  35
HETATM   35  C   UNL     1      40.734 -12.286   1.190  1.00  0.00    -0.005 A 
HETATM   36  C   UNL     1      41.877 -12.863   0.624  1.00  0.00     0.016 A 
HETATM   37  C   UNL     1      41.771 -14.003  -0.177  1.00  0.00     0.037 A 
HETATM   38  C   UNL     1      40.527 -14.585  -0.425  1.00  0.00     0.068 A 
HETATM   39  C   UNL     1      39.382 -14.004   0.123  1.00  0.00     0.037 A 
HETATM   40  C   UNL     1      39.484 -12.860   0.925  1.00  0.00     0.016 A 
BRANCH  38  41
HETATM   41  O   UNL     1      40.561 -15.692  -1.226  1.00  0.00    -0.356 OA
HETATM   42  C   UNL     1      41.042 -15.504  -2.550  1.00  0.00     0.210 C 
ENDBRANCH  38  41
ENDBRANCH  12  35
TORSDOF 8
ENDMDL
MODEL 4
REMARK VINA RESULT:      -7.5      3.476      7.269
REMARK  8 active torsions:
REMARK  status: ('A' for Active; 'I' for Inactive)
REMARK    1  A    between atoms: C_2  and  O_3 
REMARK    2  A    between atoms: O_3  and  C_4 
REMARK    3  A    between atoms: C_5  and  O_6 
REMARK    4  A    between atoms: O_6  and  C_7 
REMARK       I    between atoms: C_7  and  N_8 
REMARK    5  A    between atoms: C_18  and  C_19 
REMARK    6  A    between atoms: C_23  and  N_24 
REMARK    7  A    between atoms: C_31  and  C_32 
REMARK    8  A    between atoms: C_35  and  O_36 
ROOT
HETATM    1  C   UNL     1      40.833 -11.290   2.679  1.00  0.00     0.106 A 
HETATM    2  C   UNL     1      40.670 -11.454   1.164  1.00  0.00     0.081 A 
HETATM    3  C   UNL     1      41.853 -11.745   0.421  1.00  0.00     0.100 C 
HETATM    4  N   UNL     1      42.827 -11.985  -0.162  1.00  0.00    -0.191 NA
HETATM    5  C   UNL     1      39.488 -11.262   0.519  1.00  0.00     0.140 A 
HETATM    6  O   UNL     1      38.315 -10.906   1.205  1.00  0.00    -0.279 OA
HETATM    7  C   UNL     1      38.434 -10.703   2.511  1.00  0.00     0.175 A 
HETATM    8  C   UNL     1      39.549 -10.844   3.295  1.00  0.00     0.040 A 
HETATM    9  N   UNL     1      37.422 -10.320   3.326  1.00  0.00    -0.256 N 
HETATM   10  H   UNL     1      36.457 -10.127   3.083  1.00  0.00     0.191 HD
HETATM   11  N   UNL     1      37.803 -10.212   4.611  1.00  0.00    -0.172 NA
HETATM   12  C   UNL     1      39.117 -10.509   4.610  1.00  0.00     0.099 A 
ENDROOT
BRANCH   1  13
HETATM   13  C   UNL     1      41.280 -12.576   3.374  1.00  0.00    -0.040 A 
HETATM   14  C   UNL     1      42.257 -12.616   4.387  1.00  0.00     0.030 A 
HETATM   15  C   UNL     1      42.673 -13.834   4.926  1.00  0.00     0.048 A 
HETATM   16  C   UNL     1      42.074 -15.021   4.502  1.00  0.00     0.131 A 
HETATM   17 BR   UNL     1      44.055 -13.827   6.224  1.00  0.00    -0.048 Br
HETATM   18  C   UNL     1      41.007 -15.006   3.595  1.00  0.00     0.104 A 
HETATM   19  C   UNL     1      40.649 -13.789   3.009  1.00  0.00     0.048 A 
BRANCH  16  20
HETATM   20  O   UNL     1      42.517 -16.237   5.037  1.00  0.00    -0.257 OA
BRANCH  20  21
HETATM   21  C   UNL     1      43.323 -16.944   4.150  1.00  0.00     0.368 C 
HETATM   22  N   UNL     1      43.595 -18.228   4.592  1.00  0.00    -0.324 N 
HETATM   23  C   UNL     1      44.213 -19.179   3.673  1.00  0.00     0.154 C 
HETATM   24  C   UNL     1      42.986 -18.817   5.783  1.00  0.00     0.154 C 
HETATM   25  C   UNL     1      45.100 -20.178   4.419  1.00  0.00     0.187 C 
HETATM   26  O   UNL     1      44.381 -20.811   5.489  1.00  0.00    -0.388 OA
HETATM   27  C   UNL     1      43.932 -19.831   6.437  1.00  0.00     0.187 C 
HETATM   28  O   UNL     1      43.774 -16.494   3.099  1.00  0.00    -0.238 OA
ENDBRANCH  20  21
ENDBRANCH  16  20
BRANCH  18  29
HETATM   29  O   UNL     1      40.413 -16.211   3.337  1.00  0.00    -0.349 OA
BRANCH  29  30
HETATM   30  C   UNL     1      40.010 -16.509   2.000  1.00  0.00     0.171 C 
HETATM   31  C   UNL     1      41.023 -17.395   1.292  1.00  0.00     0.034 C 
ENDBRANCH  29  30
ENDBRANCH  18  29
ENDBRANCH   1  13
BRANCH   5  32
HETATM   32  N   UNL     1      39.292 -11.373  -0.839  1.00  0.00    -0.282 NA
HETATM   33  H   UNL     1      38.676 -12.126  -1.138  1.00  0.00     0.126 HD
HETATM   34  H   UNL     1      39.066 -10.479  -1.270  1.00  0.00     0.126 HD
ENDBRANCH   5  32
BRANCH  12  35
HETATM   35  C   UNL     1      39.881 -10.520   5.854  1.00  0.00    -0.005 A 
HETATM   36  C   UNL     1      40.934  -9.615   6.033  1.00  0.00     0.016 A 
HETATM   37  C   UNL     1      41.655  -9.597   7.229  1.00  0.00     0.037 A 
HETATM   38  C   UNL     1      41.339 -10.479   8.263  1.00  0.00     0.068 A 
HETATM   39  C   UNL     1      40.301 -11.395   8.084  1.00  0.00     0.037 A 
HETATM   40  C   UNL     1      39.577 -11.417   6.886  1.00  0.00     0.016 A 
BRANCH  38  41
HETATM   41  O   UNL     1      42.123 -10.361   9.377  1.00  0.00    -0.356 OA
HETATM   42  C   UNL     1      43.387 -11.011   9.337  1.00  0.00     0.210 C 
ENDBRANCH  38  41
ENDBRANCH  12  35
TORSDOF 8
ENDMDL
MODEL 5
REMARK VINA RESULT:      -7.5      2.829      7.310
REMARK  8 active torsions:
REMARK  status: ('A' for Active; 'I' for Inactive)
REMARK    1  A    between atoms: C_2  and  O_3 
REMARK    2  A    between atoms: O_3  and  C_4 
REMARK    3  A    between atoms: C_5  and  O_6 
REMARK    4  A    between atoms: O_6  and  C_7 
REMARK       I    between atoms: C_7  and  N_8 
REMARK    5  A    between atoms: C_18  and  C_19 
REMARK    6  A    between atoms: C_23  and  N_24 
REMARK    7  A    between atoms: C_31  and  C_32 
REMARK    8  A    between atoms: C_35  and  O_36 
ROOT
HETATM    1  C   UNL     1      40.565 -12.468  -0.219  1.00  0.00     0.106 A 
HETATM    2  C   UNL     1      40.604 -12.868  -1.698  1.00  0.00     0.081 A 
HETATM    3  C   UNL     1      41.894 -13.029  -2.283  1.00  0.00     0.100 C 
HETATM    4  N   UNL     1      42.954 -13.156  -2.739  1.00  0.00    -0.191 NA
HETATM    5  C   UNL     1      39.485 -12.998  -2.462  1.00  0.00     0.140 A 
HETATM    6  O   UNL     1      38.199 -12.781  -1.941  1.00  0.00    -0.279 OA
HETATM    7  C   UNL     1      38.134 -12.379  -0.678  1.00  0.00     0.175 A 
HETATM    8  C   UNL     1      39.162 -12.194   0.209  1.00  0.00     0.040 A 
HETATM    9  N   UNL     1      36.985 -12.087  -0.020  1.00  0.00    -0.256 N 
HETATM   10  H   UNL     1      36.035 -12.118  -0.371  1.00  0.00     0.191 HD
HETATM   11  N   UNL     1      37.196 -11.731   1.259  1.00  0.00    -0.172 NA
HETATM   12  C   UNL     1      38.534 -11.769   1.414  1.00  0.00     0.099 A 
ENDROOT
BRANCH   1  13
HETATM   13  C   UNL     1      41.151 -13.535   0.705  1.00  0.00    -0.040 A 
HETATM   14  C   UNL     1      40.811 -14.899   0.636  1.00  0.00     0.030 A 
HETATM   15  C   UNL     1      41.326 -15.809   1.560  1.00  0.00     0.048 A 
HETATM   16  C   UNL     1      42.236 -15.376   2.526  1.00  0.00     0.131 A 
HETATM   17 BR   UNL     1      40.760 -17.616   1.468  1.00  0.00    -0.048 Br
HETATM   18  C   UNL     1      42.699 -14.055   2.538  1.00  0.00     0.104 A 
HETATM   19  C   UNL     1      42.121 -13.138   1.655  1.00  0.00     0.048 A 
BRANCH  16  20
HETATM   20  O   UNL     1      42.728 -16.296   3.459  1.00  0.00    -0.257 OA
BRANCH  20  21
HETATM   21  C   UNL     1      43.612 -17.207   2.891  1.00  0.00     0.368 C 
HETATM   22  N   UNL     1      43.751 -18.355   3.655  1.00  0.00    -0.324 N 
HETATM   23  C   UNL     1      44.442 -19.508   3.084  1.00  0.00     0.154 C 
HETATM   24  C   UNL     1      42.951 -18.634   4.844  1.00  0.00     0.154 C 
HETATM   25  C   UNL     1      45.161 -20.317   4.165  1.00  0.00     0.187 C 
HETATM   26  O   UNL     1      44.267 -20.665   5.233  1.00  0.00    -0.388 OA
HETATM   27  C   UNL     1      43.740 -19.480   5.850  1.00  0.00     0.187 C 
HETATM   28  O   UNL     1      44.230 -17.027   1.844  1.00  0.00    -0.238 OA
ENDBRANCH  20  21
ENDBRANCH  16  20
BRANCH  18  29
HETATM   29  O   UNL     1      43.677 -13.763   3.449  1.00  0.00    -0.349 OA
BRANCH  29  30
HETATM   30  C   UNL     1      43.297 -13.333   4.756  1.00  0.00     0.171 C 
HETATM   31  C   UNL     1      44.031 -14.108   5.839  1.00  0.00     0.034 C 
ENDBRANCH  29  30
ENDBRANCH  18  29
ENDBRANCH   1  13
BRANCH   5  32
HETATM   32  N   UNL     1      39.464 -13.332  -3.797  1.00  0.00    -0.282 NA
HETATM   33  H   UNL     1      39.203 -12.585  -4.436  1.00  0.00     0.126 HD
HETATM   34  H   UNL     1      40.307 -13.825  -4.084  1.00  0.00     0.126 HD
ENDBRANCH   5  32
BRANCH  12  35
HETATM   35  C   UNL     1      39.144 -11.460   2.705  1.00  0.00    -0.005 A 
HETATM   36  C   UNL     1      39.074 -12.391   3.748  1.00  0.00     0.016 A 
HETATM   37  C   UNL     1      39.677 -12.119   4.979  1.00  0.00     0.037 A 
HETATM   38  C   UNL     1      40.357 -10.919   5.188  1.00  0.00     0.068 A 
HETATM   39  C   UNL     1      40.415  -9.979   4.157  1.00  0.00     0.037 A 
HETATM   40  C   UNL     1      39.811 -10.249   2.922  1.00  0.00     0.016 A 
BRANCH  38  41
HETATM   41  O   UNL     1      40.897 -10.775   6.436  1.00  0.00    -0.356 OA
HETATM   42  C   UNL     1      40.029 -11.017   7.536  1.00  0.00     0.210 C 
ENDBRANCH  38  41
ENDBRANCH  12  35
TORSDOF 8
ENDMDL
MODEL 6
REMARK VINA RESULT:      -7.1      1.302      2.149
REMARK  8 active torsions:
REMARK  status: ('A' for Active; 'I' for Inactive)
REMARK    1  A    between atoms: C_2  and  O_3 
REMARK    2  A    between atoms: O_3  and  C_4 
REMARK    3  A    between atoms: C_5  and  O_6 
REMARK    4  A    between atoms: O_6  and  C_7 
REMARK       I    between atoms: C_7  and  N_8 
REMARK    5  A    between atoms: C_18  and  C_19 
REMARK    6  A    between atoms: C_23  and  N_24 
REMARK    7  A    between atoms: C_31  and  C_32 
REMARK    8  A    between atoms: C_35  and  O_36 
ROOT
HETATM    1  C   UNL     1      41.028 -11.504   3.986  1.00  0.00     0.106 A 
HETATM    2  C   UNL     1      40.408 -10.172   4.420  1.00  0.00     0.081 A 
HETATM    3  C   UNL     1      40.961  -8.991   3.844  1.00  0.00     0.100 C 
HETATM    4  N   UNL     1      41.425  -8.043   3.360  1.00  0.00    -0.191 NA
HETATM    5  C   UNL     1      39.431 -10.080   5.362  1.00  0.00     0.140 A 
HETATM    6  O   UNL     1      38.907 -11.214   6.004  1.00  0.00    -0.279 OA
HETATM    7  C   UNL     1      39.461 -12.379   5.690  1.00  0.00     0.175 A 
HETATM    8  C   UNL     1      40.452 -12.630   4.778  1.00  0.00     0.040 A 
HETATM    9  N   UNL     1      39.111 -13.570   6.234  1.00  0.00    -0.256 N 
HETATM   10  H   UNL     1      38.410 -13.756   6.941  1.00  0.00     0.191 HD
HETATM   11  N   UNL     1      39.809 -14.599   5.721  1.00  0.00    -0.172 NA
HETATM   12  C   UNL     1      40.656 -14.038   4.837  1.00  0.00     0.099 A 
ENDROOT
BRANCH   1  13
HETATM   13  C   UNL     1      40.821 -11.804   2.501  1.00  0.00    -0.040 A 
HETATM   14  C   UNL     1      41.799 -11.572   1.515  1.00  0.00     0.030 A 
HETATM   15  C   UNL     1      41.516 -11.797   0.167  1.00  0.00     0.048 A 
HETATM   16  C   UNL     1      40.275 -12.314  -0.206  1.00  0.00     0.131 A 
HETATM   17 BR   UNL     1      42.846 -11.383  -1.120  1.00  0.00    -0.048 Br
HETATM   18  C   UNL     1      39.329 -12.681   0.760  1.00  0.00     0.104 A 
HETATM   19  C   UNL     1      39.595 -12.384   2.100  1.00  0.00     0.048 A 
BRANCH  16  20
HETATM   20  O   UNL     1      39.999 -12.513  -1.563  1.00  0.00    -0.257 OA
BRANCH  20  21
HETATM   21  C   UNL     1      40.367 -13.782  -1.999  1.00  0.00     0.368 C 
HETATM   22  N   UNL     1      39.488 -14.293  -2.939  1.00  0.00    -0.324 N 
HETATM   23  C   UNL     1      39.859 -15.498  -3.677  1.00  0.00     0.154 C 
HETATM   24  C   UNL     1      38.383 -13.528  -3.511  1.00  0.00     0.154 C 
HETATM   25  C   UNL     1      38.627 -16.327  -4.046  1.00  0.00     0.187 C 
HETATM   26  O   UNL     1      37.648 -15.526  -4.725  1.00  0.00    -0.388 OA
HETATM   27  C   UNL     1      37.213 -14.447  -3.883  1.00  0.00     0.187 C 
HETATM   28  O   UNL     1      41.343 -14.408  -1.593  1.00  0.00    -0.238 OA
ENDBRANCH  20  21
ENDBRANCH  16  20
BRANCH  18  29
HETATM   29  O   UNL     1      38.194 -13.288   0.297  1.00  0.00    -0.349 OA
BRANCH  29  30
HETATM   30  C   UNL     1      37.168 -12.481  -0.283  1.00  0.00     0.171 C 
HETATM   31  C   UNL     1      36.476 -11.616   0.758  1.00  0.00     0.034 C 
ENDBRANCH  29  30
ENDBRANCH  18  29
ENDBRANCH   1  13
BRANCH   5  32
HETATM   32  N   UNL     1      38.856  -8.910   5.805  1.00  0.00    -0.282 NA
HETATM   33  H   UNL     1      39.324  -8.052   5.522  1.00  0.00     0.126 HD
HETATM   34  H   UNL     1      37.852  -8.889   5.642  1.00  0.00     0.126 HD
ENDBRANCH   5  32
BRANCH  12  35
HETATM   35  C   UNL     1      41.571 -14.864   4.054  1.00  0.00    -0.005 A 
HETATM   36  C   UNL     1      41.064 -15.866   3.219  1.00  0.00     0.016 A 
HETATM   37  C   UNL     1      41.926 -16.645   2.444  1.00  0.00     0.037 A 
HETATM   38  C   UNL     1      43.306 -16.437   2.490  1.00  0.00     0.068 A 
HETATM   39  C   UNL     1      43.819 -15.451   3.334  1.00  0.00     0.037 A 
HETATM   40  C   UNL     1      42.957 -14.669   4.113  1.00  0.00     0.016 A 
BRANCH  38  41
HETATM   41  O   UNL     1      44.038 -17.269   1.688  1.00  0.00    -0.356 OA
HETATM   42  C   UNL     1      44.118 -18.630   2.089  1.00  0.00     0.210 C 
ENDBRANCH  38  41
ENDBRANCH  12  35
TORSDOF 8
ENDMDL
MODEL 7
REMARK VINA RESULT:      -7.0      2.858      7.482
REMARK  8 active torsions:
REMARK  status: ('A' for Active; 'I' for Inactive)
REMARK    1  A    between atoms: C_2  and  O_3 
REMARK    2  A    between atoms: O_3  and  C_4 
REMARK    3  A    between atoms: C_5  and  O_6 
REMARK    4  A    between atoms: O_6  and  C_7 
REMARK       I    between atoms: C_7  and  N_8 
REMARK    5  A    between atoms: C_18  and  C_19 
REMARK    6  A    between atoms: C_23  and  N_24 
REMARK    7  A    between atoms: C_31  and  C_32 
REMARK    8  A    between atoms: C_35  and  O_36 
ROOT
HETATM    1  C   UNL     1      39.504 -14.571   1.523  1.00  0.00     0.106 A 
HETATM    2  C   UNL     1      38.807 -14.026   0.272  1.00  0.00     0.081 A 
HETATM    3  C   UNL     1      37.535 -13.412   0.464  1.00  0.00     0.100 C 
HETATM    4  N   UNL     1      36.502 -12.914   0.644  1.00  0.00    -0.191 NA
HETATM    5  C   UNL     1      39.313 -14.172  -0.983  1.00  0.00     0.140 A 
HETATM    6  O   UNL     1      40.529 -14.833  -1.222  1.00  0.00    -0.279 OA
HETATM    7  C   UNL     1      41.130 -15.364  -0.166  1.00  0.00     0.175 A 
HETATM    8  C   UNL     1      40.743 -15.312   1.149  1.00  0.00     0.040 A 
HETATM    9  N   UNL     1      42.288 -16.067  -0.210  1.00  0.00    -0.256 N 
HETATM   10  H   UNL     1      42.853 -16.297  -1.019  1.00  0.00     0.191 HD
HETATM   11  N   UNL     1      42.697 -16.471   1.006  1.00  0.00    -0.172 NA
HETATM   12  C   UNL     1      41.746 -16.035   1.855  1.00  0.00     0.099 A 
ENDROOT
BRANCH   1  13
HETATM   13  C   UNL     1      39.879 -13.477   2.522  1.00  0.00    -0.040 A 
HETATM   14  C   UNL     1      39.846 -13.650   3.919  1.00  0.00     0.030 A 
HETATM   15  C   UNL     1      40.127 -12.586   4.775  1.00  0.00     0.048 A 
HETATM   16  C   UNL     1      40.505 -11.351   4.246  1.00  0.00     0.131 A 
HETATM   17 BR   UNL     1      39.980 -12.861   6.646  1.00  0.00    -0.048 Br
HETATM   18  C   UNL     1      40.678 -11.181   2.867  1.00  0.00     0.104 A 
HETATM   19  C   UNL     1      40.323 -12.232   2.017  1.00  0.00     0.048 A 
BRANCH  16  20
HETATM   20  O   UNL     1      40.764 -10.286   5.117  1.00  0.00    -0.257 OA
BRANCH  20  21
HETATM   21  C   UNL     1      39.600  -9.748   5.657  1.00  0.00     0.368 C 
HETATM   22  N   UNL     1      39.809  -9.179   6.903  1.00  0.00    -0.324 N 
HETATM   23  C   UNL     1      38.757  -8.356   7.493  1.00  0.00     0.154 C 
HETATM   24  C   UNL     1      41.129  -9.036   7.513  1.00  0.00     0.154 C 
HETATM   25  C   UNL     1      38.771  -8.447   9.020  1.00  0.00     0.187 C 
HETATM   26  O   UNL     1      40.076  -8.159   9.545  1.00  0.00    -0.388 OA
HETATM   27  C   UNL     1      41.036  -9.101   9.042  1.00  0.00     0.187 C 
HETATM   28  O   UNL     1      38.496  -9.781   5.119  1.00  0.00    -0.238 OA
ENDBRANCH  20  21
ENDBRANCH  16  20
BRANCH  18  29
HETATM   29  O   UNL     1      41.165  -9.969   2.461  1.00  0.00    -0.349 OA
BRANCH  29  30
HETATM   30  C   UNL     1      40.413  -9.203   1.519  1.00  0.00     0.171 C 
HETATM   31  C   UNL     1      39.651  -8.074   2.193  1.00  0.00     0.034 C 
ENDBRANCH  29  30
ENDBRANCH  18  29
ENDBRANCH   1  13
BRANCH   5  32
HETATM   32  N   UNL     1      38.719 -13.724  -2.141  1.00  0.00    -0.282 NA
HETATM   33  H   UNL     1      38.568 -12.720  -2.201  1.00  0.00     0.126 HD
HETATM   34  H   UNL     1      39.157 -14.112  -2.973  1.00  0.00     0.126 HD
ENDBRANCH   5  32
BRANCH  12  35
HETATM   35  C   UNL     1      41.863 -16.271   3.291  1.00  0.00    -0.005 A 
HETATM   36  C   UNL     1      41.026 -17.204   3.914  1.00  0.00     0.016 A 
HETATM   37  C   UNL     1      41.146 -17.459   5.282  1.00  0.00     0.037 A 
HETATM   38  C   UNL     1      42.100 -16.789   6.049  1.00  0.00     0.068 A 
HETATM   39  C   UNL     1      42.926 -15.844   5.437  1.00  0.00     0.037 A 
HETATM   40  C   UNL     1      42.807 -15.586   4.066  1.00  0.00     0.016 A 
BRANCH  38  41
HETATM   41  O   UNL     1      42.110 -17.126   7.374  1.00  0.00    -0.356 OA
HETATM   42  C   UNL     1      43.338 -16.944   8.067  1.00  0.00     0.210 C 
ENDBRANCH  38  41
ENDBRANCH  12  35
TORSDOF 8
ENDMDL
MODEL 8
REMARK VINA RESULT:      -6.9      3.252      6.142
REMARK  8 active torsions:
REMARK  status: ('A' for Active; 'I' for Inactive)
REMARK    1  A    between atoms: C_2  and  O_3 
REMARK    2  A    between atoms: O_3  and  C_4 
REMARK    3  A    between atoms: C_5  and  O_6 
REMARK    4  A    between atoms: O_6  and  C_7 
REMARK       I    between atoms: C_7  and  N_8 
REMARK    5  A    between atoms: C_18  and  C_19 
REMARK    6  A    between atoms: C_23  and  N_24 
REMARK    7  A    between atoms: C_31  and  C_32 
REMARK    8  A    between atoms: C_35  and  O_36 
ROOT
HETATM    1  C   UNL     1      40.283 -10.491   6.276  1.00  0.00     0.106 A 
HETATM    2  C   UNL     1      40.478 -10.034   7.726  1.00  0.00     0.081 A 
HETATM    3  C   UNL     1      39.876 -10.840   8.737  1.00  0.00     0.100 C 
HETATM    4  N   UNL     1      39.380 -11.511   9.543  1.00  0.00    -0.191 NA
HETATM    5  C   UNL     1      41.121  -8.884   8.062  1.00  0.00     0.140 A 
HETATM    6  O   UNL     1      41.668  -8.026   7.092  1.00  0.00    -0.279 OA
HETATM    7  C   UNL     1      41.469  -8.365   5.825  1.00  0.00     0.175 A 
HETATM    8  C   UNL     1      40.836  -9.477   5.332  1.00  0.00     0.040 A 
HETATM    9  N   UNL     1      41.890  -7.642   4.759  1.00  0.00    -0.256 N 
HETATM   10  H   UNL     1      42.394  -6.764   4.755  1.00  0.00     0.191 HD
HETATM   11  N   UNL     1      41.582  -8.222   3.585  1.00  0.00    -0.172 NA
HETATM   12  C   UNL     1      40.913  -9.343   3.916  1.00  0.00     0.099 A 
ENDROOT
BRANCH   1  13
HETATM   13  C   UNL     1      40.943 -11.837   5.979  1.00  0.00    -0.040 A 
HETATM   14  C   UNL     1      42.220 -12.200   6.449  1.00  0.00     0.030 A 
HETATM   15  C   UNL     1      42.795 -13.415   6.078  1.00  0.00     0.048 A 
HETATM   16  C   UNL     1      42.077 -14.309   5.281  1.00  0.00     0.131 A 
HETATM   17 BR   UNL     1      44.553 -13.807   6.673  1.00  0.00    -0.048 Br
HETATM   18  C   UNL     1      40.755 -14.038   4.908  1.00  0.00     0.104 A 
HETATM   19  C   UNL     1      40.216 -12.787   5.225  1.00  0.00     0.048 A 
BRANCH  16  20
HETATM   20  O   UNL     1      42.677 -15.514   4.899  1.00  0.00    -0.257 OA
BRANCH  20  21
HETATM   21  C   UNL     1      43.166 -15.474   3.597  1.00  0.00     0.368 C 
HETATM   22  N   UNL     1      43.105 -16.708   2.972  1.00  0.00    -0.324 N 
HETATM   23  C   UNL     1      43.344 -16.788   1.533  1.00  0.00     0.154 C 
HETATM   24  C   UNL     1      42.468 -17.882   3.563  1.00  0.00     0.154 C 
HETATM   25  C   UNL     1      43.979 -18.125   1.147  1.00  0.00     0.187 C 
HETATM   26  O   UNL     1      43.213 -19.228   1.656  1.00  0.00    -0.388 OA
HETATM   27  C   UNL     1      43.146 -19.173   3.089  1.00  0.00     0.187 C 
HETATM   28  O   UNL     1      43.627 -14.474   3.051  1.00  0.00    -0.238 OA
ENDBRANCH  20  21
ENDBRANCH  16  20
BRANCH  18  29
HETATM   29  O   UNL     1      40.101 -15.029   4.230  1.00  0.00    -0.349 OA
BRANCH  29  30
HETATM   30  C   UNL     1      39.486 -14.720   2.978  1.00  0.00     0.171 C 
HETATM   31  C   UNL     1      39.768 -15.789   1.934  1.00  0.00     0.034 C 
ENDBRANCH  29  30
ENDBRANCH  18  29
ENDBRANCH   1  13
BRANCH   5  32
HETATM   32  N   UNL     1      41.304  -8.415   9.343  1.00  0.00    -0.282 NA
HETATM   33  H   UNL     1      40.921  -7.494   9.537  1.00  0.00     0.126 HD
HETATM   34  H   UNL     1      41.052  -9.107  10.045  1.00  0.00     0.126 HD
ENDBRANCH   5  32
BRANCH  12  35
HETATM   35  C   UNL     1      40.433 -10.258   2.884  1.00  0.00    -0.005 A 
HETATM   36  C   UNL     1      39.059 -10.381   2.647  1.00  0.00     0.016 A 
HETATM   37  C   UNL     1      38.588 -11.233   1.644  1.00  0.00     0.037 A 
HETATM   38  C   UNL     1      39.478 -11.973   0.864  1.00  0.00     0.068 A 
HETATM   39  C   UNL     1      40.848 -11.867   1.108  1.00  0.00     0.037 A 
HETATM   40  C   UNL     1      41.323 -11.015   2.113  1.00  0.00     0.016 A 
BRANCH  38  41
HETATM   41  O   UNL     1      38.889 -12.770  -0.078  1.00  0.00    -0.356 OA
HETATM   42  C   UNL     1      37.549 -13.169   0.176  1.00  0.00     0.210 C 
ENDBRANCH  38  41
ENDBRANCH  12  35
TORSDOF 8
ENDMDL
MODEL 9
REMARK VINA RESULT:      -6.9      3.037      7.442
REMARK  8 active torsions:
REMARK  status: ('A' for Active; 'I' for Inactive)
REMARK    1  A    between atoms: C_2  and  O_3 
REMARK    2  A    between atoms: O_3  and  C_4 
REMARK    3  A    between atoms: C_5  and  O_6 
REMARK    4  A    between atoms: O_6  and  C_7 
REMARK       I    between atoms: C_7  and  N_8 
REMARK    5  A    between atoms: C_18  and  C_19 
REMARK    6  A    between atoms: C_23  and  N_24 
REMARK    7  A    between atoms: C_31  and  C_32 
REMARK    8  A    between atoms: C_35  and  O_36 
ROOT
HETATM    1  C   UNL     1      40.836 -11.719   0.952  1.00  0.00     0.106 A 
HETATM    2  C   UNL     1      40.722 -11.825  -0.572  1.00  0.00     0.081 A 
HETATM    3  C   UNL     1      41.937 -12.017  -1.293  1.00  0.00     0.100 C 
HETATM    4  N   UNL     1      42.938 -12.176  -1.858  1.00  0.00    -0.191 NA
HETATM    5  C   UNL     1      39.547 -11.673  -1.241  1.00  0.00     0.140 A 
HETATM    6  O   UNL     1      38.338 -11.414  -0.574  1.00  0.00    -0.279 OA
HETATM    7  C   UNL     1      38.412 -11.261   0.742  1.00  0.00     0.175 A 
HETATM    8  C   UNL     1      39.513 -11.372   1.550  1.00  0.00     0.040 A 
HETATM    9  N   UNL     1      37.359 -10.971   1.544  1.00  0.00    -0.256 N 
HETATM   10  H   UNL     1      36.391 -10.823   1.282  1.00  0.00     0.191 HD
HETATM   11  N   UNL     1      37.700 -10.898   2.843  1.00  0.00    -0.172 NA
HETATM   12  C   UNL     1      39.029 -11.120   2.865  1.00  0.00     0.099 A 
ENDROOT
BRANCH   1  13
HETATM   13  C   UNL     1      41.338 -13.006   1.606  1.00  0.00    -0.040 A 
HETATM   14  C   UNL     1      40.857 -14.287   1.276  1.00  0.00     0.030 A 
HETATM   15  C   UNL     1      41.305 -15.414   1.965  1.00  0.00     0.048 A 
HETATM   16  C   UNL     1      42.284 -15.282   2.951  1.00  0.00     0.131 A 
HETATM   17 BR   UNL     1      40.554 -17.101   1.533  1.00  0.00    -0.048 Br
HETATM   18  C   UNL     1      42.880 -14.041   3.211  1.00  0.00     0.104 A 
HETATM   19  C   UNL     1      42.372 -12.910   2.566  1.00  0.00     0.048 A 
BRANCH  16  20
HETATM   20  O   UNL     1      42.707 -16.418   3.649  1.00  0.00    -0.257 OA
BRANCH  20  21
HETATM   21  C   UNL     1      42.173 -16.483   4.932  1.00  0.00     0.368 C 
HETATM   22  N   UNL     1      43.035 -17.086   5.833  1.00  0.00    -0.324 N 
HETATM   23  C   UNL     1      42.736 -17.011   7.261  1.00  0.00     0.154 C 
HETATM   24  C   UNL     1      44.403 -17.478   5.503  1.00  0.00     0.154 C 
HETATM   25  C   UNL     1      43.245 -18.248   8.002  1.00  0.00     0.187 C 
HETATM   26  O   UNL     1      44.635 -18.482   7.727  1.00  0.00    -0.388 OA
HETATM   27  C   UNL     1      44.837 -18.699   6.322  1.00  0.00     0.187 C 
HETATM   28  O   UNL     1      41.057 -16.079   5.249  1.00  0.00    -0.238 OA
ENDBRANCH  20  21
ENDBRANCH  16  20
BRANCH  18  29
HETATM   29  O   UNL     1      43.911 -14.040   4.110  1.00  0.00    -0.349 OA
BRANCH  29  30
HETATM   30  C   UNL     1      43.682 -13.527   5.423  1.00  0.00     0.171 C 
HETATM   31  C   UNL     1      44.779 -13.943   6.389  1.00  0.00     0.034 C 
ENDBRANCH  29  30
ENDBRANCH  18  29
ENDBRANCH   1  13
BRANCH   5  32
HETATM   32  N   UNL     1      39.393 -11.736  -2.608  1.00  0.00    -0.282 NA
HETATM   33  H   UNL     1      40.237 -11.593  -3.156  1.00  0.00     0.126 HD
HETATM   34  H   UNL     1      38.863 -12.555  -2.898  1.00  0.00     0.126 HD
ENDBRANCH   5  32
BRANCH  12  35
HETATM   35  C   UNL     1      39.760 -11.142   4.129  1.00  0.00    -0.005 A 
HETATM   36  C   UNL     1      40.778 -10.209   4.361  1.00  0.00     0.016 A 
HETATM   37  C   UNL     1      41.467 -10.202   5.576  1.00  0.00     0.037 A 
HETATM   38  C   UNL     1      41.152 -11.122   6.577  1.00  0.00     0.068 A 
HETATM   39  C   UNL     1      40.150 -12.065   6.346  1.00  0.00     0.037 A 
HETATM   40  C   UNL     1      39.458 -12.076   5.128  1.00  0.00     0.016 A 
BRANCH  38  41
HETATM   41  O   UNL     1      41.903 -11.011   7.714  1.00  0.00    -0.356 OA
HETATM   42  C   UNL     1      41.216 -10.618   8.895  1.00  0.00     0.210 C 
ENDBRANCH  38  41
ENDBRANCH  12  35
TORSDOF 8
ENDMDL
MODEL 10
REMARK VINA RESULT:      -6.9      2.678      6.649
REMARK  8 active torsions:
REMARK  status: ('A' for Active; 'I' for Inactive)
REMARK    1  A    between atoms: C_2  and  O_3 
REMARK    2  A    between atoms: O_3  and  C_4 
REMARK    3  A    between atoms: C_5  and  O_6 
REMARK    4  A    between atoms: O_6  and  C_7 
REMARK       I    between atoms: C_7  and  N_8 
REMARK    5  A    between atoms: C_18  and  C_19 
REMARK    6  A    between atoms: C_23  and  N_24 
REMARK    7  A    between atoms: C_31  and  C_32 
REMARK    8  A    between atoms: C_35  and  O_36 
ROOT
HETATM    1  C   UNL     1      40.167 -10.572   4.716  1.00  0.00     0.106 A 
HETATM    2  C   UNL     1      40.465 -10.200   6.172  1.00  0.00     0.081 A 
HETATM    3  C   UNL     1      39.800 -10.964   7.177  1.00  0.00     0.100 C 
HETATM    4  N   UNL     1      39.251 -11.600   7.977  1.00  0.00    -0.191 NA
HETATM    5  C   UNL     1      41.258  -9.152   6.524  1.00  0.00     0.140 A 
HETATM    6  O   UNL     1      41.875  -8.332   5.565  1.00  0.00    -0.279 OA
HETATM    7  C   UNL     1      41.594  -8.594   4.295  1.00  0.00     0.175 A 
HETATM    8  C   UNL     1      40.811  -9.598   3.787  1.00  0.00     0.040 A 
HETATM    9  N   UNL     1      42.067  -7.888   3.240  1.00  0.00    -0.256 N 
HETATM   10  H   UNL     1      42.677  -7.078   3.247  1.00  0.00     0.191 HD
HETATM   11  N   UNL     1      41.651  -8.379   2.059  1.00  0.00    -0.172 NA
HETATM   12  C   UNL     1      40.858  -9.420   2.376  1.00  0.00     0.099 A 
ENDROOT
BRANCH   1  13
HETATM   13  C   UNL     1      40.644 -11.977   4.349  1.00  0.00    -0.040 A 
HETATM   14  C   UNL     1      39.928 -12.850   3.508  1.00  0.00     0.030 A 
HETATM   15  C   UNL     1      40.383 -14.147   3.275  1.00  0.00     0.048 A 
HETATM   16  C   UNL     1      41.592 -14.569   3.830  1.00  0.00     0.131 A 
HETATM   17 BR   UNL     1      39.327 -15.302   2.203  1.00  0.00    -0.048 Br
HETATM   18  C   UNL     1      42.395 -13.685   4.561  1.00  0.00     0.104 A 
HETATM   19  C   UNL     1      41.895 -12.411   4.848  1.00  0.00     0.048 A 
BRANCH  16  20
HETATM   20  O   UNL     1      42.025 -15.881   3.605  1.00  0.00    -0.257 OA
BRANCH  20  21
HETATM   21  C   UNL     1      41.930 -16.674   4.745  1.00  0.00     0.368 C 
HETATM   22  N   UNL     1      42.883 -17.679   4.768  1.00  0.00    -0.324 N 
HETATM   23  C   UNL     1      43.081 -18.439   6.000  1.00  0.00     0.154 C 
HETATM   24  C   UNL     1      43.952 -17.802   3.781  1.00  0.00     0.154 C 
HETATM   25  C   UNL     1      43.519 -19.875   5.703  1.00  0.00     0.187 C 
HETATM   26  O   UNL     1      44.661 -19.899   4.833  1.00  0.00    -0.388 OA
HETATM   27  C   UNL     1      44.348 -19.269   3.580  1.00  0.00     0.187 C 
HETATM   28  O   UNL     1      41.091 -16.532   5.631  1.00  0.00    -0.238 OA
ENDBRANCH  20  21
ENDBRANCH  16  20
BRANCH  18  29
HETATM   29  O   UNL     1      43.614 -14.161   4.960  1.00  0.00    -0.349 OA
BRANCH  29  30
HETATM   30  C   UNL     1      44.083 -13.845   6.271  1.00  0.00     0.171 C 
HETATM   31  C   UNL     1      44.191 -15.086   7.144  1.00  0.00     0.034 C 
ENDBRANCH  29  30
ENDBRANCH  18  29
ENDBRANCH   1  13
BRANCH   5  32
HETATM   32  N   UNL     1      41.539  -8.761   7.813  1.00  0.00    -0.282 NA
HETATM   33  H   UNL     1      41.571  -7.757   7.974  1.00  0.00     0.126 HD
HETATM   34  H   UNL     1      40.974  -9.257   8.498  1.00  0.00     0.126 HD
ENDBRANCH   5  32
BRANCH  12  35
HETATM   35  C   UNL     1      40.234 -10.228   1.331  1.00  0.00    -0.005 A 
HETATM   36  C   UNL     1      38.840 -10.242   1.200  1.00  0.00     0.016 A 
HETATM   37  C   UNL     1      38.232 -10.989   0.189  1.00  0.00     0.037 A 
HETATM   38  C   UNL     1      39.003 -11.732  -0.707  1.00  0.00     0.068 A 
HETATM   39  C   UNL     1      40.392 -11.736  -0.571  1.00  0.00     0.037 A 
HETATM   40  C   UNL     1      41.004 -10.989   0.443  1.00  0.00     0.016 A 
BRANCH  38  41
HETATM   41  O   UNL     1      38.286 -12.421  -1.646  1.00  0.00    -0.356 OA
HETATM   42  C   UNL     1      38.116 -13.814  -1.420  1.00  0.00     0.210 C 
ENDBRANCH  38  41
ENDBRANCH  12  35
TORSDOF 8
ENDMDL
