MODEL 1
REMARK VINA RESULT:      -9.7      0.000      0.000
REMARK  7 active torsions:
REMARK  status: ('A' for Active; 'I' for Inactive)
REMARK    1  A    between atoms: C_4  and  C_5 
REMARK    2  A    between atoms: C_5  and  C_6 
REMARK    3  A    between atoms: C_8  and  C_9 
REMARK    4  A    between atoms: C_9  and  C_10 
REMARK       I    between atoms: C_10  and  N_11 
REMARK    5  A    between atoms: N_11  and  N_12 
REMARK       I    between atoms: N_12  and  C_13 
REMARK       I    between atoms: C_13  and  N_14 
REMARK    6  A    between atoms: N_14  and  C_15 
REMARK    7  A    between atoms: C_17  and  C_18 
ROOT
HETATM    1  C   UNL     1      42.471 -13.835   3.336  1.00  0.00     0.238 C 
HETATM    2  N   UNL     1      42.028 -14.215   4.584  1.00  0.00    -0.266 N 
HETATM    3  O   UNL     1      43.658 -13.642   3.079  1.00  0.00    -0.272 OA
HETATM    4  H   UNL     1      41.045 -14.305   4.844  1.00  0.00     0.190 HD
ENDROOT
BRANCH   1   5
HETATM    5  C   UNL     1      41.355 -13.697   2.333  1.00  0.00     0.139 C 
BRANCH   5   6
HETATM    6  C   UNL     1      41.284 -14.893   1.387  1.00  0.00     0.185 C 
HETATM    7  N   UNL     1      42.465 -15.737   1.553  1.00  0.00    -0.363 N 
HETATM    8  C   UNL     1      42.352 -17.100   1.404  1.00  0.00     0.125 C 
HETATM    9  H   UNL     1      43.311 -15.318   1.167  1.00  0.00     0.161 HD
HETATM   10  N   UNL     1      41.228 -17.756   1.441  1.00  0.00    -0.159 NA
HETATM   11  N   UNL     1      40.084 -17.038   1.618  1.00  0.00    -0.244 N 
HETATM   12  C   UNL     1      39.993 -15.667   1.664  1.00  0.00     0.261 C 
HETATM   13  H   UNL     1      39.231 -17.572   1.748  1.00  0.00     0.192 HD
HETATM   14  O   UNL     1      38.913 -15.111   1.862  1.00  0.00    -0.269 OA
BRANCH   8  15
HETATM   15  C   UNL     1      43.630 -17.901   1.183  1.00  0.00     0.118 C 
BRANCH  15  16
HETATM   16  C   UNL     1      43.981 -18.755   2.377  1.00  0.00    -0.051 A 
HETATM   17  C   UNL     1      44.279 -20.115   2.227  1.00  0.00     0.007 A 
HETATM   18  C   UNL     1      44.605 -20.892   3.340  1.00  0.00     0.001 A 
HETATM   19  C   UNL     1      44.636 -20.319   4.610  1.00  0.00     0.000 A 
HETATM   20  C   UNL     1      44.339 -18.968   4.770  1.00  0.00     0.001 A 
HETATM   21  C   UNL     1      44.012 -18.189   3.660  1.00  0.00     0.007 A 
ENDBRANCH  15  16
ENDBRANCH   8  15
ENDBRANCH   5   6
ENDBRANCH   1   5
BRANCH   2  22
HETATM   22  N   UNL     1      42.963 -14.396   5.612  1.00  0.00    -0.249 N 
HETATM   23  C   UNL     1      43.151 -13.326   6.475  1.00  0.00     0.339 C 
HETATM   24  N   UNL     1      44.143 -13.585   7.395  1.00  0.00    -0.308 N 
HETATM   25  O   UNL     1      42.457 -12.317   6.396  1.00  0.00    -0.245 OA
HETATM   26  H   UNL     1      44.492 -14.533   7.403  1.00  0.00     0.170 HD
HETATM   27  H   UNL     1      43.750 -14.993   5.371  1.00  0.00     0.192 HD
BRANCH  24  28
HETATM   28  C   UNL     1      44.617 -12.731   8.410  1.00  0.00     0.037 A 
HETATM   29  C   UNL     1      43.871 -12.366   9.534  1.00  0.00     0.045 A 
HETATM   30  C   UNL     1      44.410 -11.515  10.515  1.00  0.00     0.050 A 
HETATM   31  C   UNL     1      45.710 -11.016  10.346  1.00  0.00     0.016 A 
HETATM   32  C   UNL     1      46.458 -11.370   9.225  1.00  0.00     0.003 A 
HETATM   33  C   UNL     1      45.913 -12.222   8.264  1.00  0.00     0.029 A 
BRANCH  30  34
HETATM   34  C   UNL     1      43.594 -11.110  11.717  1.00  0.00     0.417 C 
HETATM   35  F   UNL     1      42.326 -10.716  11.412  1.00  0.00    -0.166 F 
HETATM   36  F   UNL     1      43.459 -12.118  12.624  1.00  0.00    -0.166 F 
HETATM   37  F   UNL     1      44.157 -10.073  12.397  1.00  0.00    -0.166 F 
ENDBRANCH  30  34
ENDBRANCH  24  28
ENDBRANCH   2  22
TORSDOF 7
ENDMDL
MODEL 2
REMARK VINA RESULT:      -9.6      4.927     10.230
REMARK  7 active torsions:
REMARK  status: ('A' for Active; 'I' for Inactive)
REMARK    1  A    between atoms: C_4  and  C_5 
REMARK    2  A    between atoms: C_5  and  C_6 
REMARK    3  A    between atoms: C_8  and  C_9 
REMARK    4  A    between atoms: C_9  and  C_10 
REMARK       I    between atoms: C_10  and  N_11 
REMARK    5  A    between atoms: N_11  and  N_12 
REMARK       I    between atoms: N_12  and  C_13 
REMARK       I    between atoms: C_13  and  N_14 
REMARK    6  A    between atoms: N_14  and  C_15 
REMARK    7  A    between atoms: C_17  and  C_18 
ROOT
HETATM    1  C   UNL     1      39.612 -12.298   6.463  1.00  0.00     0.238 C 
HETATM    2  N   UNL     1      40.420 -13.389   6.693  1.00  0.00    -0.266 N 
HETATM    3  O   UNL     1      38.664 -12.322   5.681  1.00  0.00    -0.272 OA
HETATM    4  H   UNL     1      41.259 -13.373   7.275  1.00  0.00     0.190 HD
ENDROOT
BRANCH   1   5
HETATM    5  C   UNL     1      40.009 -11.091   7.274  1.00  0.00     0.139 C 
BRANCH   5   6
HETATM    6  C   UNL     1      39.183 -10.964   8.552  1.00  0.00     0.185 C 
HETATM    7  N   UNL     1      39.974 -11.385   9.706  1.00  0.00    -0.363 N 
HETATM    8  C   UNL     1      39.791 -10.759  10.918  1.00  0.00     0.125 C 
HETATM    9  H   UNL     1      40.115 -12.394   9.745  1.00  0.00     0.161 HD
HETATM   10  N   UNL     1      39.205  -9.608  11.074  1.00  0.00    -0.159 NA
HETATM   11  N   UNL     1      38.722  -8.989   9.960  1.00  0.00    -0.244 N 
HETATM   12  C   UNL     1      38.707  -9.516   8.690  1.00  0.00     0.261 C 
HETATM   13  H   UNL     1      38.363  -8.048  10.086  1.00  0.00     0.192 HD
HETATM   14  O   UNL     1      38.278  -8.862   7.740  1.00  0.00    -0.269 OA
BRANCH   8  15
HETATM   15  C   UNL     1      40.311 -11.462  12.167  1.00  0.00     0.118 C 
BRANCH  15  16
HETATM   16  C   UNL     1      41.431 -10.696  12.828  1.00  0.00    -0.051 A 
HETATM   17  C   UNL     1      41.331 -10.281  14.162  1.00  0.00     0.007 A 
HETATM   18  C   UNL     1      42.377  -9.576  14.761  1.00  0.00     0.001 A 
HETATM   19  C   UNL     1      43.528  -9.277  14.033  1.00  0.00     0.000 A 
HETATM   20  C   UNL     1      43.635  -9.683  12.706  1.00  0.00     0.001 A 
HETATM   21  C   UNL     1      42.592 -10.388  12.105  1.00  0.00     0.007 A 
ENDBRANCH  15  16
ENDBRANCH   8  15
ENDBRANCH   5   6
ENDBRANCH   1   5
BRANCH   2  22
HETATM   22  N   UNL     1      40.156 -14.587   6.016  1.00  0.00    -0.249 N 
HETATM   23  C   UNL     1      41.250 -15.250   5.477  1.00  0.00     0.339 C 
HETATM   24  N   UNL     1      40.868 -16.368   4.771  1.00  0.00    -0.308 N 
HETATM   25  O   UNL     1      42.394 -14.853   5.678  1.00  0.00    -0.245 OA
HETATM   26  H   UNL     1      39.893 -16.621   4.851  1.00  0.00     0.170 HD
HETATM   27  H   UNL     1      39.263 -14.613   5.531  1.00  0.00     0.192 HD
BRANCH  24  28
HETATM   28  C   UNL     1      41.697 -17.271   4.078  1.00  0.00     0.037 A 
HETATM   29  C   UNL     1      42.691 -18.042   4.687  1.00  0.00     0.045 A 
HETATM   30  C   UNL     1      43.479 -18.932   3.934  1.00  0.00     0.050 A 
HETATM   31  C   UNL     1      43.269 -19.027   2.551  1.00  0.00     0.016 A 
HETATM   32  C   UNL     1      42.285 -18.256   1.935  1.00  0.00     0.003 A 
HETATM   33  C   UNL     1      41.505 -17.384   2.695  1.00  0.00     0.029 A 
BRANCH  30  34
HETATM   34  C   UNL     1      44.562 -19.749   4.594  1.00  0.00     0.417 C 
HETATM   35  F   UNL     1      45.481 -19.002   5.267  1.00  0.00    -0.166 F 
HETATM   36  F   UNL     1      44.070 -20.637   5.504  1.00  0.00    -0.166 F 
HETATM   37  F   UNL     1      45.267 -20.492   3.696  1.00  0.00    -0.166 F 
ENDBRANCH  30  34
ENDBRANCH  24  28
ENDBRANCH   2  22
TORSDOF 7
ENDMDL
MODEL 3
REMARK VINA RESULT:      -9.4      5.127     10.049
REMARK  7 active torsions:
REMARK  status: ('A' for Active; 'I' for Inactive)
REMARK    1  A    between atoms: C_4  and  C_5 
REMARK    2  A    between atoms: C_5  and  C_6 
REMARK    3  A    between atoms: C_8  and  C_9 
REMARK    4  A    between atoms: C_9  and  C_10 
REMARK       I    between atoms: C_10  and  N_11 
REMARK    5  A    between atoms: N_11  and  N_12 
REMARK       I    between atoms: N_12  and  C_13 
REMARK       I    between atoms: C_13  and  N_14 
REMARK    6  A    between atoms: N_14  and  C_15 
REMARK    7  A    between atoms: C_17  and  C_18 
ROOT
HETATM    1  C   UNL     1      40.729 -12.193   6.426  1.00  0.00     0.238 C 
HETATM    2  N   UNL     1      40.862 -13.563   6.446  1.00  0.00    -0.266 N 
HETATM    3  O   UNL     1      41.583 -11.445   5.953  1.00  0.00    -0.272 OA
HETATM    4  H   UNL     1      40.207 -14.200   6.901  1.00  0.00     0.190 HD
ENDROOT
BRANCH   1   5
HETATM    5  C   UNL     1      39.432 -11.720   7.030  1.00  0.00     0.139 C 
BRANCH   5   6
HETATM    6  C   UNL     1      39.651 -10.974   8.344  1.00  0.00     0.185 C 
HETATM    7  N   UNL     1      41.013 -11.192   8.826  1.00  0.00    -0.363 N 
HETATM    8  C   UNL     1      41.664 -10.184   9.499  1.00  0.00     0.125 C 
HETATM    9  H   UNL     1      41.161 -12.134   9.187  1.00  0.00     0.161 HD
HETATM   10  N   UNL     1      41.308  -8.933   9.478  1.00  0.00    -0.159 NA
HETATM   11  N   UNL     1      40.202  -8.603   8.756  1.00  0.00    -0.244 N 
HETATM   12  C   UNL     1      39.361  -9.487   8.122  1.00  0.00     0.261 C 
HETATM   13  H   UNL     1      39.999  -7.612   8.666  1.00  0.00     0.192 HD
HETATM   14  O   UNL     1      38.402  -9.087   7.464  1.00  0.00    -0.269 OA
BRANCH   8  15
HETATM   15  C   UNL     1      42.890 -10.557  10.326  1.00  0.00     0.118 C 
BRANCH  15  16
HETATM   16  C   UNL     1      42.667 -10.345  11.803  1.00  0.00    -0.051 A 
HETATM   17  C   UNL     1      41.576 -10.929  12.459  1.00  0.00     0.007 A 
HETATM   18  C   UNL     1      41.384 -10.727  13.827  1.00  0.00     0.001 A 
HETATM   19  C   UNL     1      42.277  -9.938  14.551  1.00  0.00     0.000 A 
HETATM   20  C   UNL     1      43.363  -9.350  13.907  1.00  0.00     0.001 A 
HETATM   21  C   UNL     1      43.557  -9.551  12.541  1.00  0.00     0.007 A 
ENDBRANCH  15  16
ENDBRANCH   8  15
ENDBRANCH   5   6
ENDBRANCH   1   5
BRANCH   2  22
HETATM   22  N   UNL     1      42.017 -14.143   5.901  1.00  0.00    -0.249 N 
HETATM   23  C   UNL     1      42.008 -15.524   5.756  1.00  0.00     0.339 C 
HETATM   24  N   UNL     1      43.216 -15.991   5.286  1.00  0.00    -0.308 N 
HETATM   25  O   UNL     1      41.001 -16.181   5.998  1.00  0.00    -0.245 OA
HETATM   26  H   UNL     1      43.873 -15.281   4.994  1.00  0.00     0.170 HD
HETATM   27  H   UNL     1      42.883 -13.667   6.137  1.00  0.00     0.192 HD
BRANCH  24  28
HETATM   28  C   UNL     1      43.579 -17.328   5.034  1.00  0.00     0.037 A 
HETATM   29  C   UNL     1      43.552 -17.917   3.767  1.00  0.00     0.045 A 
HETATM   30  C   UNL     1      43.937 -19.258   3.585  1.00  0.00     0.050 A 
HETATM   31  C   UNL     1      44.336 -20.010   4.698  1.00  0.00     0.016 A 
HETATM   32  C   UNL     1      44.361 -19.432   5.966  1.00  0.00     0.003 A 
HETATM   33  C   UNL     1      43.984 -18.099   6.131  1.00  0.00     0.029 A 
BRANCH  30  34
HETATM   34  C   UNL     1      43.887 -19.895   2.218  1.00  0.00     0.417 C 
HETATM   35  F   UNL     1      43.844 -18.998   1.195  1.00  0.00    -0.166 F 
HETATM   36  F   UNL     1      44.968 -20.688   1.969  1.00  0.00    -0.166 F 
HETATM   37  F   UNL     1      42.797 -20.696   2.062  1.00  0.00    -0.166 F 
ENDBRANCH  30  34
ENDBRANCH  24  28
ENDBRANCH   2  22
TORSDOF 7
ENDMDL
MODEL 4
REMARK VINA RESULT:      -9.2      5.514      7.524
REMARK  7 active torsions:
REMARK  status: ('A' for Active; 'I' for Inactive)
REMARK    1  A    between atoms: C_4  and  C_5 
REMARK    2  A    between atoms: C_5  and  C_6 
REMARK    3  A    between atoms: C_8  and  C_9 
REMARK    4  A    between atoms: C_9  and  C_10 
REMARK       I    between atoms: C_10  and  N_11 
REMARK    5  A    between atoms: N_11  and  N_12 
REMARK       I    between atoms: N_12  and  C_13 
REMARK       I    between atoms: C_13  and  N_14 
REMARK    6  A    between atoms: N_14  and  C_15 
REMARK    7  A    between atoms: C_17  and  C_18 
ROOT
HETATM    1  C   UNL     1      40.609 -13.053   5.463  1.00  0.00     0.238 C 
HETATM    2  N   UNL     1      41.715 -13.596   6.079  1.00  0.00    -0.266 N 
HETATM    3  O   UNL     1      39.629 -13.722   5.139  1.00  0.00    -0.272 OA
HETATM    4  H   UNL     1      42.571 -13.080   6.286  1.00  0.00     0.190 HD
ENDROOT
BRANCH   1   5
HETATM    5  C   UNL     1      40.727 -11.566   5.245  1.00  0.00     0.139 C 
BRANCH   5   6
HETATM    6  C   UNL     1      40.191 -11.144   3.880  1.00  0.00     0.185 C 
HETATM    7  N   UNL     1      40.532 -12.146   2.872  1.00  0.00    -0.363 N 
HETATM    8  C   UNL     1      39.660 -12.390   1.836  1.00  0.00     0.125 C 
HETATM    9  H   UNL     1      41.522 -12.142   2.627  1.00  0.00     0.161 HD
HETATM   10  N   UNL     1      38.406 -12.044   1.830  1.00  0.00    -0.159 NA
HETATM   11  N   UNL     1      37.929 -11.375   2.916  1.00  0.00    -0.244 N 
HETATM   12  C   UNL     1      38.677 -10.940   3.985  1.00  0.00     0.261 C 
HETATM   13  H   UNL     1      36.929 -11.206   2.940  1.00  0.00     0.192 HD
HETATM   14  O   UNL     1      38.146 -10.372   4.939  1.00  0.00    -0.269 OA
BRANCH   8  15
HETATM   15  C   UNL     1      40.199 -13.118   0.610  1.00  0.00     0.118 C 
BRANCH  15  16
HETATM   16  C   UNL     1      40.460 -14.580   0.884  1.00  0.00    -0.051 A 
HETATM   17  C   UNL     1      39.734 -15.270   1.862  1.00  0.00     0.007 A 
HETATM   18  C   UNL     1      39.984 -16.623   2.103  1.00  0.00     0.001 A 
HETATM   19  C   UNL     1      40.961 -17.296   1.370  1.00  0.00     0.000 A 
HETATM   20  C   UNL     1      41.690 -16.617   0.397  1.00  0.00     0.001 A 
HETATM   21  C   UNL     1      41.442 -15.266   0.155  1.00  0.00     0.007 A 
ENDBRANCH  15  16
ENDBRANCH   8  15
ENDBRANCH   5   6
ENDBRANCH   1   5
BRANCH   2  22
HETATM   22  N   UNL     1      41.733 -14.969   6.357  1.00  0.00    -0.249 N 
HETATM   23  C   UNL     1      42.585 -15.747   5.585  1.00  0.00     0.339 C 
HETATM   24  N   UNL     1      42.466 -17.085   5.890  1.00  0.00    -0.308 N 
HETATM   25  O   UNL     1      43.352 -15.235   4.775  1.00  0.00    -0.245 OA
HETATM   26  H   UNL     1      41.896 -17.298   6.697  1.00  0.00     0.170 HD
HETATM   27  H   UNL     1      40.844 -15.352   6.668  1.00  0.00     0.192 HD
BRANCH  24  28
HETATM   28  C   UNL     1      43.155 -18.164   5.304  1.00  0.00     0.037 A 
HETATM   29  C   UNL     1      43.032 -18.530   3.960  1.00  0.00     0.045 A 
HETATM   30  C   UNL     1      43.757 -19.616   3.437  1.00  0.00     0.050 A 
HETATM   31  C   UNL     1      44.599 -20.346   4.287  1.00  0.00     0.016 A 
HETATM   32  C   UNL     1      44.722 -19.992   5.629  1.00  0.00     0.003 A 
HETATM   33  C   UNL     1      44.003 -18.908   6.133  1.00  0.00     0.029 A 
BRANCH  30  34
HETATM   34  C   UNL     1      43.607 -20.017   1.991  1.00  0.00     0.417 C 
HETATM   35  F   UNL     1      44.426 -21.038   1.616  1.00  0.00    -0.166 F 
HETATM   36  F   UNL     1      42.343 -20.429   1.689  1.00  0.00    -0.166 F 
HETATM   37  F   UNL     1      43.874 -18.988   1.139  1.00  0.00    -0.166 F 
ENDBRANCH  30  34
ENDBRANCH  24  28
ENDBRANCH   2  22
TORSDOF 7
ENDMDL
MODEL 5
REMARK VINA RESULT:      -8.9      4.233      7.030
REMARK  7 active torsions:
REMARK  status: ('A' for Active; 'I' for Inactive)
REMARK    1  A    between atoms: C_4  and  C_5 
REMARK    2  A    between atoms: C_5  and  C_6 
REMARK    3  A    between atoms: C_8  and  C_9 
REMARK    4  A    between atoms: C_9  and  C_10 
REMARK       I    between atoms: C_10  and  N_11 
REMARK    5  A    between atoms: N_11  and  N_12 
REMARK       I    between atoms: N_12  and  C_13 
REMARK       I    between atoms: C_13  and  N_14 
REMARK    6  A    between atoms: N_14  and  C_15 
REMARK    7  A    between atoms: C_17  and  C_18 
ROOT
HETATM    1  C   UNL     1      40.811 -14.571  -0.465  1.00  0.00     0.238 C 
HETATM    2  N   UNL     1      40.806 -15.946  -0.377  1.00  0.00    -0.266 N 
HETATM    3  O   UNL     1      41.827 -13.896  -0.311  1.00  0.00    -0.272 OA
HETATM    4  H   UNL     1      39.965 -16.523  -0.422  1.00  0.00     0.190 HD
ENDROOT
BRANCH   1   5
HETATM    5  C   UNL     1      39.453 -13.997  -0.779  1.00  0.00     0.139 C 
BRANCH   5   6
HETATM    6  C   UNL     1      38.764 -13.447   0.468  1.00  0.00     0.185 C 
HETATM    7  N   UNL     1      39.397 -13.982   1.671  1.00  0.00    -0.363 N 
HETATM    8  C   UNL     1      39.480 -13.198   2.799  1.00  0.00     0.125 C 
HETATM    9  H   UNL     1      39.183 -14.966   1.830  1.00  0.00     0.161 HD
HETATM   10  N   UNL     1      39.333 -11.905   2.813  1.00  0.00    -0.159 NA
HETATM   11  N   UNL     1      39.058 -11.289   1.630  1.00  0.00    -0.244 N 
HETATM   12  C   UNL     1      38.821 -11.918   0.430  1.00  0.00     0.261 C 
HETATM   13  H   UNL     1      39.049 -10.274   1.640  1.00  0.00     0.192 HD
HETATM   14  O   UNL     1      38.613 -11.269  -0.594  1.00  0.00    -0.269 OA
BRANCH   8  15
HETATM   15  C   UNL     1      39.765 -13.891   4.127  1.00  0.00     0.118 C 
BRANCH  15  16
HETATM   16  C   UNL     1      41.241 -13.935   4.442  1.00  0.00    -0.051 A 
HETATM   17  C   UNL     1      42.170 -14.356   3.483  1.00  0.00     0.007 A 
HETATM   18  C   UNL     1      43.532 -14.388   3.787  1.00  0.00     0.001 A 
HETATM   19  C   UNL     1      43.977 -14.003   5.050  1.00  0.00     0.000 A 
HETATM   20  C   UNL     1      43.061 -13.586   6.012  1.00  0.00     0.001 A 
HETATM   21  C   UNL     1      41.699 -13.552   5.711  1.00  0.00     0.007 A 
ENDBRANCH  15  16
ENDBRANCH   8  15
ENDBRANCH   5   6
ENDBRANCH   1   5
BRANCH   2  22
HETATM   22  N   UNL     1      42.007 -16.616  -0.105  1.00  0.00    -0.249 N 
HETATM   23  C   UNL     1      42.083 -17.285   1.109  1.00  0.00     0.339 C 
HETATM   24  N   UNL     1      43.328 -17.839   1.304  1.00  0.00    -0.308 N 
HETATM   25  O   UNL     1      41.108 -17.366   1.850  1.00  0.00    -0.245 OA
HETATM   26  H   UNL     1      43.951 -17.801   0.509  1.00  0.00     0.170 HD
HETATM   27  H   UNL     1      42.837 -16.172  -0.489  1.00  0.00     0.192 HD
BRANCH  24  28
HETATM   28  C   UNL     1      43.776 -18.572   2.420  1.00  0.00     0.037 A 
HETATM   29  C   UNL     1      43.941 -18.027   3.696  1.00  0.00     0.045 A 
HETATM   30  C   UNL     1      44.385 -18.820   4.770  1.00  0.00     0.050 A 
HETATM   31  C   UNL     1      44.679 -20.171   4.543  1.00  0.00     0.016 A 
HETATM   32  C   UNL     1      44.523 -20.722   3.273  1.00  0.00     0.003 A 
HETATM   33  C   UNL     1      44.074 -19.926   2.219  1.00  0.00     0.029 A 
BRANCH  30  34
HETATM   34  C   UNL     1      44.580 -18.221   6.141  1.00  0.00     0.417 C 
HETATM   35  F   UNL     1      43.869 -17.078   6.348  1.00  0.00    -0.166 F 
HETATM   36  F   UNL     1      44.212 -19.071   7.142  1.00  0.00    -0.166 F 
HETATM   37  F   UNL     1      45.882 -17.904   6.385  1.00  0.00    -0.166 F 
ENDBRANCH  30  34
ENDBRANCH  24  28
ENDBRANCH   2  22
TORSDOF 7
ENDMDL
MODEL 6
REMARK VINA RESULT:      -8.8      3.150      4.509
REMARK  7 active torsions:
REMARK  status: ('A' for Active; 'I' for Inactive)
REMARK    1  A    between atoms: C_4  and  C_5 
REMARK    2  A    between atoms: C_5  and  C_6 
REMARK    3  A    between atoms: C_8  and  C_9 
REMARK    4  A    between atoms: C_9  and  C_10 
REMARK       I    between atoms: C_10  and  N_11 
REMARK    5  A    between atoms: N_11  and  N_12 
REMARK       I    between atoms: N_12  and  C_13 
REMARK       I    between atoms: C_13  and  N_14 
REMARK    6  A    between atoms: N_14  and  C_15 
REMARK    7  A    between atoms: C_17  and  C_18 
ROOT
HETATM    1  C   UNL     1      39.269 -12.454   6.216  1.00  0.00     0.238 C 
HETATM    2  N   UNL     1      39.487 -12.895   7.502  1.00  0.00    -0.266 N 
HETATM    3  O   UNL     1      38.674 -11.409   5.959  1.00  0.00    -0.272 OA
HETATM    4  H   UNL     1      39.907 -13.794   7.740  1.00  0.00     0.190 HD
ENDROOT
BRANCH   1   5
HETATM    5  C   UNL     1      39.845 -13.377   5.172  1.00  0.00     0.139 C 
BRANCH   5   6
HETATM    6  C   UNL     1      41.128 -14.052   5.652  1.00  0.00     0.185 C 
HETATM    7  N   UNL     1      41.010 -15.503   5.530  1.00  0.00    -0.363 N 
HETATM    8  C   UNL     1      42.122 -16.250   5.214  1.00  0.00     0.125 C 
HETATM    9  H   UNL     1      40.384 -15.911   6.224  1.00  0.00     0.161 HD
HETATM   10  N   UNL     1      43.214 -15.766   4.698  1.00  0.00    -0.159 NA
HETATM   11  N   UNL     1      43.267 -14.424   4.475  1.00  0.00    -0.244 N 
HETATM   12  C   UNL     1      42.305 -13.510   4.837  1.00  0.00     0.261 C 
HETATM   13  H   UNL     1      44.082 -14.079   3.979  1.00  0.00     0.192 HD
HETATM   14  O   UNL     1      42.430 -12.317   4.559  1.00  0.00    -0.269 OA
BRANCH   8  15
HETATM   15  C   UNL     1      42.072 -17.749   5.486  1.00  0.00     0.118 C 
BRANCH  15  16
HETATM   16  C   UNL     1      42.887 -18.537   4.489  1.00  0.00    -0.051 A 
HETATM   17  C   UNL     1      43.978 -19.311   4.901  1.00  0.00     0.007 A 
HETATM   18  C   UNL     1      44.721 -20.037   3.968  1.00  0.00     0.001 A 
HETATM   19  C   UNL     1      44.383 -19.993   2.617  1.00  0.00     0.000 A 
HETATM   20  C   UNL     1      43.302 -19.223   2.196  1.00  0.00     0.001 A 
HETATM   21  C   UNL     1      42.558 -18.498   3.126  1.00  0.00     0.007 A 
ENDBRANCH  15  16
ENDBRANCH   8  15
ENDBRANCH   5   6
ENDBRANCH   1   5
BRANCH   2  22
HETATM   22  N   UNL     1      39.017 -12.124   8.575  1.00  0.00    -0.249 N 
HETATM   23  C   UNL     1      39.957 -11.350   9.241  1.00  0.00     0.339 C 
HETATM   24  N   UNL     1      39.403 -10.698  10.320  1.00  0.00    -0.308 N 
HETATM   25  O   UNL     1      41.114 -11.273   8.840  1.00  0.00    -0.245 OA
HETATM   26  H   UNL     1      38.397 -10.761  10.397  1.00  0.00     0.170 HD
HETATM   27  H   UNL     1      38.249 -12.542   9.093  1.00  0.00     0.192 HD
BRANCH  24  28
HETATM   28  C   UNL     1      40.051  -9.844  11.232  1.00  0.00     0.037 A 
HETATM   29  C   UNL     1      40.988 -10.276  12.175  1.00  0.00     0.045 A 
HETATM   30  C   UNL     1      41.605  -9.366  13.053  1.00  0.00     0.050 A 
HETATM   31  C   UNL     1      41.256  -8.010  12.984  1.00  0.00     0.016 A 
HETATM   32  C   UNL     1      40.319  -7.571  12.052  1.00  0.00     0.003 A 
HETATM   33  C   UNL     1      39.721  -8.484  11.182  1.00  0.00     0.029 A 
BRANCH  30  34
HETATM   34  C   UNL     1      42.601  -9.842  14.080  1.00  0.00     0.417 C 
HETATM   35  F   UNL     1      43.757  -9.123  14.099  1.00  0.00    -0.166 F 
HETATM   36  F   UNL     1      42.112  -9.786  15.352  1.00  0.00    -0.166 F 
HETATM   37  F   UNL     1      42.968 -11.138  13.883  1.00  0.00    -0.166 F 
ENDBRANCH  30  34
ENDBRANCH  24  28
ENDBRANCH   2  22
TORSDOF 7
ENDMDL
MODEL 7
REMARK VINA RESULT:      -8.7      6.087      8.635
REMARK  7 active torsions:
REMARK  status: ('A' for Active; 'I' for Inactive)
REMARK    1  A    between atoms: C_4  and  C_5 
REMARK    2  A    between atoms: C_5  and  C_6 
REMARK    3  A    between atoms: C_8  and  C_9 
REMARK    4  A    between atoms: C_9  and  C_10 
REMARK       I    between atoms: C_10  and  N_11 
REMARK    5  A    between atoms: N_11  and  N_12 
REMARK       I    between atoms: N_12  and  C_13 
REMARK       I    between atoms: C_13  and  N_14 
REMARK    6  A    between atoms: N_14  and  C_15 
REMARK    7  A    between atoms: C_17  and  C_18 
ROOT
HETATM    1  C   UNL     1      40.370 -13.884  -0.930  1.00  0.00     0.238 C 
HETATM    2  N   UNL     1      40.614 -15.238  -0.974  1.00  0.00    -0.266 N 
HETATM    3  O   UNL     1      41.200 -13.068  -0.530  1.00  0.00    -0.272 OA
HETATM    4  H   UNL     1      39.919 -15.942  -1.225  1.00  0.00     0.190 HD
ENDROOT
BRANCH   1   5
HETATM    5  C   UNL     1      38.996 -13.517  -1.429  1.00  0.00     0.139 C 
BRANCH   5   6
HETATM    6  C   UNL     1      38.285 -12.548  -0.488  1.00  0.00     0.185 C 
HETATM    7  N   UNL     1      38.742 -12.753   0.885  1.00  0.00    -0.363 N 
HETATM    8  C   UNL     1      38.834 -11.676   1.737  1.00  0.00     0.125 C 
HETATM    9  H   UNL     1      38.388 -13.616   1.298  1.00  0.00     0.161 HD
HETATM   10  N   UNL     1      38.858 -10.432   1.355  1.00  0.00    -0.159 NA
HETATM   11  N   UNL     1      38.764 -10.180   0.019  1.00  0.00    -0.244 N 
HETATM   12  C   UNL     1      38.545 -11.117  -0.963  1.00  0.00     0.261 C 
HETATM   13  H   UNL     1      38.888  -9.215  -0.268  1.00  0.00     0.192 HD
HETATM   14  O   UNL     1      38.509 -10.792  -2.150  1.00  0.00    -0.269 OA
BRANCH   8  15
HETATM   15  C   UNL     1      38.916 -11.958   3.233  1.00  0.00     0.118 C 
BRANCH  15  16
HETATM   16  C   UNL     1      40.117 -12.800   3.589  1.00  0.00    -0.051 A 
HETATM   17  C   UNL     1      41.415 -12.368   3.289  1.00  0.00     0.007 A 
HETATM   18  C   UNL     1      42.517 -13.156   3.627  1.00  0.00     0.001 A 
HETATM   19  C   UNL     1      42.332 -14.381   4.266  1.00  0.00     0.000 A 
HETATM   20  C   UNL     1      41.045 -14.820   4.567  1.00  0.00     0.001 A 
HETATM   21  C   UNL     1      39.943 -14.035   4.230  1.00  0.00     0.007 A 
ENDBRANCH  15  16
ENDBRANCH   8  15
ENDBRANCH   5   6
ENDBRANCH   1   5
BRANCH   2  22
HETATM   22  N   UNL     1      41.861 -15.720  -0.551  1.00  0.00    -0.249 N 
HETATM   23  C   UNL     1      41.848 -16.708   0.423  1.00  0.00     0.339 C 
HETATM   24  N   UNL     1      43.122 -17.050   0.816  1.00  0.00    -0.308 N 
HETATM   25  O   UNL     1      40.793 -17.200   0.813  1.00  0.00    -0.245 OA
HETATM   26  H   UNL     1      43.869 -16.648   0.267  1.00  0.00     0.170 HD
HETATM   27  H   UNL     1      42.608 -15.029  -0.558  1.00  0.00     0.192 HD
BRANCH  24  28
HETATM   28  C   UNL     1      43.496 -17.997   1.789  1.00  0.00     0.037 A 
HETATM   29  C   UNL     1      43.607 -19.367   1.541  1.00  0.00     0.045 A 
HETATM   30  C   UNL     1      43.994 -20.258   2.559  1.00  0.00     0.050 A 
HETATM   31  C   UNL     1      44.252 -19.756   3.842  1.00  0.00     0.016 A 
HETATM   32  C   UNL     1      44.137 -18.391   4.100  1.00  0.00     0.003 A 
HETATM   33  C   UNL     1      43.760 -17.519   3.079  1.00  0.00     0.029 A 
BRANCH  30  34
HETATM   34  C   UNL     1      44.095 -21.739   2.291  1.00  0.00     0.417 C 
HETATM   35  F   UNL     1      42.993 -22.264   1.687  1.00  0.00    -0.166 F 
HETATM   36  F   UNL     1      45.145 -22.055   1.481  1.00  0.00    -0.166 F 
HETATM   37  F   UNL     1      44.278 -22.459   3.432  1.00  0.00    -0.166 F 
ENDBRANCH  30  34
ENDBRANCH  24  28
ENDBRANCH   2  22
TORSDOF 7
ENDMDL
MODEL 8
REMARK VINA RESULT:      -8.6      4.335      9.134
REMARK  7 active torsions:
REMARK  status: ('A' for Active; 'I' for Inactive)
REMARK    1  A    between atoms: C_4  and  C_5 
REMARK    2  A    between atoms: C_5  and  C_6 
REMARK    3  A    between atoms: C_8  and  C_9 
REMARK    4  A    between atoms: C_9  and  C_10 
REMARK       I    between atoms: C_10  and  N_11 
REMARK    5  A    between atoms: N_11  and  N_12 
REMARK       I    between atoms: N_12  and  C_13 
REMARK       I    between atoms: C_13  and  N_14 
REMARK    6  A    between atoms: N_14  and  C_15 
REMARK    7  A    between atoms: C_17  and  C_18 
ROOT
HETATM    1  C   UNL     1      41.005 -10.986   7.511  1.00  0.00     0.238 C 
HETATM    2  N   UNL     1      40.750 -12.207   6.927  1.00  0.00    -0.266 N 
HETATM    3  O   UNL     1      42.036 -10.348   7.304  1.00  0.00    -0.272 OA
HETATM    4  H   UNL     1      39.942 -12.792   7.143  1.00  0.00     0.190 HD
ENDROOT
BRANCH   1   5
HETATM    5  C   UNL     1      39.889 -10.520   8.411  1.00  0.00     0.139 C 
BRANCH   5   6
HETATM    6  C   UNL     1      40.275 -10.595   9.886  1.00  0.00     0.185 C 
HETATM    7  N   UNL     1      41.618 -11.153  10.028  1.00  0.00    -0.363 N 
HETATM    8  C   UNL     1      42.433 -10.709  11.043  1.00  0.00     0.125 C 
HETATM    9  H   UNL     1      41.655 -12.154   9.836  1.00  0.00     0.161 HD
HETATM   10  N   UNL     1      42.250  -9.606  11.708  1.00  0.00    -0.159 NA
HETATM   11  N   UNL     1      41.163  -8.850  11.390  1.00  0.00    -0.244 N 
HETATM   12  C   UNL     1      40.178  -9.193  10.493  1.00  0.00     0.261 C 
HETATM   13  H   UNL     1      41.092  -7.945  11.844  1.00  0.00     0.192 HD
HETATM   14  O   UNL     1      39.250  -8.423  10.249  1.00  0.00    -0.269 OA
BRANCH   8  15
HETATM   15  C   UNL     1      43.638 -11.567  11.415  1.00  0.00     0.118 C 
BRANCH  15  16
HETATM   16  C   UNL     1      44.566 -11.783  10.245  1.00  0.00    -0.051 A 
HETATM   17  C   UNL     1      45.680 -10.958  10.047  1.00  0.00     0.007 A 
HETATM   18  C   UNL     1      46.533 -11.172   8.962  1.00  0.00     0.001 A 
HETATM   19  C   UNL     1      46.279 -12.209   8.066  1.00  0.00     0.000 A 
HETATM   20  C   UNL     1      45.172 -13.033   8.253  1.00  0.00     0.001 A 
HETATM   21  C   UNL     1      44.319 -12.822   9.335  1.00  0.00     0.007 A 
ENDBRANCH  15  16
ENDBRANCH   8  15
ENDBRANCH   5   6
ENDBRANCH   1   5
BRANCH   2  22
HETATM   22  N   UNL     1      41.699 -12.754   6.053  1.00  0.00    -0.249 N 
HETATM   23  C   UNL     1      41.525 -14.086   5.703  1.00  0.00     0.339 C 
HETATM   24  N   UNL     1      42.552 -14.539   4.906  1.00  0.00    -0.308 N 
HETATM   25  O   UNL     1      40.533 -14.712   6.064  1.00  0.00    -0.245 OA
HETATM   26  H   UNL     1      43.198 -13.832   4.584  1.00  0.00     0.170 HD
HETATM   27  H   UNL     1      42.638 -12.379   6.156  1.00  0.00     0.192 HD
BRANCH  24  28
HETATM   28  C   UNL     1      42.721 -15.833   4.375  1.00  0.00     0.037 A 
HETATM   29  C   UNL     1      43.508 -16.823   4.970  1.00  0.00     0.045 A 
HETATM   30  C   UNL     1      43.626 -18.099   4.390  1.00  0.00     0.050 A 
HETATM   31  C   UNL     1      42.955 -18.366   3.188  1.00  0.00     0.016 A 
HETATM   32  C   UNL     1      42.174 -17.383   2.585  1.00  0.00     0.003 A 
HETATM   33  C   UNL     1      42.059 -16.124   3.176  1.00  0.00     0.029 A 
BRANCH  30  34
HETATM   34  C   UNL     1      44.492 -19.158   5.026  1.00  0.00     0.417 C 
HETATM   35  F   UNL     1      45.577 -18.660   5.680  1.00  0.00    -0.166 F 
HETATM   36  F   UNL     1      43.817 -19.905   5.946  1.00  0.00    -0.166 F 
HETATM   37  F   UNL     1      44.976 -20.046   4.113  1.00  0.00    -0.166 F 
ENDBRANCH  30  34
ENDBRANCH  24  28
ENDBRANCH   2  22
TORSDOF 7
ENDMDL
MODEL 9
REMARK VINA RESULT:      -8.5      2.389      3.219
REMARK  7 active torsions:
REMARK  status: ('A' for Active; 'I' for Inactive)
REMARK    1  A    between atoms: C_4  and  C_5 
REMARK    2  A    between atoms: C_5  and  C_6 
REMARK    3  A    between atoms: C_8  and  C_9 
REMARK    4  A    between atoms: C_9  and  C_10 
REMARK       I    between atoms: C_10  and  N_11 
REMARK    5  A    between atoms: N_11  and  N_12 
REMARK       I    between atoms: N_12  and  C_13 
REMARK       I    between atoms: C_13  and  N_14 
REMARK    6  A    between atoms: N_14  and  C_15 
REMARK    7  A    between atoms: C_17  and  C_18 
ROOT
HETATM    1  C   UNL     1      41.084 -12.722   4.550  1.00  0.00     0.238 C 
HETATM    2  N   UNL     1      41.710 -12.154   5.637  1.00  0.00    -0.266 N 
HETATM    3  O   UNL     1      39.936 -13.162   4.595  1.00  0.00    -0.272 OA
HETATM    4  H   UNL     1      42.686 -11.854   5.649  1.00  0.00     0.190 HD
ENDROOT
BRANCH   1   5
HETATM    5  C   UNL     1      41.946 -12.734   3.314  1.00  0.00     0.139 C 
BRANCH   5   6
HETATM    6  C   UNL     1      42.012 -14.120   2.676  1.00  0.00     0.185 C 
HETATM    7  N   UNL     1      41.923 -15.153   3.706  1.00  0.00    -0.363 N 
HETATM    8  C   UNL     1      41.283 -16.338   3.424  1.00  0.00     0.125 C 
HETATM    9  H   UNL     1      42.771 -15.230   4.267  1.00  0.00     0.161 HD
HETATM   10  N   UNL     1      40.464 -16.516   2.428  1.00  0.00    -0.159 NA
HETATM   11  N   UNL     1      40.243 -15.461   1.595  1.00  0.00    -0.244 N 
HETATM   12  C   UNL     1      40.884 -14.245   1.650  1.00  0.00     0.261 C 
HETATM   13  H   UNL     1      39.526 -15.585   0.889  1.00  0.00     0.192 HD
HETATM   14  O   UNL     1      40.588 -13.340   0.871  1.00  0.00    -0.269 OA
BRANCH   8  15
HETATM   15  C   UNL     1      41.548 -17.525   4.342  1.00  0.00     0.118 C 
BRANCH  15  16
HETATM   16  C   UNL     1      42.633 -18.428   3.808  1.00  0.00    -0.051 A 
HETATM   17  C   UNL     1      42.741 -18.693   2.437  1.00  0.00     0.007 A 
HETATM   18  C   UNL     1      43.752 -19.528   1.957  1.00  0.00     0.001 A 
HETATM   19  C   UNL     1      44.661 -20.106   2.841  1.00  0.00     0.000 A 
HETATM   20  C   UNL     1      44.560 -19.852   4.206  1.00  0.00     0.001 A 
HETATM   21  C   UNL     1      43.551 -19.018   4.689  1.00  0.00     0.007 A 
ENDBRANCH  15  16
ENDBRANCH   8  15
ENDBRANCH   5   6
ENDBRANCH   1   5
BRANCH   2  22
HETATM   22  N   UNL     1      41.016 -12.062   6.852  1.00  0.00    -0.249 N 
HETATM   23  C   UNL     1      41.444 -11.084   7.739  1.00  0.00     0.339 C 
HETATM   24  N   UNL     1      40.746 -11.135   8.924  1.00  0.00    -0.308 N 
HETATM   25  O   UNL     1      42.316 -10.280   7.423  1.00  0.00    -0.245 OA
HETATM   26  H   UNL     1      39.956 -11.765   8.938  1.00  0.00     0.170 HD
HETATM   27  H   UNL     1      40.666 -12.948   7.209  1.00  0.00     0.192 HD
BRANCH  24  28
HETATM   28  C   UNL     1      40.916 -10.315  10.057  1.00  0.00     0.037 A 
HETATM   29  C   UNL     1      41.956 -10.463  10.978  1.00  0.00     0.045 A 
HETATM   30  C   UNL     1      42.071  -9.602  12.085  1.00  0.00     0.050 A 
HETATM   31  C   UNL     1      41.114  -8.594  12.266  1.00  0.00     0.016 A 
HETATM   32  C   UNL     1      40.070  -8.443  11.355  1.00  0.00     0.003 A 
HETATM   33  C   UNL     1      39.973  -9.299  10.258  1.00  0.00     0.029 A 
BRANCH  30  34
HETATM   34  C   UNL     1      43.184  -9.779  13.087  1.00  0.00     0.417 C 
HETATM   35  F   UNL     1      43.409  -8.680  13.859  1.00  0.00    -0.166 F 
HETATM   36  F   UNL     1      42.949 -10.800  13.959  1.00  0.00    -0.166 F 
HETATM   37  F   UNL     1      44.374 -10.069  12.490  1.00  0.00    -0.166 F 
ENDBRANCH  30  34
ENDBRANCH  24  28
ENDBRANCH   2  22
TORSDOF 7
ENDMDL
MODEL 10
REMARK VINA RESULT:      -8.4      5.590      7.935
REMARK  7 active torsions:
REMARK  status: ('A' for Active; 'I' for Inactive)
REMARK    1  A    between atoms: C_4  and  C_5 
REMARK    2  A    between atoms: C_5  and  C_6 
REMARK    3  A    between atoms: C_8  and  C_9 
REMARK    4  A    between atoms: C_9  and  C_10 
REMARK       I    between atoms: C_10  and  N_11 
REMARK    5  A    between atoms: N_11  and  N_12 
REMARK       I    between atoms: N_12  and  C_13 
REMARK       I    between atoms: C_13  and  N_14 
REMARK    6  A    between atoms: N_14  and  C_15 
REMARK    7  A    between atoms: C_17  and  C_18 
ROOT
HETATM    1  C   UNL     1      40.747 -13.887   5.449  1.00  0.00     0.238 C 
HETATM    2  N   UNL     1      41.991 -14.175   5.965  1.00  0.00    -0.266 N 
HETATM    3  O   UNL     1      39.856 -14.728   5.346  1.00  0.00    -0.272 OA
HETATM    4  H   UNL     1      42.772 -13.517   5.989  1.00  0.00     0.190 HD
ENDROOT
BRANCH   1   5
HETATM    5  C   UNL     1      40.599 -12.443   5.042  1.00  0.00     0.139 C 
BRANCH   5   6
HETATM    6  C   UNL     1      40.554 -12.278   3.525  1.00  0.00     0.185 C 
HETATM    7  N   UNL     1      41.132 -13.451   2.874  1.00  0.00    -0.363 N 
HETATM    8  C   UNL     1      40.622 -13.879   1.669  1.00  0.00     0.125 C 
HETATM    9  H   UNL     1      42.147 -13.499   2.967  1.00  0.00     0.161 HD
HETATM   10  N   UNL     1      39.460 -13.534   1.195  1.00  0.00    -0.159 NA
HETATM   11  N   UNL     1      38.707 -12.672   1.935  1.00  0.00    -0.244 N 
HETATM   12  C   UNL     1      39.102 -12.051   3.096  1.00  0.00     0.261 C 
HETATM   13  H   UNL     1      37.765 -12.496   1.602  1.00  0.00     0.192 HD
HETATM   14  O   UNL     1      38.334 -11.313   3.711  1.00  0.00    -0.269 OA
BRANCH   8  15
HETATM   15  C   UNL     1      41.474 -14.825   0.831  1.00  0.00     0.118 C 
BRANCH  15  16
HETATM   16  C   UNL     1      41.477 -14.447  -0.630  1.00  0.00    -0.051 A 
HETATM   17  C   UNL     1      40.952 -15.311  -1.599  1.00  0.00     0.007 A 
HETATM   18  C   UNL     1      40.958 -14.947  -2.947  1.00  0.00     0.001 A 
HETATM   19  C   UNL     1      41.489 -13.719  -3.338  1.00  0.00     0.000 A 
HETATM   20  C   UNL     1      42.016 -12.854  -2.383  1.00  0.00     0.001 A 
HETATM   21  C   UNL     1      42.011 -13.216  -1.036  1.00  0.00     0.007 A 
ENDBRANCH  15  16
ENDBRANCH   8  15
ENDBRANCH   5   6
ENDBRANCH   1   5
BRANCH   2  22
HETATM   22  N   UNL     1      42.263 -15.480   6.398  1.00  0.00    -0.249 N 
HETATM   23  C   UNL     1      42.841 -16.334   5.470  1.00  0.00     0.339 C 
HETATM   24  N   UNL     1      42.993 -17.606   5.977  1.00  0.00    -0.308 N 
HETATM   25  O   UNL     1      43.186 -15.929   4.364  1.00  0.00    -0.245 OA
HETATM   26  H   UNL     1      42.796 -17.707   6.962  1.00  0.00     0.170 HD
HETATM   27  H   UNL     1      41.604 -15.847   7.079  1.00  0.00     0.192 HD
BRANCH  24  28
HETATM   28  C   UNL     1      43.524 -18.733   5.321  1.00  0.00     0.037 A 
HETATM   29  C   UNL     1      43.335 -19.008   3.964  1.00  0.00     0.045 A 
HETATM   30  C   UNL     1      43.902 -20.151   3.371  1.00  0.00     0.050 A 
HETATM   31  C   UNL     1      44.651 -21.030   4.165  1.00  0.00     0.016 A 
HETATM   32  C   UNL     1      44.840 -20.767   5.520  1.00  0.00     0.003 A 
HETATM   33  C   UNL     1      44.278 -19.626   6.094  1.00  0.00     0.029 A 
BRANCH  30  34
HETATM   34  C   UNL     1      43.679 -20.452   1.910  1.00  0.00     0.417 C 
HETATM   35  F   UNL     1      44.555 -21.357   1.395  1.00  0.00    -0.166 F 
HETATM   36  F   UNL     1      42.437 -20.958   1.662  1.00  0.00    -0.166 F 
HETATM   37  F   UNL     1      43.786 -19.339   1.132  1.00  0.00    -0.166 F 
ENDBRANCH  30  34
ENDBRANCH  24  28
ENDBRANCH   2  22
TORSDOF 7
ENDMDL
