MODEL 1
REMARK VINA RESULT:      -8.9      0.000      0.000
REMARK  7 active torsions:
REMARK  status: ('A' for Active; 'I' for Inactive)
REMARK    1  A    between atoms: C_2  and  C_3 
REMARK    2  A    between atoms: C_6  and  C_7 
REMARK    3  A    between atoms: N_8  and  N_9 
REMARK    4  A    between atoms: C_20  and  C_21 
REMARK       I    between atoms: C_21  and  N_22 
REMARK    5  A    between atoms: N_22  and  C_23 
REMARK    6  A    between atoms: C_23  and  C_24 
REMARK    7  A    between atoms: C_30  and  N_31 
ROOT
HETATM    1  N   UNL     1      42.511 -15.098   3.256  1.00  0.00    -0.202 N 
HETATM    2  C   UNL     1      42.770 -16.450   3.125  1.00  0.00     0.183 A 
HETATM    3  C   UNL     1      42.235 -16.855   1.908  1.00  0.00     0.124 A 
HETATM    4  N   UNL     1      42.463 -18.106   1.434  1.00  0.00    -0.242 NA
HETATM    5  C   UNL     1      43.191 -18.898   2.233  1.00  0.00     0.086 A 
HETATM    6  C   UNL     1      43.689 -18.470   3.491  1.00  0.00     0.088 A 
HETATM    7  N   UNL     1      43.501 -17.227   3.960  1.00  0.00    -0.225 NA
HETATM    8  C   UNL     1      43.476 -20.188   1.802  1.00  0.00     0.034 A 
HETATM    9  C   UNL     1      44.225 -21.071   2.582  1.00  0.00     0.002 A 
HETATM   10  C   UNL     1      44.693 -20.659   3.821  1.00  0.00     0.002 A 
HETATM   11  C   UNL     1      44.422 -19.364   4.263  1.00  0.00     0.034 A 
HETATM   12  C   UNL     1      41.554 -15.746   1.328  1.00  0.00     0.104 C 
HETATM   13  C   UNL     1      41.596 -14.730   2.276  1.00  0.00     0.123 C 
ENDROOT
BRANCH   1  14
HETATM   14  N   UNL     1      43.114 -14.163   4.071  1.00  0.00    -0.176 NA
HETATM   15  C   UNL     1      42.641 -14.199   5.278  1.00  0.00     0.150 C 
BRANCH  15  16
HETATM   16  C   UNL     1      43.234 -13.452   6.398  1.00  0.00    -0.017 A 
HETATM   17  C   UNL     1      44.401 -13.866   7.034  1.00  0.00     0.013 A 
HETATM   18  C   UNL     1      44.846 -13.185   8.173  1.00  0.00     0.009 A 
HETATM   19  C   UNL     1      44.130 -12.093   8.703  1.00  0.00    -0.051 A 
HETATM   20  C   UNL     1      42.962 -11.692   8.026  1.00  0.00     0.009 A 
HETATM   21  C   UNL     1      42.520 -12.357   6.883  1.00  0.00     0.013 A 
BRANCH  19  22
HETATM   22  C   UNL     1      44.547 -11.362   9.992  1.00  0.00    -0.024 C 
HETATM   23  C   UNL     1      43.683 -10.124  10.312  1.00  0.00     0.019 C 
HETATM   24  C   UNL     1      46.008 -10.884   9.849  1.00  0.00     0.019 C 
HETATM   25  C   UNL     1      44.442 -12.318  11.200  1.00  0.00     0.019 C 
ENDBRANCH  19  22
ENDBRANCH  15  16
ENDBRANCH   1  14
BRANCH  13  26
HETATM   26  N   UNL     1      41.035 -13.482   2.287  1.00  0.00    -0.286 NA
HETATM   27  H   UNL     1      41.472 -12.811   1.645  1.00  0.00     0.125 HD
HETATM   28  H   UNL     1      40.890 -13.044   3.197  1.00  0.00     0.125 HD
ENDBRANCH  13  26
BRANCH  12  29
HETATM   29  C   UNL     1      41.022 -15.669  -0.026  1.00  0.00     0.257 C 
HETATM   30  N   UNL     1      39.985 -14.767  -0.176  1.00  0.00    -0.354 N 
HETATM   31  H   UNL     1      39.784 -14.205   0.648  1.00  0.00     0.162 HD
HETATM   32  O   UNL     1      41.514 -16.273  -0.970  1.00  0.00    -0.267 OA
BRANCH  30  33
HETATM   33  C   UNL     1      39.665 -14.164  -1.457  1.00  0.00     0.155 C 
BRANCH  33  34
HETATM   34  C   UNL     1      40.483 -12.927  -1.837  1.00  0.00     0.139 C 
HETATM   35  O   UNL     1      40.997 -12.323  -0.623  1.00  0.00    -0.384 OA
HETATM   36  C   UNL     1      42.396 -12.063  -0.798  1.00  0.00     0.168 C 
HETATM   37  C   UNL     1      42.660 -12.125  -2.282  1.00  0.00     0.029 C 
HETATM   38  C   UNL     1      41.695 -13.198  -2.717  1.00  0.00     0.035 C 
ENDBRANCH  33  34
ENDBRANCH  30  33
ENDBRANCH  12  29
TORSDOF 7
ENDMDL
MODEL 2
REMARK VINA RESULT:      -8.8      2.698      8.480
REMARK  7 active torsions:
REMARK  status: ('A' for Active; 'I' for Inactive)
REMARK    1  A    between atoms: C_2  and  C_3 
REMARK    2  A    between atoms: C_6  and  C_7 
REMARK    3  A    between atoms: N_8  and  N_9 
REMARK    4  A    between atoms: C_20  and  C_21 
REMARK       I    between atoms: C_21  and  N_22 
REMARK    5  A    between atoms: N_22  and  C_23 
REMARK    6  A    between atoms: C_23  and  C_24 
REMARK    7  A    between atoms: C_30  and  N_31 
ROOT
HETATM    1  N   UNL     1      42.403 -16.195   3.248  1.00  0.00    -0.202 N 
HETATM    2  C   UNL     1      43.022 -17.432   3.258  1.00  0.00     0.183 A 
HETATM    3  C   UNL     1      43.699 -17.542   4.466  1.00  0.00     0.124 A 
HETATM    4  N   UNL     1      44.283 -18.713   4.827  1.00  0.00    -0.242 NA
HETATM    5  C   UNL     1      44.184 -19.704   3.930  1.00  0.00     0.086 A 
HETATM    6  C   UNL     1      43.521 -19.549   2.686  1.00  0.00     0.088 A 
HETATM    7  N   UNL     1      42.910 -18.409   2.326  1.00  0.00    -0.225 NA
HETATM    8  C   UNL     1      44.746 -20.936   4.242  1.00  0.00     0.034 A 
HETATM    9  C   UNL     1      44.685 -22.013   3.357  1.00  0.00     0.002 A 
HETATM   10  C   UNL     1      44.056 -21.854   2.130  1.00  0.00     0.002 A 
HETATM   11  C   UNL     1      43.480 -20.625   1.808  1.00  0.00     0.034 A 
HETATM   12  C   UNL     1      43.567 -16.309   5.167  1.00  0.00     0.104 C 
HETATM   13  C   UNL     1      42.910 -15.442   4.302  1.00  0.00     0.123 C 
ENDROOT
BRANCH   1  14
HETATM   14  N   UNL     1      41.350 -15.745   2.478  1.00  0.00    -0.176 NA
HETATM   15  C   UNL     1      41.757 -15.224   1.363  1.00  0.00     0.150 C 
BRANCH  15  16
HETATM   16  C   UNL     1      40.846 -14.845   0.271  1.00  0.00    -0.017 A 
HETATM   17  C   UNL     1      41.148 -15.083  -1.066  1.00  0.00     0.013 A 
HETATM   18  C   UNL     1      40.302 -14.587  -2.065  1.00  0.00     0.009 A 
HETATM   19  C   UNL     1      39.153 -13.836  -1.747  1.00  0.00    -0.051 A 
HETATM   20  C   UNL     1      38.870 -13.626  -0.383  1.00  0.00     0.009 A 
HETATM   21  C   UNL     1      39.700 -14.129   0.617  1.00  0.00     0.013 A 
BRANCH  19  22
HETATM   22  C   UNL     1      38.235 -13.214  -2.815  1.00  0.00    -0.024 C 
HETATM   23  C   UNL     1      37.106 -12.339  -2.232  1.00  0.00     0.019 C 
HETATM   24  C   UNL     1      37.571 -14.345  -3.630  1.00  0.00     0.019 C 
HETATM   25  C   UNL     1      39.061 -12.321  -3.767  1.00  0.00     0.019 C 
ENDBRANCH  19  22
ENDBRANCH  15  16
ENDBRANCH   1  14
BRANCH  13  26
HETATM   26  N   UNL     1      42.595 -14.116   4.419  1.00  0.00    -0.286 NA
HETATM   27  H   UNL     1      41.796 -13.919   5.033  1.00  0.00     0.125 HD
HETATM   28  H   UNL     1      42.507 -13.579   3.555  1.00  0.00     0.125 HD
ENDBRANCH  13  26
BRANCH  12  29
HETATM   29  C   UNL     1      43.950 -16.054   6.549  1.00  0.00     0.257 C 
HETATM   30  N   UNL     1      44.438 -14.780   6.776  1.00  0.00    -0.354 N 
HETATM   31  H   UNL     1      44.382 -14.153   5.977  1.00  0.00     0.162 HD
HETATM   32  O   UNL     1      43.763 -16.860   7.451  1.00  0.00    -0.267 OA
BRANCH  30  33
HETATM   33  C   UNL     1      44.390 -14.156   8.086  1.00  0.00     0.155 C 
BRANCH  33  34
HETATM   34  C   UNL     1      44.806 -12.683   8.141  1.00  0.00     0.139 C 
HETATM   35  O   UNL     1      43.648 -11.890   8.500  1.00  0.00    -0.384 OA
HETATM   36  C   UNL     1      44.018 -10.993   9.556  1.00  0.00     0.168 C 
HETATM   37  C   UNL     1      45.526 -10.942   9.564  1.00  0.00     0.029 C 
HETATM   38  C   UNL     1      45.879 -12.352   9.168  1.00  0.00     0.035 C 
ENDBRANCH  33  34
ENDBRANCH  30  33
ENDBRANCH  12  29
TORSDOF 7
ENDMDL
MODEL 3
REMARK VINA RESULT:      -8.7      3.142      9.175
REMARK  7 active torsions:
REMARK  status: ('A' for Active; 'I' for Inactive)
REMARK    1  A    between atoms: C_2  and  C_3 
REMARK    2  A    between atoms: C_6  and  C_7 
REMARK    3  A    between atoms: N_8  and  N_9 
REMARK    4  A    between atoms: C_20  and  C_21 
REMARK       I    between atoms: C_21  and  N_22 
REMARK    5  A    between atoms: N_22  and  C_23 
REMARK    6  A    between atoms: C_23  and  C_24 
REMARK    7  A    between atoms: C_30  and  N_31 
ROOT
HETATM    1  N   UNL     1      41.721 -14.069   4.505  1.00  0.00    -0.202 N 
HETATM    2  C   UNL     1      40.628 -13.466   3.909  1.00  0.00     0.183 A 
HETATM    3  C   UNL     1      40.378 -12.288   4.602  1.00  0.00     0.124 A 
HETATM    4  N   UNL     1      39.452 -11.404   4.154  1.00  0.00    -0.242 NA
HETATM    5  C   UNL     1      38.797 -11.774   3.044  1.00  0.00     0.086 A 
HETATM    6  C   UNL     1      39.045 -13.003   2.380  1.00  0.00     0.088 A 
HETATM    7  N   UNL     1      39.980 -13.874   2.791  1.00  0.00    -0.225 NA
HETATM    8  C   UNL     1      37.845 -10.908   2.520  1.00  0.00     0.034 A 
HETATM    9  C   UNL     1      37.121 -11.226   1.370  1.00  0.00     0.002 A 
HETATM   10  C   UNL     1      37.347 -12.438   0.734  1.00  0.00     0.002 A 
HETATM   11  C   UNL     1      38.307 -13.313   1.244  1.00  0.00     0.034 A 
HETATM   12  C   UNL     1      41.280 -12.219   5.703  1.00  0.00     0.104 C 
HETATM   13  C   UNL     1      41.972 -13.423   5.711  1.00  0.00     0.123 C 
ENDROOT
BRANCH   1  14
HETATM   14  N   UNL     1      42.573 -15.032   4.008  1.00  0.00    -0.176 NA
HETATM   15  C   UNL     1      42.183 -16.228   4.323  1.00  0.00     0.150 C 
BRANCH  15  16
HETATM   16  C   UNL     1      42.790 -17.447   3.763  1.00  0.00    -0.017 A 
HETATM   17  C   UNL     1      42.419 -17.961   2.525  1.00  0.00     0.013 A 
HETATM   18  C   UNL     1      42.939 -19.191   2.104  1.00  0.00     0.009 A 
HETATM   19  C   UNL     1      43.824 -19.930   2.913  1.00  0.00    -0.051 A 
HETATM   20  C   UNL     1      44.190 -19.373   4.154  1.00  0.00     0.009 A 
HETATM   21  C   UNL     1      43.686 -18.142   4.574  1.00  0.00     0.013 A 
BRANCH  19  22
HETATM   22  C   UNL     1      44.364 -21.316   2.518  1.00  0.00    -0.024 C 
HETATM   23  C   UNL     1      45.747 -21.274   1.834  1.00  0.00     0.019 C 
HETATM   24  C   UNL     1      43.378 -21.977   1.530  1.00  0.00     0.019 C 
HETATM   25  C   UNL     1      44.500 -22.209   3.771  1.00  0.00     0.019 C 
ENDBRANCH  19  22
ENDBRANCH  15  16
ENDBRANCH   1  14
BRANCH  13  26
HETATM   26  N   UNL     1      42.894 -13.930   6.587  1.00  0.00    -0.286 NA
HETATM   27  H   UNL     1      42.789 -14.932   6.786  1.00  0.00     0.125 HD
HETATM   28  H   UNL     1      43.039 -13.419   7.459  1.00  0.00     0.125 HD
ENDBRANCH  13  26
BRANCH  12  29
HETATM   29  C   UNL     1      41.500 -11.069   6.571  1.00  0.00     0.257 C 
HETATM   30  N   UNL     1      41.557 -11.378   7.917  1.00  0.00    -0.354 N 
HETATM   31  H   UNL     1      41.533 -12.373   8.128  1.00  0.00     0.162 HD
HETATM   32  O   UNL     1      41.717  -9.943   6.141  1.00  0.00    -0.267 OA
BRANCH  30  33
HETATM   33  C   UNL     1      42.251 -10.535   8.874  1.00  0.00     0.155 C 
BRANCH  33  34
HETATM   34  C   UNL     1      43.338 -11.222   9.705  1.00  0.00     0.139 C 
HETATM   35  O   UNL     1      44.170 -12.009   8.817  1.00  0.00    -0.384 OA
HETATM   36  C   UNL     1      45.545 -11.719   9.101  1.00  0.00     0.168 C 
HETATM   37  C   UNL     1      45.570 -11.061  10.459  1.00  0.00     0.029 C 
HETATM   38  C   UNL     1      44.281 -10.281  10.441  1.00  0.00     0.035 C 
ENDBRANCH  33  34
ENDBRANCH  30  33
ENDBRANCH  12  29
TORSDOF 7
ENDMDL
MODEL 4
REMARK VINA RESULT:      -8.7      2.346      3.063
REMARK  7 active torsions:
REMARK  status: ('A' for Active; 'I' for Inactive)
REMARK    1  A    between atoms: C_2  and  C_3 
REMARK    2  A    between atoms: C_6  and  C_7 
REMARK    3  A    between atoms: N_8  and  N_9 
REMARK    4  A    between atoms: C_20  and  C_21 
REMARK       I    between atoms: C_21  and  N_22 
REMARK    5  A    between atoms: N_22  and  C_23 
REMARK    6  A    between atoms: C_23  and  C_24 
REMARK    7  A    between atoms: C_30  and  N_31 
ROOT
HETATM    1  N   UNL     1      40.225 -15.537   3.365  1.00  0.00    -0.202 N 
HETATM    2  C   UNL     1      41.112 -16.597   3.310  1.00  0.00     0.183 A 
HETATM    3  C   UNL     1      41.427 -16.799   1.971  1.00  0.00     0.124 A 
HETATM    4  N   UNL     1      42.395 -17.681   1.614  1.00  0.00    -0.242 NA
HETATM    5  C   UNL     1      42.970 -18.343   2.628  1.00  0.00     0.086 A 
HETATM    6  C   UNL     1      42.598 -18.145   3.983  1.00  0.00     0.088 A 
HETATM    7  N   UNL     1      41.666 -17.253   4.357  1.00  0.00    -0.225 NA
HETATM    8  C   UNL     1      43.980 -19.251   2.336  1.00  0.00     0.034 A 
HETATM    9  C   UNL     1      44.623 -19.978   3.338  1.00  0.00     0.002 A 
HETATM   10  C   UNL     1      44.243 -19.801   4.661  1.00  0.00     0.002 A 
HETATM   11  C   UNL     1      43.236 -18.886   4.970  1.00  0.00     0.034 A 
HETATM   12  C   UNL     1      40.644 -15.904   1.187  1.00  0.00     0.104 C 
HETATM   13  C   UNL     1      39.784 -15.267   2.074  1.00  0.00     0.123 C 
ENDROOT
BRANCH   1  14
HETATM   14  N   UNL     1      39.891 -14.725   4.428  1.00  0.00    -0.176 NA
HETATM   15  C   UNL     1      40.868 -13.940   4.760  1.00  0.00     0.150 C 
BRANCH  15  16
HETATM   16  C   UNL     1      40.726 -12.839   5.726  1.00  0.00    -0.017 A 
HETATM   17  C   UNL     1      41.750 -11.931   5.976  1.00  0.00     0.013 A 
HETATM   18  C   UNL     1      41.601 -10.984   6.996  1.00  0.00     0.009 A 
HETATM   19  C   UNL     1      40.437 -10.936   7.789  1.00  0.00    -0.051 A 
HETATM   20  C   UNL     1      39.414 -11.861   7.499  1.00  0.00     0.009 A 
HETATM   21  C   UNL     1      39.551 -12.797   6.476  1.00  0.00     0.013 A 
BRANCH  19  22
HETATM   22  C   UNL     1      40.262  -9.958   8.964  1.00  0.00    -0.024 C 
HETATM   23  C   UNL     1      39.188  -8.876   8.718  1.00  0.00     0.019 C 
HETATM   24  C   UNL     1      41.601  -9.232   9.219  1.00  0.00     0.019 C 
HETATM   25  C   UNL     1      39.852 -10.728  10.238  1.00  0.00     0.019 C 
ENDBRANCH  19  22
ENDBRANCH  15  16
ENDBRANCH   1  14
BRANCH  13  26
HETATM   26  N   UNL     1      38.767 -14.377   1.863  1.00  0.00    -0.286 NA
HETATM   27  H   UNL     1      38.637 -13.689   2.615  1.00  0.00     0.125 HD
HETATM   28  H   UNL     1      37.862 -14.759   1.586  1.00  0.00     0.125 HD
ENDBRANCH  13  26
BRANCH  12  29
HETATM   29  C   UNL     1      40.797 -15.640  -0.238  1.00  0.00     0.257 C 
HETATM   30  N   UNL     1      40.057 -14.566  -0.697  1.00  0.00    -0.354 N 
HETATM   31  H   UNL     1      39.574 -14.039   0.027  1.00  0.00     0.162 HD
HETATM   32  O   UNL     1      41.587 -16.250  -0.946  1.00  0.00    -0.267 OA
BRANCH  30  33
HETATM   33  C   UNL     1      40.428 -13.827  -1.890  1.00  0.00     0.155 C 
BRANCH  33  34
HETATM   34  C   UNL     1      39.530 -14.038  -3.113  1.00  0.00     0.139 C 
HETATM   35  O   UNL     1      40.070 -15.130  -3.898  1.00  0.00    -0.384 OA
HETATM   36  C   UNL     1      39.006 -16.037  -4.214  1.00  0.00     0.168 C 
HETATM   37  C   UNL     1      37.719 -15.285  -3.976  1.00  0.00     0.029 C 
HETATM   38  C   UNL     1      38.090 -14.417  -2.801  1.00  0.00     0.035 C 
ENDBRANCH  33  34
ENDBRANCH  30  33
ENDBRANCH  12  29
TORSDOF 7
ENDMDL
MODEL 5
REMARK VINA RESULT:      -8.3      3.101      6.426
REMARK  7 active torsions:
REMARK  status: ('A' for Active; 'I' for Inactive)
REMARK    1  A    between atoms: C_2  and  C_3 
REMARK    2  A    between atoms: C_6  and  C_7 
REMARK    3  A    between atoms: N_8  and  N_9 
REMARK    4  A    between atoms: C_20  and  C_21 
REMARK       I    between atoms: C_21  and  N_22 
REMARK    5  A    between atoms: N_22  and  C_23 
REMARK    6  A    between atoms: C_23  and  C_24 
REMARK    7  A    between atoms: C_30  and  N_31 
ROOT
HETATM    1  N   UNL     1      43.087 -13.718   5.060  1.00  0.00    -0.202 N 
HETATM    2  C   UNL     1      42.803 -14.132   3.771  1.00  0.00     0.183 A 
HETATM    3  C   UNL     1      42.828 -15.522   3.772  1.00  0.00     0.124 A 
HETATM    4  N   UNL     1      42.439 -16.221   2.676  1.00  0.00    -0.242 NA
HETATM    5  C   UNL     1      42.079 -15.478   1.620  1.00  0.00     0.086 A 
HETATM    6  C   UNL     1      42.103 -14.060   1.635  1.00  0.00     0.088 A 
HETATM    7  N   UNL     1      42.453 -13.352   2.721  1.00  0.00    -0.225 NA
HETATM    8  C   UNL     1      41.654 -16.129   0.468  1.00  0.00     0.034 A 
HETATM    9  C   UNL     1      41.267 -15.423  -0.672  1.00  0.00     0.002 A 
HETATM   10  C   UNL     1      41.313 -14.036  -0.664  1.00  0.00     0.002 A 
HETATM   11  C   UNL     1      41.729 -13.369   0.489  1.00  0.00     0.034 A 
HETATM   12  C   UNL     1      43.228 -15.961   5.067  1.00  0.00     0.104 C 
HETATM   13  C   UNL     1      43.551 -14.814   5.780  1.00  0.00     0.123 C 
ENDROOT
BRANCH   1  14
HETATM   14  N   UNL     1      42.842 -12.504   5.667  1.00  0.00    -0.176 NA
HETATM   15  C   UNL     1      41.626 -12.423   6.110  1.00  0.00     0.150 C 
BRANCH  15  16
HETATM   16  C   UNL     1      41.152 -11.326   6.968  1.00  0.00    -0.017 A 
HETATM   17  C   UNL     1      42.013 -10.581   7.766  1.00  0.00     0.013 A 
HETATM   18  C   UNL     1      41.488  -9.635   8.655  1.00  0.00     0.009 A 
HETATM   19  C   UNL     1      40.099  -9.428   8.770  1.00  0.00    -0.051 A 
HETATM   20  C   UNL     1      39.257 -10.189   7.936  1.00  0.00     0.009 A 
HETATM   21  C   UNL     1      39.774 -11.123   7.039  1.00  0.00     0.013 A 
BRANCH  19  22
HETATM   22  C   UNL     1      39.478  -8.450   9.783  1.00  0.00    -0.024 C 
HETATM   23  C   UNL     1      38.473  -9.110  10.750  1.00  0.00     0.019 C 
HETATM   24  C   UNL     1      38.722  -7.342   9.015  1.00  0.00     0.019 C 
HETATM   25  C   UNL     1      40.585  -7.805  10.644  1.00  0.00     0.019 C 
ENDBRANCH  19  22
ENDBRANCH  15  16
ENDBRANCH   1  14
BRANCH  13  26
HETATM   26  N   UNL     1      44.069 -14.647   7.036  1.00  0.00    -0.286 NA
HETATM   27  H   UNL     1      44.811 -13.941   7.102  1.00  0.00     0.125 HD
HETATM   28  H   UNL     1      44.347 -15.488   7.541  1.00  0.00     0.125 HD
ENDBRANCH  13  26
BRANCH  12  29
HETATM   29  C   UNL     1      43.196 -17.330   5.564  1.00  0.00     0.257 C 
HETATM   30  N   UNL     1      43.635 -18.274   4.655  1.00  0.00    -0.354 N 
HETATM   31  H   UNL     1      44.011 -17.892   3.790  1.00  0.00     0.162 HD
HETATM   32  O   UNL     1      42.903 -17.611   6.719  1.00  0.00    -0.267 OA
BRANCH  30  33
HETATM   33  C   UNL     1      44.162 -19.561   5.070  1.00  0.00     0.155 C 
BRANCH  33  34
HETATM   34  C   UNL     1      44.861 -20.381   3.982  1.00  0.00     0.139 C 
HETATM   35  O   UNL     1      45.019 -21.740   4.458  1.00  0.00    -0.384 OA
HETATM   36  C   UNL     1      44.567 -22.638   3.437  1.00  0.00     0.168 C 
HETATM   37  C   UNL     1      44.518 -21.840   2.157  1.00  0.00     0.029 C 
HETATM   38  C   UNL     1      44.107 -20.482   2.664  1.00  0.00     0.035 C 
ENDBRANCH  33  34
ENDBRANCH  30  33
ENDBRANCH  12  29
TORSDOF 7
ENDMDL
MODEL 6
REMARK VINA RESULT:      -8.3      2.173      3.288
REMARK  7 active torsions:
REMARK  status: ('A' for Active; 'I' for Inactive)
REMARK    1  A    between atoms: C_2  and  C_3 
REMARK    2  A    between atoms: C_6  and  C_7 
REMARK    3  A    between atoms: N_8  and  N_9 
REMARK    4  A    between atoms: C_20  and  C_21 
REMARK       I    between atoms: C_21  and  N_22 
REMARK    5  A    between atoms: N_22  and  C_23 
REMARK    6  A    between atoms: C_23  and  C_24 
REMARK    7  A    between atoms: C_30  and  N_31 
ROOT
HETATM    1  N   UNL     1      40.570 -13.945   3.173  1.00  0.00    -0.202 N 
HETATM    2  C   UNL     1      41.265 -15.101   2.869  1.00  0.00     0.183 A 
HETATM    3  C   UNL     1      41.835 -14.920   1.614  1.00  0.00     0.124 A 
HETATM    4  N   UNL     1      42.704 -15.832   1.110  1.00  0.00    -0.242 NA
HETATM    5  C   UNL     1      42.923 -16.903   1.886  1.00  0.00     0.086 A 
HETATM    6  C   UNL     1      42.295 -17.081   3.145  1.00  0.00     0.088 A 
HETATM    7  N   UNL     1      41.459 -16.173   3.674  1.00  0.00    -0.225 NA
HETATM    8  C   UNL     1      43.814 -17.871   1.438  1.00  0.00     0.034 A 
HETATM    9  C   UNL     1      44.091 -19.014   2.189  1.00  0.00     0.002 A 
HETATM   10  C   UNL     1      43.459 -19.199   3.410  1.00  0.00     0.002 A 
HETATM   11  C   UNL     1      42.568 -18.231   3.876  1.00  0.00     0.034 A 
HETATM   12  C   UNL     1      41.401 -13.663   1.104  1.00  0.00     0.104 C 
HETATM   13  C   UNL     1      40.478 -13.172   2.020  1.00  0.00     0.123 C 
ENDROOT
BRANCH   1  14
HETATM   14  N   UNL     1      40.143 -13.473   4.396  1.00  0.00    -0.176 NA
HETATM   15  C   UNL     1      41.105 -12.914   5.061  1.00  0.00     0.150 C 
BRANCH  15  16
HETATM   16  C   UNL     1      40.893 -12.155   6.303  1.00  0.00    -0.017 A 
HETATM   17  C   UNL     1      39.640 -12.032   6.895  1.00  0.00     0.013 A 
HETATM   18  C   UNL     1      39.478 -11.193   8.004  1.00  0.00     0.009 A 
HETATM   19  C   UNL     1      40.557 -10.456   8.531  1.00  0.00    -0.051 A 
HETATM   20  C   UNL     1      41.814 -10.615   7.917  1.00  0.00     0.009 A 
HETATM   21  C   UNL     1      41.985 -11.459   6.820  1.00  0.00     0.013 A 
BRANCH  19  22
HETATM   22  C   UNL     1      40.407  -9.472   9.704  1.00  0.00    -0.024 C 
HETATM   23  C   UNL     1      40.315  -7.994   9.268  1.00  0.00     0.019 C 
HETATM   24  C   UNL     1      41.632  -9.605  10.634  1.00  0.00     0.019 C 
HETATM   25  C   UNL     1      39.126  -9.793  10.505  1.00  0.00     0.019 C 
ENDBRANCH  19  22
ENDBRANCH  15  16
ENDBRANCH   1  14
BRANCH  13  26
HETATM   26  N   UNL     1      39.691 -12.054   1.998  1.00  0.00    -0.286 NA
HETATM   27  H   UNL     1      38.939 -12.074   1.299  1.00  0.00     0.125 HD
HETATM   28  H   UNL     1      40.164 -11.150   1.970  1.00  0.00     0.125 HD
ENDBRANCH  13  26
BRANCH  12  29
HETATM   29  C   UNL     1      41.909 -12.988  -0.084  1.00  0.00     0.257 C 
HETATM   30  N   UNL     1      42.053 -13.812  -1.185  1.00  0.00    -0.354 N 
HETATM   31  H   UNL     1      41.702 -14.759  -1.059  1.00  0.00     0.162 HD
HETATM   32  O   UNL     1      42.095 -11.779  -0.134  1.00  0.00    -0.267 OA
BRANCH  30  33
HETATM   33  C   UNL     1      42.039 -13.298  -2.542  1.00  0.00     0.155 C 
BRANCH  33  34
HETATM   34  C   UNL     1      41.140 -14.045  -3.531  1.00  0.00     0.139 C 
HETATM   35  O   UNL     1      41.385 -15.466  -3.394  1.00  0.00    -0.384 OA
HETATM   36  C   UNL     1      40.124 -16.140  -3.288  1.00  0.00     0.168 C 
HETATM   37  C   UNL     1      39.079 -15.171  -3.782  1.00  0.00     0.029 C 
HETATM   38  C   UNL     1      39.645 -13.853  -3.318  1.00  0.00     0.035 C 
ENDBRANCH  33  34
ENDBRANCH  30  33
ENDBRANCH  12  29
TORSDOF 7
ENDMDL
MODEL 7
REMARK VINA RESULT:      -8.2      2.901      8.796
REMARK  7 active torsions:
REMARK  status: ('A' for Active; 'I' for Inactive)
REMARK    1  A    between atoms: C_2  and  C_3 
REMARK    2  A    between atoms: C_6  and  C_7 
REMARK    3  A    between atoms: N_8  and  N_9 
REMARK    4  A    between atoms: C_20  and  C_21 
REMARK       I    between atoms: C_21  and  N_22 
REMARK    5  A    between atoms: N_22  and  C_23 
REMARK    6  A    between atoms: C_23  and  C_24 
REMARK    7  A    between atoms: C_30  and  N_31 
ROOT
HETATM    1  N   UNL     1      41.295 -15.924   2.050  1.00  0.00    -0.202 N 
HETATM    2  C   UNL     1      41.914 -15.684   3.263  1.00  0.00     0.183 A 
HETATM    3  C   UNL     1      42.632 -16.829   3.591  1.00  0.00     0.124 A 
HETATM    4  N   UNL     1      43.466 -16.839   4.661  1.00  0.00    -0.242 NA
HETATM    5  C   UNL     1      43.505 -15.700   5.368  1.00  0.00     0.086 A 
HETATM    6  C   UNL     1      42.730 -14.561   5.032  1.00  0.00     0.088 A 
HETATM    7  N   UNL     1      41.924 -14.522   3.959  1.00  0.00    -0.225 NA
HETATM    8  C   UNL     1      44.351 -15.635   6.469  1.00  0.00     0.034 A 
HETATM    9  C   UNL     1      44.443 -14.485   7.254  1.00  0.00     0.002 A 
HETATM   10  C   UNL     1      43.667 -13.379   6.939  1.00  0.00     0.002 A 
HETATM   11  C   UNL     1      42.820 -13.427   5.831  1.00  0.00     0.034 A 
HETATM   12  C   UNL     1      42.367 -17.821   2.604  1.00  0.00     0.104 C 
HETATM   13  C   UNL     1      41.397 -17.283   1.767  1.00  0.00     0.123 C 
ENDROOT
BRANCH   1  14
HETATM   14  N   UNL     1      40.780 -15.031   1.134  1.00  0.00    -0.176 NA
HETATM   15  C   UNL     1      39.520 -14.804   1.339  1.00  0.00     0.150 C 
BRANCH  15  16
HETATM   16  C   UNL     1      38.767 -13.751   0.640  1.00  0.00    -0.017 A 
HETATM   17  C   UNL     1      37.700 -13.082   1.231  1.00  0.00     0.013 A 
HETATM   18  C   UNL     1      36.943 -12.181   0.473  1.00  0.00     0.009 A 
HETATM   19  C   UNL     1      37.229 -11.943  -0.886  1.00  0.00    -0.051 A 
HETATM   20  C   UNL     1      38.325 -12.627  -1.449  1.00  0.00     0.009 A 
HETATM   21  C   UNL     1      39.091 -13.515  -0.695  1.00  0.00     0.013 A 
BRANCH  19  22
HETATM   22  C   UNL     1      36.380 -11.015  -1.773  1.00  0.00    -0.024 C 
HETATM   23  C   UNL     1      37.009  -9.623  -1.997  1.00  0.00     0.019 C 
HETATM   24  C   UNL     1      35.005 -10.799  -1.104  1.00  0.00     0.019 C 
HETATM   25  C   UNL     1      36.174 -11.653  -3.163  1.00  0.00     0.019 C 
ENDBRANCH  19  22
ENDBRANCH  15  16
ENDBRANCH   1  14
BRANCH  13  26
HETATM   26  N   UNL     1      40.718 -17.821   0.708  1.00  0.00    -0.286 NA
HETATM   27  H   UNL     1      41.182 -18.624   0.266  1.00  0.00     0.125 HD
HETATM   28  H   UNL     1      40.386 -17.177  -0.010  1.00  0.00     0.125 HD
ENDBRANCH  13  26
BRANCH  12  29
HETATM   29  C   UNL     1      43.059 -19.094   2.449  1.00  0.00     0.257 C 
HETATM   30  N   UNL     1      44.244 -19.184   3.156  1.00  0.00    -0.354 N 
HETATM   31  H   UNL     1      44.439 -18.394   3.766  1.00  0.00     0.162 HD
HETATM   32  O   UNL     1      42.585 -20.037   1.830  1.00  0.00    -0.267 OA
BRANCH  30  33
HETATM   33  C   UNL     1      44.807 -20.460   3.558  1.00  0.00     0.155 C 
BRANCH  33  34
HETATM   34  C   UNL     1      44.977 -20.671   5.066  1.00  0.00     0.139 C 
HETATM   35  O   UNL     1      44.667 -19.428   5.743  1.00  0.00    -0.384 OA
HETATM   36  C   UNL     1      43.766 -19.706   6.822  1.00  0.00     0.168 C 
HETATM   37  C   UNL     1      43.846 -21.192   7.072  1.00  0.00     0.029 C 
HETATM   38  C   UNL     1      44.064 -21.722   5.679  1.00  0.00     0.035 C 
ENDBRANCH  33  34
ENDBRANCH  30  33
ENDBRANCH  12  29
TORSDOF 7
ENDMDL
MODEL 8
REMARK VINA RESULT:      -8.2      4.305      7.549
REMARK  7 active torsions:
REMARK  status: ('A' for Active; 'I' for Inactive)
REMARK    1  A    between atoms: C_2  and  C_3 
REMARK    2  A    between atoms: C_6  and  C_7 
REMARK    3  A    between atoms: N_8  and  N_9 
REMARK    4  A    between atoms: C_20  and  C_21 
REMARK       I    between atoms: C_21  and  N_22 
REMARK    5  A    between atoms: N_22  and  C_23 
REMARK    6  A    between atoms: C_23  and  C_24 
REMARK    7  A    between atoms: C_30  and  N_31 
ROOT
HETATM    1  N   UNL     1      40.775 -14.443  -0.105  1.00  0.00    -0.202 N 
HETATM    2  C   UNL     1      39.774 -13.505   0.069  1.00  0.00     0.183 A 
HETATM    3  C   UNL     1      38.940 -13.585  -1.040  1.00  0.00     0.124 A 
HETATM    4  N   UNL     1      37.778 -12.884  -1.084  1.00  0.00    -0.242 NA
HETATM    5  C   UNL     1      37.537 -12.108  -0.018  1.00  0.00     0.086 A 
HETATM    6  C   UNL     1      38.428 -12.015   1.082  1.00  0.00     0.088 A 
HETATM    7  N   UNL     1      39.564 -12.726   1.157  1.00  0.00    -0.225 NA
HETATM    8  C   UNL     1      36.357 -11.374   0.010  1.00  0.00     0.034 A 
HETATM    9  C   UNL     1      36.039 -10.542   1.085  1.00  0.00     0.002 A 
HETATM   10  C   UNL     1      36.921 -10.434   2.150  1.00  0.00     0.002 A 
HETATM   11  C   UNL     1      38.105 -11.172   2.138  1.00  0.00     0.034 A 
HETATM   12  C   UNL     1      39.498 -14.526  -1.952  1.00  0.00     0.104 C 
HETATM   13  C   UNL     1      40.724 -14.901  -1.418  1.00  0.00     0.123 C 
ENDROOT
BRANCH   1  14
HETATM   14  N   UNL     1      41.620 -15.009   0.826  1.00  0.00    -0.176 NA
HETATM   15  C   UNL     1      41.031 -15.941   1.509  1.00  0.00     0.150 C 
BRANCH  15  16
HETATM   16  C   UNL     1      41.745 -16.841   2.428  1.00  0.00    -0.017 A 
HETATM   17  C   UNL     1      41.260 -17.147   3.695  1.00  0.00     0.013 A 
HETATM   18  C   UNL     1      42.045 -17.907   4.571  1.00  0.00     0.009 A 
HETATM   19  C   UNL     1      43.327 -18.361   4.202  1.00  0.00    -0.051 A 
HETATM   20  C   UNL     1      43.780 -18.045   2.906  1.00  0.00     0.009 A 
HETATM   21  C   UNL     1      42.998 -17.301   2.024  1.00  0.00     0.013 A 
BRANCH  19  22
HETATM   22  C   UNL     1      44.249 -19.138   5.158  1.00  0.00    -0.024 C 
HETATM   23  C   UNL     1      43.494 -19.902   6.266  1.00  0.00     0.019 C 
HETATM   24  C   UNL     1      45.209 -18.146   5.850  1.00  0.00     0.019 C 
HETATM   25  C   UNL     1      45.076 -20.177   4.369  1.00  0.00     0.019 C 
ENDBRANCH  19  22
ENDBRANCH  15  16
ENDBRANCH   1  14
BRANCH  13  26
HETATM   26  N   UNL     1      41.714 -15.709  -1.907  1.00  0.00    -0.286 NA
HETATM   27  H   UNL     1      42.382 -16.042  -1.202  1.00  0.00     0.125 HD
HETATM   28  H   UNL     1      42.218 -15.382  -2.732  1.00  0.00     0.125 HD
ENDBRANCH  13  26
BRANCH  12  29
HETATM   29  C   UNL     1      38.855 -15.061  -3.146  1.00  0.00     0.257 C 
HETATM   30  N   UNL     1      37.482 -14.898  -3.171  1.00  0.00    -0.354 N 
HETATM   31  H   UNL     1      37.103 -14.346  -2.404  1.00  0.00     0.162 HD
HETATM   32  O   UNL     1      39.483 -15.523  -4.089  1.00  0.00    -0.267 OA
BRANCH  30  33
HETATM   33  C   UNL     1      36.730 -14.874  -4.412  1.00  0.00     0.155 C 
BRANCH  33  34
HETATM   34  C   UNL     1      36.167 -13.511  -4.827  1.00  0.00     0.139 C 
HETATM   35  O   UNL     1      34.789 -13.688  -5.238  1.00  0.00    -0.384 OA
HETATM   36  C   UNL     1      33.986 -12.696  -4.585  1.00  0.00     0.168 C 
HETATM   37  C   UNL     1      34.937 -11.635  -4.089  1.00  0.00     0.029 C 
HETATM   38  C   UNL     1      36.147 -12.458  -3.728  1.00  0.00     0.035 C 
ENDBRANCH  33  34
ENDBRANCH  30  33
ENDBRANCH  12  29
TORSDOF 7
ENDMDL
MODEL 9
REMARK VINA RESULT:      -8.0      1.874      2.367
REMARK  7 active torsions:
REMARK  status: ('A' for Active; 'I' for Inactive)
REMARK    1  A    between atoms: C_2  and  C_3 
REMARK    2  A    between atoms: C_6  and  C_7 
REMARK    3  A    between atoms: N_8  and  N_9 
REMARK    4  A    between atoms: C_20  and  C_21 
REMARK       I    between atoms: C_21  and  N_22 
REMARK    5  A    between atoms: N_22  and  C_23 
REMARK    6  A    between atoms: C_23  and  C_24 
REMARK    7  A    between atoms: C_30  and  N_31 
ROOT
HETATM    1  N   UNL     1      41.353 -14.366   3.669  1.00  0.00    -0.202 N 
HETATM    2  C   UNL     1      41.926 -15.618   3.791  1.00  0.00     0.183 A 
HETATM    3  C   UNL     1      41.837 -16.234   2.548  1.00  0.00     0.124 A 
HETATM    4  N   UNL     1      42.451 -17.422   2.319  1.00  0.00    -0.242 NA
HETATM    5  C   UNL     1      43.095 -17.947   3.371  1.00  0.00     0.086 A 
HETATM    6  C   UNL     1      43.134 -17.315   4.640  1.00  0.00     0.088 A 
HETATM    7  N   UNL     1      42.560 -16.124   4.876  1.00  0.00    -0.225 NA
HETATM    8  C   UNL     1      43.759 -19.156   3.203  1.00  0.00     0.034 A 
HETATM    9  C   UNL     1      44.448 -19.764   4.253  1.00  0.00     0.002 A 
HETATM   10  C   UNL     1      44.467 -19.157   5.500  1.00  0.00     0.002 A 
HETATM   11  C   UNL     1      43.811 -17.939   5.681  1.00  0.00     0.034 A 
HETATM   12  C   UNL     1      41.110 -15.374   1.675  1.00  0.00     0.104 C 
HETATM   13  C   UNL     1      40.674 -14.311   2.455  1.00  0.00     0.123 C 
ENDROOT
BRANCH   1  14
HETATM   14  N   UNL     1      41.497 -13.252   4.468  1.00  0.00    -0.176 NA
HETATM   15  C   UNL     1      40.575 -13.188   5.377  1.00  0.00     0.150 C 
BRANCH  15  16
HETATM   16  C   UNL     1      40.598 -12.218   6.483  1.00  0.00    -0.017 A 
HETATM   17  C   UNL     1      41.726 -11.461   6.784  1.00  0.00     0.013 A 
HETATM   18  C   UNL     1      41.728 -10.648   7.925  1.00  0.00     0.009 A 
HETATM   19  C   UNL     1      40.615 -10.589   8.787  1.00  0.00    -0.051 A 
HETATM   20  C   UNL     1      39.486 -11.357   8.444  1.00  0.00     0.009 A 
HETATM   21  C   UNL     1      39.471 -12.157   7.302  1.00  0.00     0.013 A 
BRANCH  19  22
HETATM   22  C   UNL     1      40.603  -9.763  10.086  1.00  0.00    -0.024 C 
HETATM   23  C   UNL     1      39.885  -8.404   9.952  1.00  0.00     0.019 C 
HETATM   24  C   UNL     1      42.059  -9.478  10.515  1.00  0.00     0.019 C 
HETATM   25  C   UNL     1      39.889 -10.550  11.206  1.00  0.00     0.019 C 
ENDBRANCH  19  22
ENDBRANCH  15  16
ENDBRANCH   1  14
BRANCH  13  26
HETATM   26  N   UNL     1      39.872 -13.243   2.160  1.00  0.00    -0.286 NA
HETATM   27  H   UNL     1      39.096 -13.096   2.817  1.00  0.00     0.125 HD
HETATM   28  H   UNL     1      39.531 -13.167   1.201  1.00  0.00     0.125 HD
ENDBRANCH  13  26
BRANCH  12  29
HETATM   29  C   UNL     1      40.955 -15.534   0.235  1.00  0.00     0.257 C 
HETATM   30  N   UNL     1      39.937 -14.774  -0.312  1.00  0.00    -0.354 N 
HETATM   31  H   UNL     1      39.487 -14.132   0.336  1.00  0.00     0.162 HD
HETATM   32  O   UNL     1      41.720 -16.203  -0.447  1.00  0.00    -0.267 OA
BRANCH  30  33
HETATM   33  C   UNL     1      39.931 -14.384  -1.710  1.00  0.00     0.155 C 
BRANCH  33  34
HETATM   34  C   UNL     1      40.701 -13.105  -2.051  1.00  0.00     0.139 C 
HETATM   35  O   UNL     1      40.840 -12.315  -0.844  1.00  0.00    -0.384 OA
HETATM   36  C   UNL     1      42.209 -11.907  -0.718  1.00  0.00     0.168 C 
HETATM   37  C   UNL     1      42.837 -12.097  -2.077  1.00  0.00     0.029 C 
HETATM   38  C   UNL     1      42.113 -13.320  -2.577  1.00  0.00     0.035 C 
ENDBRANCH  33  34
ENDBRANCH  30  33
ENDBRANCH  12  29
TORSDOF 7
ENDMDL
MODEL 10
REMARK VINA RESULT:      -7.9      3.435      9.133
REMARK  7 active torsions:
REMARK  status: ('A' for Active; 'I' for Inactive)
REMARK    1  A    between atoms: C_2  and  C_3 
REMARK    2  A    between atoms: C_6  and  C_7 
REMARK    3  A    between atoms: N_8  and  N_9 
REMARK    4  A    between atoms: C_20  and  C_21 
REMARK       I    between atoms: C_21  and  N_22 
REMARK    5  A    between atoms: N_22  and  C_23 
REMARK    6  A    between atoms: C_23  and  C_24 
REMARK    7  A    between atoms: C_30  and  N_31 
ROOT
HETATM    1  N   UNL     1      40.272 -15.125   1.562  1.00  0.00    -0.202 N 
HETATM    2  C   UNL     1      40.045 -14.482   2.765  1.00  0.00     0.183 A 
HETATM    3  C   UNL     1      40.485 -15.330   3.774  1.00  0.00     0.124 A 
HETATM    4  N   UNL     1      40.527 -14.908   5.063  1.00  0.00    -0.242 NA
HETATM    5  C   UNL     1      40.086 -13.660   5.272  1.00  0.00     0.086 A 
HETATM    6  C   UNL     1      39.603 -12.831   4.227  1.00  0.00     0.088 A 
HETATM    7  N   UNL     1      39.585 -13.220   2.942  1.00  0.00    -0.225 NA
HETATM    8  C   UNL     1      40.116 -13.157   6.567  1.00  0.00     0.034 A 
HETATM    9  C   UNL     1      39.671 -11.868   6.863  1.00  0.00     0.002 A 
HETATM   10  C   UNL     1      39.177 -11.066   5.844  1.00  0.00     0.002 A 
HETATM   11  C   UNL     1      39.149 -11.555   4.537  1.00  0.00     0.034 A 
HETATM   12  C   UNL     1      40.903 -16.554   3.177  1.00  0.00     0.104 C 
HETATM   13  C   UNL     1      40.588 -16.453   1.828  1.00  0.00     0.123 C 
ENDROOT
BRANCH   1  14
HETATM   14  N   UNL     1      40.352 -14.603   0.288  1.00  0.00    -0.176 NA
HETATM   15  C   UNL     1      40.696 -13.353   0.300  1.00  0.00     0.150 C 
BRANCH  15  16
HETATM   16  C   UNL     1      41.047 -12.602  -0.916  1.00  0.00    -0.017 A 
HETATM   17  C   UNL     1      42.295 -12.014  -1.092  1.00  0.00     0.013 A 
HETATM   18  C   UNL     1      42.527 -11.206  -2.212  1.00  0.00     0.009 A 
HETATM   19  C   UNL     1      41.516 -10.962  -3.164  1.00  0.00    -0.051 A 
HETATM   20  C   UNL     1      40.269 -11.585  -2.961  1.00  0.00     0.009 A 
HETATM   21  C   UNL     1      40.037 -12.402  -1.856  1.00  0.00     0.013 A 
BRANCH  19  22
HETATM   22  C   UNL     1      41.708 -10.027  -4.370  1.00  0.00    -0.024 C 
HETATM   23  C   UNL     1      42.575 -10.631  -5.495  1.00  0.00     0.019 C 
HETATM   24  C   UNL     1      42.400  -8.729  -3.897  1.00  0.00     0.019 C 
HETATM   25  C   UNL     1      40.338  -9.674  -4.990  1.00  0.00     0.019 C 
ENDBRANCH  19  22
ENDBRANCH  15  16
ENDBRANCH   1  14
BRANCH  13  26
HETATM   26  N   UNL     1      40.691 -17.357   0.806  1.00  0.00    -0.286 NA
HETATM   27  H   UNL     1      40.405 -18.313   1.050  1.00  0.00     0.125 HD
HETATM   28  H   UNL     1      41.572 -17.382   0.292  1.00  0.00     0.125 HD
ENDBRANCH  13  26
BRANCH  12  29
HETATM   29  C   UNL     1      41.615 -17.641   3.839  1.00  0.00     0.257 C 
HETATM   30  N   UNL     1      42.676 -18.148   3.112  1.00  0.00    -0.354 N 
HETATM   31  H   UNL     1      42.886 -17.643   2.254  1.00  0.00     0.162 HD
HETATM   32  O   UNL     1      41.361 -18.005   4.979  1.00  0.00    -0.267 OA
BRANCH  30  33
HETATM   33  C   UNL     1      43.790 -18.829   3.744  1.00  0.00     0.155 C 
BRANCH  33  34
HETATM   34  C   UNL     1      44.481 -19.906   2.902  1.00  0.00     0.139 C 
HETATM   35  O   UNL     1      44.899 -20.980   3.780  1.00  0.00    -0.384 OA
HETATM   36  C   UNL     1      44.480 -22.227   3.210  1.00  0.00     0.168 C 
HETATM   37  C   UNL     1      44.166 -21.949   1.761  1.00  0.00     0.029 C 
HETATM   38  C   UNL     1      43.609 -20.551   1.835  1.00  0.00     0.035 C 
ENDBRANCH  33  34
ENDBRANCH  30  33
ENDBRANCH  12  29
TORSDOF 7
ENDMDL
