MODEL 1
REMARK VINA RESULT:      -9.3      0.000      0.000
REMARK  6 active torsions:
REMARK  status: ('A' for Active; 'I' for Inactive)
REMARK    1  A    between atoms: C_5  and  C_6 
REMARK    2  A    between atoms: C_12  and  C_13 
REMARK       I    between atoms: C_13  and  N_14 
REMARK    3  A    between atoms: N_14  and  C_15 
REMARK    4  A    between atoms: C_18  and  C_19 
REMARK    5  A    between atoms: C_19  and  O_20 
REMARK    6  A    between atoms: C_25  and  C_26 
ROOT
HETATM    1  C   UNL     1      41.799 -17.091   5.302  1.00  0.00     0.118 C 
HETATM    2  N   UNL     1      41.066 -16.226   4.354  1.00  0.00    -0.365 N 
HETATM    3  C   UNL     1      41.712 -15.142   3.821  1.00  0.00     0.138 A 
HETATM    4  N   UNL     1      42.914 -14.710   4.336  1.00  0.00    -0.240 N 
HETATM    5  N   UNL     1      43.458 -13.695   3.653  1.00  0.00    -0.181 NA
HETATM    6  C   UNL     1      42.533 -13.409   2.734  1.00  0.00     0.160 A 
HETATM    7  C   UNL     1      41.411 -14.274   2.785  1.00  0.00     0.096 A 
HETATM    8  C   UNL     1      43.573 -15.290   5.494  1.00  0.00     0.221 C 
HETATM    9  C   UNL     1      42.584 -16.187   6.264  1.00  0.00     0.066 C 
HETATM   10  H   UNL     1      40.102 -16.074   4.658  1.00  0.00     0.161 HD
ENDROOT
BRANCH   7  11
HETATM   11  C   UNL     1      40.254 -14.211   1.903  1.00  0.00     0.261 C 
HETATM   12  N   UNL     1      40.571 -14.023   0.571  1.00  0.00    -0.323 N 
HETATM   13  H   UNL     1      41.550 -13.840   0.380  1.00  0.00     0.169 HD
HETATM   14  O   UNL     1      39.125 -14.337   2.361  1.00  0.00    -0.267 OA
BRANCH  12  15
HETATM   15  C   UNL     1      39.708 -14.108  -0.539  1.00  0.00     0.035 A 
HETATM   16  C   UNL     1      38.400 -13.627  -0.548  1.00  0.00     0.030 A 
HETATM   17  C   UNL     1      37.577 -13.803  -1.669  1.00  0.00     0.012 A 
HETATM   18  C   UNL     1      38.039 -14.465  -2.813  1.00  0.00    -0.030 A 
HETATM   19  C   UNL     1      39.360 -14.939  -2.796  1.00  0.00     0.012 A 
HETATM   20  C   UNL     1      40.188 -14.752  -1.682  1.00  0.00     0.030 A 
BRANCH  18  21
HETATM   21  C   UNL     1      37.150 -14.754  -4.009  1.00  0.00     0.147 C 
HETATM   22  C   UNL     1      36.409 -13.554  -4.597  1.00  0.00     0.044 C 
BRANCH  21  23
HETATM   23  O   UNL     1      37.940 -15.333  -5.051  1.00  0.00    -0.391 OA
HETATM   24  H   UNL     1      38.168 -14.619  -5.669  1.00  0.00     0.210 HD
ENDBRANCH  21  23
ENDBRANCH  18  21
ENDBRANCH  12  15
ENDBRANCH   7  11
BRANCH   1  25
HETATM   25  C   UNL     1      42.685 -18.131   4.621  1.00  0.00    -0.035 A 
HETATM   26  C   UNL     1      43.612 -18.923   5.316  1.00  0.00     0.010 A 
HETATM   27  C   UNL     1      44.354 -19.913   4.662  1.00  0.00     0.007 A 
HETATM   28  C   UNL     1      44.205 -20.125   3.291  1.00  0.00    -0.062 A 
HETATM   29  C   UNL     1      44.960 -21.215   2.589  1.00  0.00     0.048 C 
HETATM   30  C   UNL     1      43.311 -19.321   2.579  1.00  0.00     0.007 A 
HETATM   31  C   UNL     1      42.571 -18.331   3.233  1.00  0.00     0.010 A 
ENDBRANCH   1  25
BRANCH   8  32
HETATM   32  C   UNL     1      44.115 -14.232   6.431  1.00  0.00     0.409 C 
HETATM   33  F   UNL     1      43.251 -13.203   6.596  1.00  0.00    -0.169 F 
HETATM   34  F   UNL     1      44.301 -14.775   7.666  1.00  0.00    -0.169 F 
HETATM   35  F   UNL     1      45.310 -13.731   6.061  1.00  0.00    -0.169 F 
ENDBRANCH   8  32
TORSDOF 6
ENDMDL
MODEL 2
REMARK VINA RESULT:      -9.1      3.700      9.048
REMARK  6 active torsions:
REMARK  status: ('A' for Active; 'I' for Inactive)
REMARK    1  A    between atoms: C_5  and  C_6 
REMARK    2  A    between atoms: C_12  and  C_13 
REMARK       I    between atoms: C_13  and  N_14 
REMARK    3  A    between atoms: N_14  and  C_15 
REMARK    4  A    between atoms: C_18  and  C_19 
REMARK    5  A    between atoms: C_19  and  O_20 
REMARK    6  A    between atoms: C_25  and  C_26 
ROOT
HETATM    1  C   UNL     1      41.333 -14.437  -3.184  1.00  0.00     0.118 C 
HETATM    2  N   UNL     1      41.655 -15.185  -1.950  1.00  0.00    -0.365 N 
HETATM    3  C   UNL     1      41.635 -14.517  -0.755  1.00  0.00     0.138 A 
HETATM    4  N   UNL     1      41.573 -13.141  -0.713  1.00  0.00    -0.240 N 
HETATM    5  N   UNL     1      41.475 -12.645   0.527  1.00  0.00    -0.181 NA
HETATM    6  C   UNL     1      41.572 -13.728   1.302  1.00  0.00     0.160 A 
HETATM    7  C   UNL     1      41.679 -14.934   0.564  1.00  0.00     0.096 A 
HETATM    8  C   UNL     1      41.587 -12.278  -1.881  1.00  0.00     0.221 C 
HETATM    9  C   UNL     1      42.043 -13.077  -3.118  1.00  0.00     0.066 C 
HETATM   10  H   UNL     1      42.437 -15.827  -2.099  1.00  0.00     0.161 HD
ENDROOT
BRANCH   7  11
HETATM   11  C   UNL     1      41.787 -16.268   1.138  1.00  0.00     0.261 C 
HETATM   12  N   UNL     1      43.052 -16.586   1.592  1.00  0.00    -0.323 N 
HETATM   13  H   UNL     1      43.774 -15.908   1.372  1.00  0.00     0.169 HD
HETATM   14  O   UNL     1      40.799 -16.992   1.198  1.00  0.00    -0.267 OA
BRANCH  12  15
HETATM   15  C   UNL     1      43.436 -17.704   2.357  1.00  0.00     0.035 A 
HETATM   16  C   UNL     1      43.660 -17.668   3.732  1.00  0.00     0.030 A 
HETATM   17  C   UNL     1      44.104 -18.808   4.418  1.00  0.00     0.012 A 
HETATM   18  C   UNL     1      44.334 -20.016   3.748  1.00  0.00    -0.030 A 
HETATM   19  C   UNL     1      44.097 -20.043   2.364  1.00  0.00     0.012 A 
HETATM   20  C   UNL     1      43.642 -18.908   1.680  1.00  0.00     0.030 A 
BRANCH  18  21
HETATM   21  C   UNL     1      44.898 -21.244   4.440  1.00  0.00     0.147 C 
HETATM   22  C   UNL     1      44.410 -21.491   5.866  1.00  0.00     0.044 C 
BRANCH  21  23
HETATM   23  O   UNL     1      44.587 -22.403   3.663  1.00  0.00    -0.391 OA
HETATM   24  H   UNL     1      45.414 -22.899   3.544  1.00  0.00     0.210 HD
ENDBRANCH  21  23
ENDBRANCH  18  21
ENDBRANCH  12  15
ENDBRANCH   7  11
BRANCH   1  25
HETATM   25  C   UNL     1      39.834 -14.304  -3.444  1.00  0.00    -0.035 A 
HETATM   26  C   UNL     1      39.157 -13.075  -3.414  1.00  0.00     0.010 A 
HETATM   27  C   UNL     1      37.795 -12.990  -3.726  1.00  0.00     0.007 A 
HETATM   28  C   UNL     1      37.069 -14.135  -4.058  1.00  0.00    -0.062 A 
HETATM   29  C   UNL     1      35.621 -14.048  -4.442  1.00  0.00     0.048 C 
HETATM   30  C   UNL     1      37.722 -15.370  -4.060  1.00  0.00     0.007 A 
HETATM   31  C   UNL     1      39.082 -15.454  -3.746  1.00  0.00     0.010 A 
ENDBRANCH   1  25
BRANCH   8  32
HETATM   32  C   UNL     1      42.502 -11.085  -1.698  1.00  0.00     0.409 C 
HETATM   33  F   UNL     1      43.663 -11.420  -1.089  1.00  0.00    -0.169 F 
HETATM   34  F   UNL     1      42.842 -10.585  -2.918  1.00  0.00    -0.169 F 
HETATM   35  F   UNL     1      41.942 -10.064  -1.020  1.00  0.00    -0.169 F 
ENDBRANCH   8  32
TORSDOF 6
ENDMDL
MODEL 3
REMARK VINA RESULT:      -8.7      1.911      2.518
REMARK  6 active torsions:
REMARK  status: ('A' for Active; 'I' for Inactive)
REMARK    1  A    between atoms: C_5  and  C_6 
REMARK    2  A    between atoms: C_12  and  C_13 
REMARK       I    between atoms: C_13  and  N_14 
REMARK    3  A    between atoms: N_14  and  C_15 
REMARK    4  A    between atoms: C_18  and  C_19 
REMARK    5  A    between atoms: C_19  and  O_20 
REMARK    6  A    between atoms: C_25  and  C_26 
ROOT
HETATM    1  C   UNL     1      40.608 -16.564   3.107  1.00  0.00     0.118 C 
HETATM    2  N   UNL     1      40.309 -15.913   1.814  1.00  0.00    -0.365 N 
HETATM    3  C   UNL     1      41.034 -14.810   1.451  1.00  0.00     0.138 A 
HETATM    4  N   UNL     1      41.841 -14.162   2.361  1.00  0.00    -0.240 N 
HETATM    5  N   UNL     1      42.548 -13.156   1.831  1.00  0.00    -0.181 NA
HETATM    6  C   UNL     1      42.111 -13.100   0.572  1.00  0.00     0.160 A 
HETATM    7  C   UNL     1      41.158 -14.104   0.266  1.00  0.00     0.096 A 
HETATM    8  C   UNL     1      41.958 -14.521   3.764  1.00  0.00     0.221 C 
HETATM    9  C   UNL     1      40.805 -15.465   4.160  1.00  0.00     0.066 C 
HETATM   10  H   UNL     1      39.301 -15.869   1.645  1.00  0.00     0.161 HD
ENDROOT
BRANCH   7  11
HETATM   11  C   UNL     1      40.517 -14.296  -1.027  1.00  0.00     0.261 C 
HETATM   12  N   UNL     1      39.172 -13.980  -1.042  1.00  0.00    -0.323 N 
HETATM   13  H   UNL     1      38.768 -13.764  -0.137  1.00  0.00     0.169 HD
HETATM   14  O   UNL     1      41.173 -14.690  -1.984  1.00  0.00    -0.267 OA
BRANCH  12  15
HETATM   15  C   UNL     1      38.325 -13.876  -2.162  1.00  0.00     0.035 A 
HETATM   16  C   UNL     1      37.742 -12.685  -2.591  1.00  0.00     0.030 A 
HETATM   17  C   UNL     1      36.856 -12.669  -3.678  1.00  0.00     0.012 A 
HETATM   18  C   UNL     1      36.531 -13.844  -4.368  1.00  0.00    -0.030 A 
HETATM   19  C   UNL     1      37.131 -15.036  -3.932  1.00  0.00     0.012 A 
HETATM   20  C   UNL     1      38.025 -15.051  -2.854  1.00  0.00     0.030 A 
BRANCH  18  21
HETATM   21  C   UNL     1      35.510 -13.879  -5.491  1.00  0.00     0.147 C 
HETATM   22  C   UNL     1      34.834 -12.550  -5.822  1.00  0.00     0.044 C 
BRANCH  21  23
HETATM   23  O   UNL     1      36.140 -14.359  -6.681  1.00  0.00    -0.391 OA
HETATM   24  H   UNL     1      36.827 -14.990  -6.407  1.00  0.00     0.210 HD
ENDBRANCH  21  23
ENDBRANCH  18  21
ENDBRANCH  12  15
ENDBRANCH   7  11
BRANCH   1  25
HETATM   25  C   UNL     1      41.786 -17.533   3.044  1.00  0.00    -0.035 A 
HETATM   26  C   UNL     1      42.468 -17.987   4.184  1.00  0.00     0.010 A 
HETATM   27  C   UNL     1      43.498 -18.929   4.086  1.00  0.00     0.007 A 
HETATM   28  C   UNL     1      43.888 -19.430   2.843  1.00  0.00    -0.062 A 
HETATM   29  C   UNL     1      44.958 -20.476   2.731  1.00  0.00     0.048 C 
HETATM   30  C   UNL     1      43.241 -18.962   1.696  1.00  0.00     0.007 A 
HETATM   31  C   UNL     1      42.214 -18.019   1.795  1.00  0.00     0.010 A 
ENDBRANCH   1  25
BRANCH   8  32
HETATM   32  C   UNL     1      41.936 -13.306   4.667  1.00  0.00     0.409 C 
HETATM   33  F   UNL     1      41.316 -13.553   5.844  1.00  0.00    -0.169 F 
HETATM   34  F   UNL     1      43.214 -12.951   4.977  1.00  0.00    -0.169 F 
HETATM   35  F   UNL     1      41.373 -12.217   4.107  1.00  0.00    -0.169 F 
ENDBRANCH   8  32
TORSDOF 6
ENDMDL
MODEL 4
REMARK VINA RESULT:      -8.5      3.720      8.860
REMARK  6 active torsions:
REMARK  status: ('A' for Active; 'I' for Inactive)
REMARK    1  A    between atoms: C_5  and  C_6 
REMARK    2  A    between atoms: C_12  and  C_13 
REMARK       I    between atoms: C_13  and  N_14 
REMARK    3  A    between atoms: N_14  and  C_15 
REMARK    4  A    between atoms: C_18  and  C_19 
REMARK    5  A    between atoms: C_19  and  O_20 
REMARK    6  A    between atoms: C_25  and  C_26 
ROOT
HETATM    1  C   UNL     1      39.707 -13.840  -1.586  1.00  0.00     0.118 C 
HETATM    2  N   UNL     1      40.414 -14.705  -0.618  1.00  0.00    -0.365 N 
HETATM    3  C   UNL     1      41.271 -14.123   0.278  1.00  0.00     0.138 A 
HETATM    4  N   UNL     1      41.670 -12.813   0.128  1.00  0.00    -0.240 N 
HETATM    5  N   UNL     1      42.438 -12.367   1.130  1.00  0.00    -0.181 NA
HETATM    6  C   UNL     1      42.612 -13.450   1.891  1.00  0.00     0.160 A 
HETATM    7  C   UNL     1      41.912 -14.586   1.414  1.00  0.00     0.096 A 
HETATM    8  C   UNL     1      41.294 -11.957  -0.984  1.00  0.00     0.221 C 
HETATM    9  C   UNL     1      40.710 -12.811  -2.127  1.00  0.00     0.066 C 
HETATM   10  H   UNL     1      40.736 -15.570  -1.059  1.00  0.00     0.161 HD
ENDROOT
BRANCH   7  11
HETATM   11  C   UNL     1      41.905 -15.900   2.043  1.00  0.00     0.261 C 
HETATM   12  N   UNL     1      43.110 -16.570   1.963  1.00  0.00    -0.323 N 
HETATM   13  H   UNL     1      43.816 -16.125   1.385  1.00  0.00     0.169 HD
HETATM   14  O   UNL     1      40.889 -16.311   2.593  1.00  0.00    -0.267 OA
BRANCH  12  15
HETATM   15  C   UNL     1      43.480 -17.757   2.624  1.00  0.00     0.035 A 
HETATM   16  C   UNL     1      43.705 -17.847   3.996  1.00  0.00     0.030 A 
HETATM   17  C   UNL     1      44.134 -19.049   4.577  1.00  0.00     0.012 A 
HETATM   18  C   UNL     1      44.349 -20.195   3.801  1.00  0.00    -0.030 A 
HETATM   19  C   UNL     1      44.112 -20.095   2.421  1.00  0.00     0.012 A 
HETATM   20  C   UNL     1      43.670 -18.898   1.842  1.00  0.00     0.030 A 
BRANCH  18  21
HETATM   21  C   UNL     1      44.898 -21.487   4.380  1.00  0.00     0.147 C 
HETATM   22  C   UNL     1      44.489 -21.803   5.817  1.00  0.00     0.044 C 
BRANCH  21  23
HETATM   23  O   UNL     1      44.486 -22.581   3.557  1.00  0.00    -0.391 OA
HETATM   24  H   UNL     1      43.528 -22.491   3.419  1.00  0.00     0.210 HD
ENDBRANCH  21  23
ENDBRANCH  18  21
ENDBRANCH  12  15
ENDBRANCH   7  11
BRANCH   1  25
HETATM   25  C   UNL     1      38.448 -13.190  -1.018  1.00  0.00    -0.035 A 
HETATM   26  C   UNL     1      37.939 -13.487   0.256  1.00  0.00     0.010 A 
HETATM   27  C   UNL     1      36.820 -12.816   0.764  1.00  0.00     0.007 A 
HETATM   28  C   UNL     1      36.169 -11.843   0.005  1.00  0.00    -0.062 A 
HETATM   29  C   UNL     1      34.999 -11.084   0.559  1.00  0.00     0.048 C 
HETATM   30  C   UNL     1      36.644 -11.560  -1.278  1.00  0.00     0.007 A 
HETATM   31  C   UNL     1      37.760 -12.232  -1.786  1.00  0.00     0.010 A 
ENDBRANCH   1  25
BRANCH   8  32
HETATM   32  C   UNL     1      42.468 -11.161  -1.512  1.00  0.00     0.409 C 
HETATM   33  F   UNL     1      42.834 -10.167  -0.669  1.00  0.00    -0.169 F 
HETATM   34  F   UNL     1      43.551 -11.978  -1.630  1.00  0.00    -0.169 F 
HETATM   35  F   UNL     1      42.267 -10.632  -2.735  1.00  0.00    -0.169 F 
ENDBRANCH   8  32
TORSDOF 6
ENDMDL
MODEL 5
REMARK VINA RESULT:      -8.5      4.394      9.057
REMARK  6 active torsions:
REMARK  status: ('A' for Active; 'I' for Inactive)
REMARK    1  A    between atoms: C_5  and  C_6 
REMARK    2  A    between atoms: C_12  and  C_13 
REMARK       I    between atoms: C_13  and  N_14 
REMARK    3  A    between atoms: N_14  and  C_15 
REMARK    4  A    between atoms: C_18  and  C_19 
REMARK    5  A    between atoms: C_19  and  O_20 
REMARK    6  A    between atoms: C_25  and  C_26 
ROOT
HETATM    1  C   UNL     1      37.942 -13.975   1.081  1.00  0.00     0.118 C 
HETATM    2  N   UNL     1      38.849 -15.115   1.333  1.00  0.00    -0.365 N 
HETATM    3  C   UNL     1      40.048 -15.157   0.672  1.00  0.00     0.138 A 
HETATM    4  N   UNL     1      40.304 -14.313  -0.386  1.00  0.00    -0.240 N 
HETATM    5  N   UNL     1      41.548 -14.418  -0.869  1.00  0.00    -0.181 NA
HETATM    6  C   UNL     1      42.071 -15.423  -0.162  1.00  0.00     0.160 A 
HETATM    7  C   UNL     1      41.184 -15.935   0.819  1.00  0.00     0.096 A 
HETATM    8  C   UNL     1      39.348 -13.368  -0.939  1.00  0.00     0.221 C 
HETATM    9  C   UNL     1      37.931 -13.698  -0.430  1.00  0.00     0.066 C 
HETATM   10  H   UNL     1      38.332 -15.995   1.392  1.00  0.00     0.161 HD
ENDROOT
BRANCH   7  11
HETATM   11  C   UNL     1      41.482 -17.020   1.743  1.00  0.00     0.261 C 
HETATM   12  N   UNL     1      42.577 -17.782   1.384  1.00  0.00    -0.323 N 
HETATM   13  H   UNL     1      42.971 -17.572   0.473  1.00  0.00     0.169 HD
HETATM   14  O   UNL     1      40.792 -17.180   2.744  1.00  0.00    -0.267 OA
BRANCH  12  15
HETATM   15  C   UNL     1      43.228 -18.767   2.151  1.00  0.00     0.035 A 
HETATM   16  C   UNL     1      43.393 -20.089   1.742  1.00  0.00     0.030 A 
HETATM   17  C   UNL     1      43.996 -21.033   2.587  1.00  0.00     0.012 A 
HETATM   18  C   UNL     1      44.451 -20.679   3.864  1.00  0.00    -0.030 A 
HETATM   19  C   UNL     1      44.286 -19.343   4.262  1.00  0.00     0.012 A 
HETATM   20  C   UNL     1      43.696 -18.397   3.414  1.00  0.00     0.030 A 
BRANCH  18  21
HETATM   21  C   UNL     1      45.026 -21.691   4.839  1.00  0.00     0.147 C 
HETATM   22  C   UNL     1      44.389 -21.718   6.227  1.00  0.00     0.044 C 
BRANCH  21  23
HETATM   23  O   UNL     1      44.907 -23.001   4.278  1.00  0.00    -0.391 OA
HETATM   24  H   UNL     1      45.583 -23.077   3.583  1.00  0.00     0.210 HD
ENDBRANCH  21  23
ENDBRANCH  18  21
ENDBRANCH  12  15
ENDBRANCH   7  11
BRANCH   1  25
HETATM   25  C   UNL     1      38.278 -12.733   1.902  1.00  0.00    -0.035 A 
HETATM   26  C   UNL     1      37.697 -11.477   1.666  1.00  0.00     0.010 A 
HETATM   27  C   UNL     1      37.983 -10.381   2.488  1.00  0.00     0.007 A 
HETATM   28  C   UNL     1      38.872 -10.505   3.556  1.00  0.00    -0.062 A 
HETATM   29  C   UNL     1      39.148  -9.349   4.472  1.00  0.00     0.048 C 
HETATM   30  C   UNL     1      39.485 -11.740   3.783  1.00  0.00     0.007 A 
HETATM   31  C   UNL     1      39.200 -12.835   2.960  1.00  0.00     0.010 A 
ENDBRANCH   1  25
BRANCH   8  32
HETATM   32  C   UNL     1      39.346 -13.381  -2.453  1.00  0.00     0.409 C 
HETATM   33  F   UNL     1      39.469 -14.632  -2.955  1.00  0.00    -0.169 F 
HETATM   34  F   UNL     1      38.153 -12.905  -2.906  1.00  0.00    -0.169 F 
HETATM   35  F   UNL     1      40.293 -12.601  -3.009  1.00  0.00    -0.169 F 
ENDBRANCH   8  32
TORSDOF 6
ENDMDL
MODEL 6
REMARK VINA RESULT:      -8.5      2.056      2.622
REMARK  6 active torsions:
REMARK  status: ('A' for Active; 'I' for Inactive)
REMARK    1  A    between atoms: C_5  and  C_6 
REMARK    2  A    between atoms: C_12  and  C_13 
REMARK       I    between atoms: C_13  and  N_14 
REMARK    3  A    between atoms: N_14  and  C_15 
REMARK    4  A    between atoms: C_18  and  C_19 
REMARK    5  A    between atoms: C_19  and  O_20 
REMARK    6  A    between atoms: C_25  and  C_26 
ROOT
HETATM    1  C   UNL     1      41.723 -17.041   5.501  1.00  0.00     0.118 C 
HETATM    2  N   UNL     1      40.890 -16.140   4.677  1.00  0.00    -0.365 N 
HETATM    3  C   UNL     1      41.466 -15.018   4.146  1.00  0.00     0.138 A 
HETATM    4  N   UNL     1      42.708 -14.592   4.564  1.00  0.00    -0.240 N 
HETATM    5  N   UNL     1      43.169 -13.532   3.889  1.00  0.00    -0.181 NA
HETATM    6  C   UNL     1      42.154 -13.215   3.082  1.00  0.00     0.160 A 
HETATM    7  C   UNL     1      41.054 -14.101   3.193  1.00  0.00     0.096 A 
HETATM    8  C   UNL     1      43.484 -15.221   5.619  1.00  0.00     0.221 C 
HETATM    9  C   UNL     1      42.587 -16.176   6.431  1.00  0.00     0.066 C 
HETATM   10  H   UNL     1      39.958 -16.023   5.082  1.00  0.00     0.161 HD
ENDROOT
BRANCH   7  11
HETATM   11  C   UNL     1      39.816 -14.012   2.431  1.00  0.00     0.261 C 
HETATM   12  N   UNL     1      39.487 -12.729   2.039  1.00  0.00    -0.323 N 
HETATM   13  H   UNL     1      40.075 -11.996   2.420  1.00  0.00     0.169 HD
HETATM   14  O   UNL     1      39.177 -15.027   2.179  1.00  0.00    -0.267 OA
BRANCH  12  15
HETATM   15  C   UNL     1      38.472 -12.337   1.145  1.00  0.00     0.035 A 
HETATM   16  C   UNL     1      38.427 -12.712  -0.196  1.00  0.00     0.030 A 
HETATM   17  C   UNL     1      37.420 -12.230  -1.045  1.00  0.00     0.012 A 
HETATM   18  C   UNL     1      36.428 -11.360  -0.574  1.00  0.00    -0.030 A 
HETATM   19  C   UNL     1      36.478 -10.995   0.781  1.00  0.00     0.012 A 
HETATM   20  C   UNL     1      37.477 -11.486   1.632  1.00  0.00     0.030 A 
BRANCH  18  21
HETATM   21  C   UNL     1      35.376 -10.748  -1.481  1.00  0.00     0.147 C 
HETATM   22  C   UNL     1      33.960 -10.678  -0.911  1.00  0.00     0.044 C 
BRANCH  21  23
HETATM   23  O   UNL     1      35.774  -9.420  -1.829  1.00  0.00    -0.391 OA
HETATM   24  H   UNL     1      35.205  -8.810  -1.330  1.00  0.00     0.210 HD
ENDBRANCH  21  23
ENDBRANCH  18  21
ENDBRANCH  12  15
ENDBRANCH   7  11
BRANCH   1  25
HETATM   25  C   UNL     1      42.552 -18.027   4.681  1.00  0.00    -0.035 A 
HETATM   26  C   UNL     1      43.541 -18.850   5.242  1.00  0.00     0.010 A 
HETATM   27  C   UNL     1      44.229 -19.789   4.464  1.00  0.00     0.007 A 
HETATM   28  C   UNL     1      43.961 -19.917   3.100  1.00  0.00    -0.062 A 
HETATM   29  C   UNL     1      44.658 -20.953   2.269  1.00  0.00     0.048 C 
HETATM   30  C   UNL     1      43.003 -19.081   2.521  1.00  0.00     0.007 A 
HETATM   31  C   UNL     1      42.317 -18.142   3.298  1.00  0.00     0.010 A 
ENDBRANCH   1  25
BRANCH   8  32
HETATM   32  C   UNL     1      44.100 -14.204   6.557  1.00  0.00     0.409 C 
HETATM   33  F   UNL     1      45.262 -13.702   6.076  1.00  0.00    -0.169 F 
HETATM   34  F   UNL     1      43.255 -13.145   6.692  1.00  0.00    -0.169 F 
HETATM   35  F   UNL     1      44.318 -14.669   7.803  1.00  0.00    -0.169 F 
ENDBRANCH   8  32
TORSDOF 6
ENDMDL
MODEL 7
REMARK VINA RESULT:      -8.4      3.994      8.640
REMARK  6 active torsions:
REMARK  status: ('A' for Active; 'I' for Inactive)
REMARK    1  A    between atoms: C_5  and  C_6 
REMARK    2  A    between atoms: C_12  and  C_13 
REMARK       I    between atoms: C_13  and  N_14 
REMARK    3  A    between atoms: N_14  and  C_15 
REMARK    4  A    between atoms: C_18  and  C_19 
REMARK    5  A    between atoms: C_19  and  O_20 
REMARK    6  A    between atoms: C_25  and  C_26 
ROOT
HETATM    1  C   UNL     1      42.030 -11.410   0.993  1.00  0.00     0.118 C 
HETATM    2  N   UNL     1      42.325 -12.728   1.593  1.00  0.00    -0.365 N 
HETATM    3  C   UNL     1      41.342 -13.682   1.597  1.00  0.00     0.138 A 
HETATM    4  N   UNL     1      40.039 -13.358   1.289  1.00  0.00    -0.240 N 
HETATM    5  N   UNL     1      39.216 -14.414   1.253  1.00  0.00    -0.181 NA
HETATM    6  C   UNL     1      39.996 -15.426   1.639  1.00  0.00     0.160 A 
HETATM    7  C   UNL     1      41.339 -15.038   1.875  1.00  0.00     0.096 A 
HETATM    8  C   UNL     1      39.568 -12.013   1.003  1.00  0.00     0.221 C 
HETATM    9  C   UNL     1      40.626 -10.983   1.444  1.00  0.00     0.066 C 
HETATM   10  H   UNL     1      42.865 -12.631   2.456  1.00  0.00     0.161 HD
ENDROOT
BRANCH   7  11
HETATM   11  C   UNL     1      42.414 -15.926   2.294  1.00  0.00     0.261 C 
HETATM   12  N   UNL     1      42.000 -17.210   2.594  1.00  0.00    -0.323 N 
HETATM   13  H   UNL     1      40.995 -17.351   2.598  1.00  0.00     0.169 HD
HETATM   14  O   UNL     1      43.567 -15.514   2.340  1.00  0.00    -0.267 OA
BRANCH  12  15
HETATM   15  C   UNL     1      42.806 -18.338   2.842  1.00  0.00     0.035 A 
HETATM   16  C   UNL     1      43.121 -19.297   1.881  1.00  0.00     0.030 A 
HETATM   17  C   UNL     1      43.878 -20.429   2.216  1.00  0.00     0.012 A 
HETATM   18  C   UNL     1      44.341 -20.633   3.522  1.00  0.00    -0.030 A 
HETATM   19  C   UNL     1      44.024 -19.657   4.480  1.00  0.00     0.012 A 
HETATM   20  C   UNL     1      43.280 -18.519   4.143  1.00  0.00     0.030 A 
BRANCH  18  21
HETATM   21  C   UNL     1      45.084 -21.888   3.942  1.00  0.00     0.147 C 
HETATM   22  C   UNL     1      44.915 -22.310   5.400  1.00  0.00     0.044 C 
BRANCH  21  23
HETATM   23  O   UNL     1      44.662 -22.979   3.119  1.00  0.00    -0.391 OA
HETATM   24  H   UNL     1      43.789 -22.747   2.761  1.00  0.00     0.210 HD
ENDBRANCH  21  23
ENDBRANCH  18  21
ENDBRANCH  12  15
ENDBRANCH   7  11
BRANCH   1  25
HETATM   25  C   UNL     1      42.192 -11.381  -0.525  1.00  0.00    -0.035 A 
HETATM   26  C   UNL     1      42.363 -12.538  -1.301  1.00  0.00     0.010 A 
HETATM   27  C   UNL     1      42.438 -12.471  -2.697  1.00  0.00     0.007 A 
HETATM   28  C   UNL     1      42.364 -11.242  -3.355  1.00  0.00    -0.062 A 
HETATM   29  C   UNL     1      42.395 -11.163  -4.853  1.00  0.00     0.048 C 
HETATM   30  C   UNL     1      42.227 -10.078  -2.594  1.00  0.00     0.007 A 
HETATM   31  C   UNL     1      42.154 -10.146  -1.199  1.00  0.00     0.010 A 
ENDBRANCH   1  25
BRANCH   8  32
HETATM   32  C   UNL     1      38.259 -11.708   1.700  1.00  0.00     0.409 C 
HETATM   33  F   UNL     1      37.216 -12.369   1.144  1.00  0.00    -0.169 F 
HETATM   34  F   UNL     1      38.328 -12.126   2.994  1.00  0.00    -0.169 F 
HETATM   35  F   UNL     1      37.956 -10.396   1.748  1.00  0.00    -0.169 F 
ENDBRANCH   8  32
TORSDOF 6
ENDMDL
MODEL 8
REMARK VINA RESULT:      -8.4      4.586      8.818
REMARK  6 active torsions:
REMARK  status: ('A' for Active; 'I' for Inactive)
REMARK    1  A    between atoms: C_5  and  C_6 
REMARK    2  A    between atoms: C_12  and  C_13 
REMARK       I    between atoms: C_13  and  N_14 
REMARK    3  A    between atoms: N_14  and  C_15 
REMARK    4  A    between atoms: C_18  and  C_19 
REMARK    5  A    between atoms: C_19  and  O_20 
REMARK    6  A    between atoms: C_25  and  C_26 
ROOT
HETATM    1  C   UNL     1      43.309 -15.136   2.208  1.00  0.00     0.118 C 
HETATM    2  N   UNL     1      43.255 -14.314   3.435  1.00  0.00    -0.365 N 
HETATM    3  C   UNL     1      42.077 -14.246   4.128  1.00  0.00     0.138 A 
HETATM    4  N   UNL     1      40.903 -14.712   3.578  1.00  0.00    -0.240 N 
HETATM    5  N   UNL     1      39.857 -14.655   4.412  1.00  0.00    -0.181 NA
HETATM    6  C   UNL     1      40.356 -14.049   5.491  1.00  0.00     0.160 A 
HETATM    7  C   UNL     1      41.740 -13.761   5.380  1.00  0.00     0.096 A 
HETATM    8  C   UNL     1      40.777 -15.245   2.232  1.00  0.00     0.221 C 
HETATM    9  C   UNL     1      42.025 -14.880   1.405  1.00  0.00     0.066 C 
HETATM   10  H   UNL     1      43.762 -13.433   3.314  1.00  0.00     0.161 HD
ENDROOT
BRANCH   7  11
HETATM   11  C   UNL     1      42.554 -13.117   6.402  1.00  0.00     0.261 C 
HETATM   12  N   UNL     1      41.925 -12.067   7.044  1.00  0.00    -0.323 N 
HETATM   13  H   UNL     1      41.027 -11.798   6.658  1.00  0.00     0.169 HD
HETATM   14  O   UNL     1      43.685 -13.528   6.635  1.00  0.00    -0.267 OA
BRANCH  12  15
HETATM   15  C   UNL     1      42.363 -11.374   8.189  1.00  0.00     0.035 A 
HETATM   16  C   UNL     1      43.639 -11.498   8.735  1.00  0.00     0.030 A 
HETATM   17  C   UNL     1      43.984 -10.824   9.916  1.00  0.00     0.012 A 
HETATM   18  C   UNL     1      43.062 -10.007  10.583  1.00  0.00    -0.030 A 
HETATM   19  C   UNL     1      41.782  -9.884  10.019  1.00  0.00     0.012 A 
HETATM   20  C   UNL     1      41.440 -10.545   8.833  1.00  0.00     0.030 A 
BRANCH  18  21
HETATM   21  C   UNL     1      43.370  -9.335  11.909  1.00  0.00     0.147 C 
HETATM   22  C   UNL     1      42.508  -8.125  12.262  1.00  0.00     0.044 C 
BRANCH  21  23
HETATM   23  O   UNL     1      43.233 -10.293  12.961  1.00  0.00    -0.391 OA
HETATM   24  H   UNL     1      43.996 -10.181  13.552  1.00  0.00     0.210 HD
ENDBRANCH  21  23
ENDBRANCH  18  21
ENDBRANCH  12  15
ENDBRANCH   7  11
BRANCH   1  25
HETATM   25  C   UNL     1      43.546 -16.620   2.477  1.00  0.00    -0.035 A 
HETATM   26  C   UNL     1      43.662 -17.576   1.455  1.00  0.00     0.010 A 
HETATM   27  C   UNL     1      43.948 -18.915   1.745  1.00  0.00     0.007 A 
HETATM   28  C   UNL     1      44.107 -19.339   3.065  1.00  0.00    -0.062 A 
HETATM   29  C   UNL     1      44.461 -20.762   3.383  1.00  0.00     0.048 C 
HETATM   30  C   UNL     1      43.961 -18.406   4.094  1.00  0.00     0.007 A 
HETATM   31  C   UNL     1      43.673 -17.068   3.804  1.00  0.00     0.010 A 
ENDBRANCH   1  25
BRANCH   8  32
HETATM   32  C   UNL     1      39.544 -14.720   1.525  1.00  0.00     0.409 C 
HETATM   33  F   UNL     1      39.328 -13.409   1.778  1.00  0.00    -0.169 F 
HETATM   34  F   UNL     1      39.718 -14.825   0.178  1.00  0.00    -0.169 F 
HETATM   35  F   UNL     1      38.418 -15.403   1.809  1.00  0.00    -0.169 F 
ENDBRANCH   8  32
TORSDOF 6
ENDMDL
MODEL 9
REMARK VINA RESULT:      -8.3      3.157      8.698
REMARK  6 active torsions:
REMARK  status: ('A' for Active; 'I' for Inactive)
REMARK    1  A    between atoms: C_5  and  C_6 
REMARK    2  A    between atoms: C_12  and  C_13 
REMARK       I    between atoms: C_13  and  N_14 
REMARK    3  A    between atoms: N_14  and  C_15 
REMARK    4  A    between atoms: C_18  and  C_19 
REMARK    5  A    between atoms: C_19  and  O_20 
REMARK    6  A    between atoms: C_25  and  C_26 
ROOT
HETATM    1  C   UNL     1      41.055 -13.507  -1.594  1.00  0.00     0.118 C 
HETATM    2  N   UNL     1      41.415 -14.632  -0.707  1.00  0.00    -0.365 N 
HETATM    3  C   UNL     1      40.868 -14.679   0.548  1.00  0.00     0.138 A 
HETATM    4  N   UNL     1      40.208 -13.590   1.074  1.00  0.00    -0.240 N 
HETATM    5  N   UNL     1      39.657 -13.823   2.272  1.00  0.00    -0.181 NA
HETATM    6  C   UNL     1      40.057 -15.063   2.561  1.00  0.00     0.160 A 
HETATM    7  C   UNL     1      40.822 -15.657   1.526  1.00  0.00     0.096 A 
HETATM    8  C   UNL     1      40.079 -12.303   0.412  1.00  0.00     0.221 C 
HETATM    9  C   UNL     1      41.074 -12.217  -0.762  1.00  0.00     0.066 C 
HETATM   10  H   UNL     1      42.410 -14.856  -0.776  1.00  0.00     0.161 HD
ENDROOT
BRANCH   7  11
HETATM   11  C   UNL     1      41.382 -17.001   1.555  1.00  0.00     0.261 C 
HETATM   12  N   UNL     1      42.565 -17.105   2.261  1.00  0.00    -0.323 N 
HETATM   13  H   UNL     1      42.960 -16.225   2.576  1.00  0.00     0.169 HD
HETATM   14  O   UNL     1      40.797 -17.921   0.994  1.00  0.00    -0.267 OA
BRANCH  12  15
HETATM   15  C   UNL     1      43.246 -18.281   2.630  1.00  0.00     0.035 A 
HETATM   16  C   UNL     1      43.553 -19.314   1.747  1.00  0.00     0.030 A 
HETATM   17  C   UNL     1      44.177 -20.486   2.199  1.00  0.00     0.012 A 
HETATM   18  C   UNL     1      44.513 -20.655   3.548  1.00  0.00    -0.030 A 
HETATM   19  C   UNL     1      44.207 -19.605   4.428  1.00  0.00     0.012 A 
HETATM   20  C   UNL     1      43.595 -18.429   3.975  1.00  0.00     0.030 A 
BRANCH  18  21
HETATM   21  C   UNL     1      45.107 -21.943   4.090  1.00  0.00     0.147 C 
HETATM   22  C   UNL     1      44.721 -22.308   5.522  1.00  0.00     0.044 C 
BRANCH  21  23
HETATM   23  O   UNL     1      44.721 -23.028   3.243  1.00  0.00    -0.391 OA
HETATM   24  H   UNL     1      44.924 -22.766   2.330  1.00  0.00     0.210 HD
ENDBRANCH  21  23
ENDBRANCH  18  21
ENDBRANCH  12  15
ENDBRANCH   7  11
BRANCH   1  25
HETATM   25  C   UNL     1      39.733 -13.709  -2.331  1.00  0.00    -0.035 A 
HETATM   26  C   UNL     1      38.838 -12.662  -2.601  1.00  0.00     0.010 A 
HETATM   27  C   UNL     1      37.669 -12.880  -3.341  1.00  0.00     0.007 A 
HETATM   28  C   UNL     1      37.354 -14.155  -3.814  1.00  0.00    -0.062 A 
HETATM   29  C   UNL     1      36.130 -14.390  -4.648  1.00  0.00     0.048 C 
HETATM   30  C   UNL     1      38.219 -15.213  -3.524  1.00  0.00     0.007 A 
HETATM   31  C   UNL     1      39.385 -14.995  -2.784  1.00  0.00     0.010 A 
ENDBRANCH   1  25
BRANCH   8  32
HETATM   32  C   UNL     1      40.328 -11.148   1.359  1.00  0.00     0.409 C 
HETATM   33  F   UNL     1      41.417 -11.349   2.137  1.00  0.00    -0.169 F 
HETATM   34  F   UNL     1      40.577 -10.020   0.638  1.00  0.00    -0.169 F 
HETATM   35  F   UNL     1      39.281 -10.857   2.155  1.00  0.00    -0.169 F 
ENDBRANCH   8  32
TORSDOF 6
ENDMDL
MODEL 10
REMARK VINA RESULT:      -8.2      5.523      9.804
REMARK  6 active torsions:
REMARK  status: ('A' for Active; 'I' for Inactive)
REMARK    1  A    between atoms: C_5  and  C_6 
REMARK    2  A    between atoms: C_12  and  C_13 
REMARK       I    between atoms: C_13  and  N_14 
REMARK    3  A    between atoms: N_14  and  C_15 
REMARK    4  A    between atoms: C_18  and  C_19 
REMARK    5  A    between atoms: C_19  and  O_20 
REMARK    6  A    between atoms: C_25  and  C_26 
ROOT
HETATM    1  C   UNL     1      43.321 -14.008   4.579  1.00  0.00     0.118 C 
HETATM    2  N   UNL     1      42.929 -12.895   5.469  1.00  0.00    -0.365 N 
HETATM    3  C   UNL     1      41.598 -12.683   5.706  1.00  0.00     0.138 A 
HETATM    4  N   UNL     1      40.634 -13.311   4.949  1.00  0.00    -0.240 N 
HETATM    5  N   UNL     1      39.383 -13.068   5.360  1.00  0.00    -0.181 NA
HETATM    6  C   UNL     1      39.549 -12.185   6.347  1.00  0.00     0.160 A 
HETATM    7  C   UNL     1      40.911 -11.896   6.615  1.00  0.00     0.096 A 
HETATM    8  C   UNL     1      40.910 -14.182   3.819  1.00  0.00     0.221 C 
HETATM    9  C   UNL     1      42.374 -14.010   3.371  1.00  0.00     0.066 C 
HETATM   10  H   UNL     1      43.497 -12.062   5.293  1.00  0.00     0.161 HD
ENDROOT
BRANCH   7  11
HETATM   11  C   UNL     1      41.395 -10.982   7.640  1.00  0.00     0.261 C 
HETATM   12  N   UNL     1      40.930 -11.262   8.910  1.00  0.00    -0.323 N 
HETATM   13  H   UNL     1      40.226 -11.990   8.963  1.00  0.00     0.169 HD
HETATM   14  O   UNL     1      42.160 -10.073   7.339  1.00  0.00    -0.267 OA
BRANCH  12  15
HETATM   15  C   UNL     1      41.355 -10.694  10.127  1.00  0.00     0.035 A 
HETATM   16  C   UNL     1      42.571 -10.987  10.741  1.00  0.00     0.030 A 
HETATM   17  C   UNL     1      42.901 -10.430  11.986  1.00  0.00     0.012 A 
HETATM   18  C   UNL     1      42.022  -9.565  12.650  1.00  0.00    -0.030 A 
HETATM   19  C   UNL     1      40.804  -9.271  12.018  1.00  0.00     0.012 A 
HETATM   20  C   UNL     1      40.479  -9.815  10.769  1.00  0.00     0.030 A 
BRANCH  18  21
HETATM   21  C   UNL     1      42.305  -9.015  14.037  1.00  0.00     0.147 C 
HETATM   22  C   UNL     1      41.752  -9.831  15.204  1.00  0.00     0.044 C 
BRANCH  21  23
HETATM   23  O   UNL     1      43.718  -8.899  14.215  1.00  0.00    -0.391 OA
HETATM   24  H   UNL     1      44.109  -8.771  13.334  1.00  0.00     0.210 HD
ENDBRANCH  21  23
ENDBRANCH  18  21
ENDBRANCH  12  15
ENDBRANCH   7  11
BRANCH   1  25
HETATM   25  C   UNL     1      43.376 -15.362   5.284  1.00  0.00    -0.035 A 
HETATM   26  C   UNL     1      43.263 -16.585   4.604  1.00  0.00     0.010 A 
HETATM   27  C   UNL     1      43.388 -17.804   5.280  1.00  0.00     0.007 A 
HETATM   28  C   UNL     1      43.610 -17.834   6.658  1.00  0.00    -0.062 A 
HETATM   29  C   UNL     1      43.793 -19.134   7.384  1.00  0.00     0.048 C 
HETATM   30  C   UNL     1      43.691 -16.625   7.353  1.00  0.00     0.007 A 
HETATM   31  C   UNL     1      43.564 -15.407   6.677  1.00  0.00     0.010 A 
ENDBRANCH   1  25
BRANCH   8  32
HETATM   32  C   UNL     1      39.996 -13.898   2.645  1.00  0.00     0.409 C 
HETATM   33  F   UNL     1      39.595 -12.606   2.608  1.00  0.00    -0.169 F 
HETATM   34  F   UNL     1      40.671 -14.121   1.484  1.00  0.00    -0.169 F 
HETATM   35  F   UNL     1      38.904 -14.686   2.598  1.00  0.00    -0.169 F 
ENDBRANCH   8  32
TORSDOF 6
ENDMDL
