MODEL 1
REMARK VINA RESULT:     -10.1      0.000      0.000
REMARK  9 active torsions:
REMARK  status: ('A' for Active; 'I' for Inactive)
REMARK    1  A    between atoms: C_2  and  O_3 
REMARK    2  A    between atoms: O_3  and  C_4 
REMARK    3  A    between atoms: C_7  and  C_8 
REMARK    4  A    between atoms: C_9  and  C_10 
REMARK       I    between atoms: C_10  and  N_11 
REMARK    5  A    between atoms: N_11  and  C_12 
REMARK    6  A    between atoms: C_22  and  S_23 
REMARK    7  A    between atoms: S_23  and  C_24 
REMARK    8  A    between atoms: C_24  and  C_25 
REMARK       I    between atoms: C_25  and  N_26 
REMARK    9  A    between atoms: N_26  and  C_27 
ROOT
HETATM    1  C   UNL     1      40.986 -14.737   4.427  1.00  0.00     0.104 C 
HETATM    2  C   UNL     1      42.124 -15.518   5.088  1.00  0.00     0.046 C 
HETATM    3  C   UNL     1      43.017 -14.891   5.890  1.00  0.00     0.019 C 
HETATM    4  C   UNL     1      44.299 -15.497   6.404  1.00  0.00     0.069 C 
HETATM    5  N   UNL     1      42.774 -13.587   6.283  1.00  0.00    -0.353 N 
HETATM    6  C   UNL     1      41.608 -12.886   6.021  1.00  0.00     0.087 C 
HETATM    7  C   UNL     1      40.726 -13.400   5.117  1.00  0.00     0.055 C 
HETATM    8  C   UNL     1      39.522 -12.567   4.709  1.00  0.00     0.019 C 
HETATM    9  N   UNL     1      38.522 -11.878   4.372  1.00  0.00    -0.096 N 
HETATM   10  H   UNL     1      43.531 -13.095   6.753  1.00  0.00     0.166 HD
ENDROOT
BRANCH   1  11
HETATM   11  C   UNL     1      41.240 -14.511   2.935  1.00  0.00    -0.044 A 
HETATM   12  C   UNL     1      40.697 -15.385   1.983  1.00  0.00     0.011 A 
HETATM   13  C   UNL     1      40.897 -15.158   0.618  1.00  0.00     0.037 A 
HETATM   14  C   UNL     1      41.635 -14.059   0.175  1.00  0.00     0.068 A 
HETATM   15  C   UNL     1      42.191 -13.192   1.114  1.00  0.00     0.037 A 
HETATM   16  C   UNL     1      41.994 -13.414   2.480  1.00  0.00     0.011 A 
BRANCH  14  17
HETATM   17  O   UNL     1      41.742 -13.946  -1.184  1.00  0.00    -0.352 OA
BRANCH  17  18
HETATM   18  C   UNL     1      40.610 -14.347  -1.953  1.00  0.00     0.171 C 
HETATM   19  C   UNL     1      41.095 -15.264  -3.062  1.00  0.00     0.034 C 
ENDBRANCH  17  18
ENDBRANCH  14  17
ENDBRANCH   1  11
BRANCH   6  20
HETATM   20  S   UNL     1      41.197 -11.365   6.820  1.00  0.00    -0.102 SA
BRANCH  20  21
HETATM   21  C   UNL     1      42.566 -11.047   7.950  1.00  0.00     0.184 C 
BRANCH  21  22
HETATM   22  C   UNL     1      42.036 -10.463   9.248  1.00  0.00     0.231 C 
HETATM   23  N   UNL     1      42.608 -11.056  10.361  1.00  0.00    -0.327 N 
HETATM   24  H   UNL     1      43.129 -11.909  10.186  1.00  0.00     0.169 HD
HETATM   25  O   UNL     1      41.186  -9.578   9.226  1.00  0.00    -0.272 OA
BRANCH  23  26
HETATM   26  C   UNL     1      42.444 -10.709  11.713  1.00  0.00     0.034 A 
HETATM   27  C   UNL     1      41.341 -11.073  12.482  1.00  0.00     0.030 A 
HETATM   28  C   UNL     1      41.241 -10.650  13.813  1.00  0.00     0.009 A 
HETATM   29  C   UNL     1      42.237  -9.856  14.390  1.00  0.00    -0.062 A 
HETATM   30  C   UNL     1      42.137  -9.431  15.826  1.00  0.00     0.048 C 
HETATM   31  C   UNL     1      43.352  -9.510  13.624  1.00  0.00     0.009 A 
HETATM   32  C   UNL     1      43.449  -9.925  12.294  1.00  0.00     0.030 A 
ENDBRANCH  23  26
ENDBRANCH  21  22
ENDBRANCH  20  21
ENDBRANCH   6  20
BRANCH   2  33
HETATM   33  C   UNL     1      42.159 -16.991   4.834  1.00  0.00     0.255 C 
HETATM   34  N   UNL     1      43.209 -17.353   4.011  1.00  0.00    -0.323 N 
HETATM   35  H   UNL     1      43.824 -16.611   3.702  1.00  0.00     0.169 HD
HETATM   36  O   UNL     1      41.367 -17.738   5.390  1.00  0.00    -0.268 OA
BRANCH  34  37
HETATM   37  C   UNL     1      43.507 -18.631   3.494  1.00  0.00     0.035 A 
HETATM   38  C   UNL     1      43.019 -19.117   2.281  1.00  0.00     0.029 A 
HETATM   39  C   UNL     1      43.383 -20.392   1.835  1.00  0.00     0.002 A 
HETATM   40  C   UNL     1      44.241 -21.186   2.594  1.00  0.00     0.000 A 
HETATM   41  C   UNL     1      44.732 -20.710   3.805  1.00  0.00     0.002 A 
HETATM   42  C   UNL     1      44.362 -19.440   4.255  1.00  0.00     0.029 A 
ENDBRANCH  34  37
ENDBRANCH   2  33
TORSDOF 9
ENDMDL
MODEL 2
REMARK VINA RESULT:      -9.6      2.869      9.374
REMARK  9 active torsions:
REMARK  status: ('A' for Active; 'I' for Inactive)
REMARK    1  A    between atoms: C_2  and  O_3 
REMARK    2  A    between atoms: O_3  and  C_4 
REMARK    3  A    between atoms: C_7  and  C_8 
REMARK    4  A    between atoms: C_9  and  C_10 
REMARK       I    between atoms: C_10  and  N_11 
REMARK    5  A    between atoms: N_11  and  C_12 
REMARK    6  A    between atoms: C_22  and  S_23 
REMARK    7  A    between atoms: S_23  and  C_24 
REMARK    8  A    between atoms: C_24  and  C_25 
REMARK       I    between atoms: C_25  and  N_26 
REMARK    9  A    between atoms: N_26  and  C_27 
ROOT
HETATM    1  C   UNL     1      42.468 -13.298   4.559  1.00  0.00     0.104 C 
HETATM    2  C   UNL     1      43.030 -14.276   5.593  1.00  0.00     0.046 C 
HETATM    3  C   UNL     1      42.629 -15.569   5.611  1.00  0.00     0.019 C 
HETATM    4  C   UNL     1      42.929 -16.557   6.710  1.00  0.00     0.069 C 
HETATM    5  N   UNL     1      41.876 -16.057   4.558  1.00  0.00    -0.353 N 
HETATM    6  C   UNL     1      41.588 -15.356   3.399  1.00  0.00     0.087 C 
HETATM    7  C   UNL     1      41.843 -14.017   3.365  1.00  0.00     0.055 C 
HETATM    8  C   UNL     1      41.391 -13.212   2.158  1.00  0.00     0.019 C 
HETATM    9  N   UNL     1      41.018 -12.545   1.156  1.00  0.00    -0.096 N 
HETATM   10  H   UNL     1      41.462 -16.981   4.673  1.00  0.00     0.166 HD
ENDROOT
BRANCH   1  11
HETATM   11  C   UNL     1      41.451 -12.335   5.176  1.00  0.00    -0.044 A 
HETATM   12  C   UNL     1      40.387 -12.827   5.944  1.00  0.00     0.011 A 
HETATM   13  C   UNL     1      39.478 -11.945   6.539  1.00  0.00     0.037 A 
HETATM   14  C   UNL     1      39.613 -10.565   6.385  1.00  0.00     0.068 A 
HETATM   15  C   UNL     1      40.660 -10.068   5.611  1.00  0.00     0.037 A 
HETATM   16  C   UNL     1      41.571 -10.944   5.014  1.00  0.00     0.011 A 
BRANCH  14  17
HETATM   17  O   UNL     1      38.667  -9.817   7.031  1.00  0.00    -0.352 OA
BRANCH  17  18
HETATM   18  C   UNL     1      39.141  -8.763   7.867  1.00  0.00     0.171 C 
HETATM   19  C   UNL     1      39.596  -9.373   9.181  1.00  0.00     0.034 C 
ENDBRANCH  17  18
ENDBRANCH  14  17
ENDBRANCH   1  11
BRANCH   6  20
HETATM   20  S   UNL     1      40.923 -16.118   1.950  1.00  0.00    -0.102 SA
BRANCH  20  21
HETATM   21  C   UNL     1      42.329 -16.306   0.836  1.00  0.00     0.184 C 
BRANCH  21  22
HETATM   22  C   UNL     1      43.381 -17.193   1.479  1.00  0.00     0.231 C 
HETATM   23  N   UNL     1      42.820 -18.249   2.177  1.00  0.00    -0.327 N 
HETATM   24  H   UNL     1      41.821 -18.186   2.341  1.00  0.00     0.169 HD
HETATM   25  O   UNL     1      44.573 -16.925   1.357  1.00  0.00    -0.272 OA
BRANCH  23  26
HETATM   26  C   UNL     1      43.475 -19.321   2.806  1.00  0.00     0.034 A 
HETATM   27  C   UNL     1      43.747 -20.539   2.186  1.00  0.00     0.030 A 
HETATM   28  C   UNL     1      44.371 -21.569   2.902  1.00  0.00     0.009 A 
HETATM   29  C   UNL     1      44.727 -21.396   4.243  1.00  0.00    -0.062 A 
HETATM   30  C   UNL     1      45.421 -22.494   4.995  1.00  0.00     0.048 C 
HETATM   31  C   UNL     1      44.473 -20.168   4.856  1.00  0.00     0.009 A 
HETATM   32  C   UNL     1      43.843 -19.143   4.145  1.00  0.00     0.030 A 
ENDBRANCH  23  26
ENDBRANCH  21  22
ENDBRANCH  20  21
ENDBRANCH   6  20
BRANCH   2  33
HETATM   33  C   UNL     1      44.059 -13.735   6.534  1.00  0.00     0.255 C 
HETATM   34  N   UNL     1      43.502 -12.924   7.507  1.00  0.00    -0.323 N 
HETATM   35  H   UNL     1      42.497 -12.811   7.485  1.00  0.00     0.169 HD
HETATM   36  O   UNL     1      45.228 -14.079   6.442  1.00  0.00    -0.268 OA
BRANCH  34  37
HETATM   37  C   UNL     1      44.168 -12.183   8.504  1.00  0.00     0.035 A 
HETATM   38  C   UNL     1      45.540 -12.251   8.744  1.00  0.00     0.029 A 
HETATM   39  C   UNL     1      46.120 -11.463   9.743  1.00  0.00     0.002 A 
HETATM   40  C   UNL     1      45.337 -10.597  10.503  1.00  0.00     0.000 A 
HETATM   41  C   UNL     1      43.967 -10.522  10.270  1.00  0.00     0.002 A 
HETATM   42  C   UNL     1      43.385 -11.316   9.279  1.00  0.00     0.029 A 
ENDBRANCH  34  37
ENDBRANCH   2  33
TORSDOF 9
ENDMDL
MODEL 3
REMARK VINA RESULT:      -9.2      2.658      9.405
REMARK  9 active torsions:
REMARK  status: ('A' for Active; 'I' for Inactive)
REMARK    1  A    between atoms: C_2  and  O_3 
REMARK    2  A    between atoms: O_3  and  C_4 
REMARK    3  A    between atoms: C_7  and  C_8 
REMARK    4  A    between atoms: C_9  and  C_10 
REMARK       I    between atoms: C_10  and  N_11 
REMARK    5  A    between atoms: N_11  and  C_12 
REMARK    6  A    between atoms: C_22  and  S_23 
REMARK    7  A    between atoms: S_23  and  C_24 
REMARK    8  A    between atoms: C_24  and  C_25 
REMARK       I    between atoms: C_25  and  N_26 
REMARK    9  A    between atoms: N_26  and  C_27 
ROOT
HETATM    1  C   UNL     1      39.888 -13.107   4.192  1.00  0.00     0.104 C 
HETATM    2  C   UNL     1      40.084 -11.600   4.365  1.00  0.00     0.046 C 
HETATM    3  C   UNL     1      40.530 -10.838   3.338  1.00  0.00     0.019 C 
HETATM    4  C   UNL     1      40.979  -9.403   3.451  1.00  0.00     0.069 C 
HETATM    5  N   UNL     1      40.601 -11.388   2.071  1.00  0.00    -0.353 N 
HETATM    6  C   UNL     1      40.132 -12.645   1.726  1.00  0.00     0.087 C 
HETATM    7  C   UNL     1      39.793 -13.512   2.723  1.00  0.00     0.055 C 
HETATM    8  C   UNL     1      39.424 -14.941   2.361  1.00  0.00     0.019 C 
HETATM    9  N   UNL     1      39.116 -16.126   2.061  1.00  0.00    -0.096 N 
HETATM   10  H   UNL     1      41.081 -10.845   1.356  1.00  0.00     0.166 HD
ENDROOT
BRANCH   1  11
HETATM   11  C   UNL     1      40.994 -13.911   4.881  1.00  0.00    -0.044 A 
HETATM   12  C   UNL     1      42.339 -13.568   4.694  1.00  0.00     0.011 A 
HETATM   13  C   UNL     1      43.349 -14.278   5.353  1.00  0.00     0.037 A 
HETATM   14  C   UNL     1      43.038 -15.335   6.210  1.00  0.00     0.068 A 
HETATM   15  C   UNL     1      41.704 -15.692   6.391  1.00  0.00     0.037 A 
HETATM   16  C   UNL     1      40.691 -14.986   5.735  1.00  0.00     0.011 A 
BRANCH  14  17
HETATM   17  O   UNL     1      44.117 -15.933   6.801  1.00  0.00    -0.352 OA
BRANCH  17  18
HETATM   18  C   UNL     1      44.017 -17.334   7.052  1.00  0.00     0.171 C 
HETATM   19  C   UNL     1      45.248 -18.005   6.468  1.00  0.00     0.034 C 
ENDBRANCH  17  18
ENDBRANCH  14  17
ENDBRANCH   1  11
BRANCH   6  20
HETATM   20  S   UNL     1      39.930 -13.174   0.052  1.00  0.00    -0.102 SA
BRANCH  20  21
HETATM   21  C   UNL     1      41.568 -13.726  -0.463  1.00  0.00     0.184 C 
BRANCH  21  22
HETATM   22  C   UNL     1      41.759 -15.186  -0.092  1.00  0.00     0.231 C 
HETATM   23  N   UNL     1      42.616 -15.346   0.983  1.00  0.00    -0.327 N 
HETATM   24  H   UNL     1      43.149 -14.523   1.246  1.00  0.00     0.169 HD
HETATM   25  O   UNL     1      41.192 -16.066  -0.734  1.00  0.00    -0.272 OA
BRANCH  23  26
HETATM   26  C   UNL     1      42.944 -16.529   1.666  1.00  0.00     0.034 A 
HETATM   27  C   UNL     1      42.458 -16.862   2.928  1.00  0.00     0.030 A 
HETATM   28  C   UNL     1      42.869 -18.047   3.552  1.00  0.00     0.009 A 
HETATM   29  C   UNL     1      43.773 -18.911   2.924  1.00  0.00    -0.062 A 
HETATM   30  C   UNL     1      44.186 -20.192   3.585  1.00  0.00     0.048 C 
HETATM   31  C   UNL     1      44.242 -18.586   1.650  1.00  0.00     0.009 A 
HETATM   32  C   UNL     1      43.839 -17.401   1.031  1.00  0.00     0.030 A 
ENDBRANCH  23  26
ENDBRANCH  21  22
ENDBRANCH  20  21
ENDBRANCH   6  20
BRANCH   2  33
HETATM   33  C   UNL     1      39.719 -11.027   5.698  1.00  0.00     0.255 C 
HETATM   34  N   UNL     1      40.756 -11.119   6.607  1.00  0.00    -0.323 N 
HETATM   35  H   UNL     1      41.620 -11.528   6.275  1.00  0.00     0.169 HD
HETATM   36  O   UNL     1      38.637 -10.483   5.866  1.00  0.00    -0.268 OA
BRANCH  34  37
HETATM   37  C   UNL     1      40.749 -10.761   7.971  1.00  0.00     0.035 A 
HETATM   38  C   UNL     1      39.749 -11.128   8.870  1.00  0.00     0.029 A 
HETATM   39  C   UNL     1      39.833 -10.746  10.213  1.00  0.00     0.002 A 
HETATM   40  C   UNL     1      40.920 -10.002  10.668  1.00  0.00     0.000 A 
HETATM   41  C   UNL     1      41.923  -9.631   9.778  1.00  0.00     0.002 A 
HETATM   42  C   UNL     1      41.835 -10.005   8.435  1.00  0.00     0.029 A 
ENDBRANCH  34  37
ENDBRANCH   2  33
TORSDOF 9
ENDMDL
MODEL 4
REMARK VINA RESULT:      -9.2      2.117      5.676
REMARK  9 active torsions:
REMARK  status: ('A' for Active; 'I' for Inactive)
REMARK    1  A    between atoms: C_2  and  O_3 
REMARK    2  A    between atoms: O_3  and  C_4 
REMARK    3  A    between atoms: C_7  and  C_8 
REMARK    4  A    between atoms: C_9  and  C_10 
REMARK       I    between atoms: C_10  and  N_11 
REMARK    5  A    between atoms: N_11  and  C_12 
REMARK    6  A    between atoms: C_22  and  S_23 
REMARK    7  A    between atoms: S_23  and  C_24 
REMARK    8  A    between atoms: C_24  and  C_25 
REMARK       I    between atoms: C_25  and  N_26 
REMARK    9  A    between atoms: N_26  and  C_27 
ROOT
HETATM    1  C   UNL     1      42.665 -14.492   2.832  1.00  0.00     0.104 C 
HETATM    2  C   UNL     1      41.414 -14.174   2.012  1.00  0.00     0.046 C 
HETATM    3  C   UNL     1      40.264 -13.800   2.622  1.00  0.00     0.019 C 
HETATM    4  C   UNL     1      38.919 -13.688   1.948  1.00  0.00     0.069 C 
HETATM    5  N   UNL     1      40.283 -13.497   3.972  1.00  0.00    -0.353 N 
HETATM    6  C   UNL     1      41.426 -13.424   4.750  1.00  0.00     0.087 C 
HETATM    7  C   UNL     1      42.594 -13.910   4.242  1.00  0.00     0.055 C 
HETATM    8  C   UNL     1      43.817 -13.974   5.142  1.00  0.00     0.019 C 
HETATM    9  N   UNL     1      44.833 -14.026   5.888  1.00  0.00    -0.096 N 
HETATM   10  H   UNL     1      39.383 -13.370   4.431  1.00  0.00     0.166 HD
ENDROOT
BRANCH   1  11
HETATM   11  C   UNL     1      42.933 -15.997   2.905  1.00  0.00    -0.044 A 
HETATM   12  C   UNL     1      43.934 -16.577   2.113  1.00  0.00     0.011 A 
HETATM   13  C   UNL     1      44.206 -17.946   2.206  1.00  0.00     0.037 A 
HETATM   14  C   UNL     1      43.492 -18.759   3.088  1.00  0.00     0.068 A 
HETATM   15  C   UNL     1      42.486 -18.195   3.869  1.00  0.00     0.037 A 
HETATM   16  C   UNL     1      42.210 -16.827   3.780  1.00  0.00     0.011 A 
BRANCH  14  17
HETATM   17  O   UNL     1      43.868 -20.075   3.091  1.00  0.00    -0.352 OA
BRANCH  17  18
HETATM   18  C   UNL     1      43.295 -20.909   2.086  1.00  0.00     0.171 C 
HETATM   19  C   UNL     1      44.346 -21.919   1.658  1.00  0.00     0.034 C 
ENDBRANCH  17  18
ENDBRANCH  14  17
ENDBRANCH   1  11
BRANCH   6  20
HETATM   20  S   UNL     1      41.449 -12.709   6.366  1.00  0.00    -0.102 SA
BRANCH  20  21
HETATM   21  C   UNL     1      41.169 -10.947   6.100  1.00  0.00     0.184 C 
BRANCH  21  22
HETATM   22  C   UNL     1      41.627 -10.164   7.319  1.00  0.00     0.231 C 
HETATM   23  N   UNL     1      41.798 -10.974   8.428  1.00  0.00    -0.327 N 
HETATM   24  H   UNL     1      41.413 -11.910   8.353  1.00  0.00     0.169 HD
HETATM   25  O   UNL     1      41.790  -8.949   7.246  1.00  0.00    -0.272 OA
BRANCH  23  26
HETATM   26  C   UNL     1      42.307 -10.625   9.691  1.00  0.00     0.034 A 
HETATM   27  C   UNL     1      43.609 -10.892  10.106  1.00  0.00     0.030 A 
HETATM   28  C   UNL     1      44.022 -10.541  11.398  1.00  0.00     0.009 A 
HETATM   29  C   UNL     1      43.139  -9.925  12.290  1.00  0.00    -0.062 A 
HETATM   30  C   UNL     1      43.595  -9.526  13.662  1.00  0.00     0.048 C 
HETATM   31  C   UNL     1      41.840  -9.638  11.864  1.00  0.00     0.009 A 
HETATM   32  C   UNL     1      41.425  -9.995  10.578  1.00  0.00     0.030 A 
ENDBRANCH  23  26
ENDBRANCH  21  22
ENDBRANCH  20  21
ENDBRANCH   6  20
BRANCH   2  33
HETATM   33  C   UNL     1      41.550 -14.258   0.525  1.00  0.00     0.255 C 
HETATM   34  N   UNL     1      41.776 -13.020  -0.049  1.00  0.00    -0.323 N 
HETATM   35  H   UNL     1      41.842 -12.231   0.581  1.00  0.00     0.169 HD
HETATM   36  O   UNL     1      41.534 -15.341  -0.042  1.00  0.00    -0.268 OA
BRANCH  34  37
HETATM   37  C   UNL     1      41.873 -12.703  -1.419  1.00  0.00     0.035 A 
HETATM   38  C   UNL     1      41.203 -13.392  -2.430  1.00  0.00     0.029 A 
HETATM   39  C   UNL     1      41.341 -12.995  -3.765  1.00  0.00     0.002 A 
HETATM   40  C   UNL     1      42.143 -11.905  -4.097  1.00  0.00     0.000 A 
HETATM   41  C   UNL     1      42.815 -11.212  -3.095  1.00  0.00     0.002 A 
HETATM   42  C   UNL     1      42.684 -11.613  -1.763  1.00  0.00     0.029 A 
ENDBRANCH  34  37
ENDBRANCH   2  33
TORSDOF 9
ENDMDL
MODEL 5
REMARK VINA RESULT:      -9.1      5.439      9.531
REMARK  9 active torsions:
REMARK  status: ('A' for Active; 'I' for Inactive)
REMARK    1  A    between atoms: C_2  and  O_3 
REMARK    2  A    between atoms: O_3  and  C_4 
REMARK    3  A    between atoms: C_7  and  C_8 
REMARK    4  A    between atoms: C_9  and  C_10 
REMARK       I    between atoms: C_10  and  N_11 
REMARK    5  A    between atoms: N_11  and  C_12 
REMARK    6  A    between atoms: C_22  and  S_23 
REMARK    7  A    between atoms: S_23  and  C_24 
REMARK    8  A    between atoms: C_24  and  C_25 
REMARK       I    between atoms: C_25  and  N_26 
REMARK    9  A    between atoms: N_26  and  C_27 
ROOT
HETATM    1  C   UNL     1      41.371 -13.805  -0.252  1.00  0.00     0.104 C 
HETATM    2  C   UNL     1      41.536 -12.304  -0.008  1.00  0.00     0.046 C 
HETATM    3  C   UNL     1      41.052 -11.729   1.119  1.00  0.00     0.019 C 
HETATM    4  C   UNL     1      40.948 -10.244   1.361  1.00  0.00     0.069 C 
HETATM    5  N   UNL     1      40.598 -12.536   2.147  1.00  0.00    -0.353 N 
HETATM    6  C   UNL     1      40.708 -13.916   2.178  1.00  0.00     0.087 C 
HETATM    7  C   UNL     1      41.063 -14.569   1.035  1.00  0.00     0.055 C 
HETATM    8  C   UNL     1      41.039 -16.088   1.018  1.00  0.00     0.019 C 
HETATM    9  N   UNL     1      41.020 -17.349   1.003  1.00  0.00    -0.096 N 
HETATM   10  H   UNL     1      40.100 -12.079   2.909  1.00  0.00     0.166 HD
ENDROOT
BRANCH   1  11
HETATM   11  C   UNL     1      40.295 -14.099  -1.300  1.00  0.00    -0.044 A 
HETATM   12  C   UNL     1      38.963 -13.729  -1.069  1.00  0.00     0.011 A 
HETATM   13  C   UNL     1      37.985 -13.964  -2.042  1.00  0.00     0.037 A 
HETATM   14  C   UNL     1      38.315 -14.563  -3.259  1.00  0.00     0.068 A 
HETATM   15  C   UNL     1      39.634 -14.947  -3.491  1.00  0.00     0.037 A 
HETATM   16  C   UNL     1      40.615 -14.716  -2.522  1.00  0.00     0.011 A 
BRANCH  14  17
HETATM   17  O   UNL     1      37.269 -14.720  -4.126  1.00  0.00    -0.352 OA
BRANCH  17  18
HETATM   18  C   UNL     1      36.427 -13.587  -4.330  1.00  0.00     0.171 C 
HETATM   19  C   UNL     1      35.230 -14.032  -5.152  1.00  0.00     0.034 C 
ENDBRANCH  17  18
ENDBRANCH  14  17
ENDBRANCH   1  11
BRANCH   6  20
HETATM   20  S   UNL     1      40.433 -14.873   3.638  1.00  0.00    -0.102 SA
BRANCH  20  21
HETATM   21  C   UNL     1      42.080 -15.326   4.217  1.00  0.00     0.184 C 
BRANCH  21  22
HETATM   22  C   UNL     1      42.168 -16.832   4.389  1.00  0.00     0.231 C 
HETATM   23  N   UNL     1      43.203 -17.384   3.653  1.00  0.00    -0.327 N 
HETATM   24  H   UNL     1      43.623 -16.774   2.959  1.00  0.00     0.169 HD
HETATM   25  O   UNL     1      41.364 -17.420   5.107  1.00  0.00    -0.272 OA
BRANCH  23  26
HETATM   26  C   UNL     1      43.651 -18.716   3.645  1.00  0.00     0.034 A 
HETATM   27  C   UNL     1      44.289 -19.329   4.721  1.00  0.00     0.030 A 
HETATM   28  C   UNL     1      44.738 -20.652   4.612  1.00  0.00     0.009 A 
HETATM   29  C   UNL     1      44.559 -21.374   3.428  1.00  0.00    -0.062 A 
HETATM   30  C   UNL     1      45.016 -22.800   3.328  1.00  0.00     0.048 C 
HETATM   31  C   UNL     1      43.900 -20.764   2.358  1.00  0.00     0.009 A 
HETATM   32  C   UNL     1      43.460 -19.443   2.463  1.00  0.00     0.030 A 
ENDBRANCH  23  26
ENDBRANCH  21  22
ENDBRANCH  20  21
ENDBRANCH   6  20
BRANCH   2  33
HETATM   33  C   UNL     1      42.290 -11.537  -1.047  1.00  0.00     0.255 C 
HETATM   34  N   UNL     1      41.454 -11.017  -2.019  1.00  0.00    -0.323 N 
HETATM   35  H   UNL     1      40.463 -11.189  -1.908  1.00  0.00     0.169 HD
HETATM   36  O   UNL     1      43.495 -11.363  -0.941  1.00  0.00    -0.268 OA
BRANCH  34  37
HETATM   37  C   UNL     1      41.814 -10.314  -3.187  1.00  0.00     0.035 A 
HETATM   38  C   UNL     1      41.999  -8.933  -3.243  1.00  0.00     0.029 A 
HETATM   39  C   UNL     1      42.377  -8.321  -4.443  1.00  0.00     0.002 A 
HETATM   40  C   UNL     1      42.578  -9.083  -5.591  1.00  0.00     0.000 A 
HETATM   41  C   UNL     1      42.396 -10.462  -5.545  1.00  0.00     0.002 A 
HETATM   42  C   UNL     1      42.010 -11.073  -4.349  1.00  0.00     0.029 A 
ENDBRANCH  34  37
ENDBRANCH   2  33
TORSDOF 9
ENDMDL
MODEL 6
REMARK VINA RESULT:      -8.9      4.175      7.853
REMARK  9 active torsions:
REMARK  status: ('A' for Active; 'I' for Inactive)
REMARK    1  A    between atoms: C_2  and  O_3 
REMARK    2  A    between atoms: O_3  and  C_4 
REMARK    3  A    between atoms: C_7  and  C_8 
REMARK    4  A    between atoms: C_9  and  C_10 
REMARK       I    between atoms: C_10  and  N_11 
REMARK    5  A    between atoms: N_11  and  C_12 
REMARK    6  A    between atoms: C_22  and  S_23 
REMARK    7  A    between atoms: S_23  and  C_24 
REMARK    8  A    between atoms: C_24  and  C_25 
REMARK       I    between atoms: C_25  and  N_26 
REMARK    9  A    between atoms: N_26  and  C_27 
ROOT
HETATM    1  C   UNL     1      41.966 -13.949   1.701  1.00  0.00     0.104 C 
HETATM    2  C   UNL     1      40.691 -13.472   1.002  1.00  0.00     0.046 C 
HETATM    3  C   UNL     1      39.624 -13.052   1.723  1.00  0.00     0.019 C 
HETATM    4  C   UNL     1      38.249 -12.783   1.164  1.00  0.00     0.069 C 
HETATM    5  N   UNL     1      39.764 -12.852   3.084  1.00  0.00    -0.353 N 
HETATM    6  C   UNL     1      40.962 -12.929   3.776  1.00  0.00     0.087 C 
HETATM    7  C   UNL     1      42.045 -13.469   3.148  1.00  0.00     0.055 C 
HETATM    8  C   UNL     1      43.319 -13.697   3.946  1.00  0.00     0.019 C 
HETATM    9  N   UNL     1      44.376 -13.886   4.606  1.00  0.00    -0.096 N 
HETATM   10  H   UNL     1      38.914 -12.689   3.619  1.00  0.00     0.166 HD
ENDROOT
BRANCH   1  11
HETATM   11  C   UNL     1      42.109 -15.472   1.651  1.00  0.00    -0.044 A 
HETATM   12  C   UNL     1      43.365 -16.058   1.443  1.00  0.00     0.011 A 
HETATM   13  C   UNL     1      43.503 -17.450   1.434  1.00  0.00     0.037 A 
HETATM   14  C   UNL     1      42.399 -18.281   1.635  1.00  0.00     0.068 A 
HETATM   15  C   UNL     1      41.145 -17.707   1.828  1.00  0.00     0.037 A 
HETATM   16  C   UNL     1      41.000 -16.316   1.838  1.00  0.00     0.011 A 
BRANCH  14  17
HETATM   17  O   UNL     1      42.675 -19.621   1.618  1.00  0.00    -0.352 OA
BRANCH  17  18
HETATM   18  C   UNL     1      43.959 -20.019   2.095  1.00  0.00     0.171 C 
HETATM   19  C   UNL     1      44.014 -21.537   2.087  1.00  0.00     0.034 C 
ENDBRANCH  17  18
ENDBRANCH  14  17
ENDBRANCH   1  11
BRANCH   6  20
HETATM   20  S   UNL     1      41.160 -12.340   5.430  1.00  0.00    -0.102 SA
BRANCH  20  21
HETATM   21  C   UNL     1      40.257 -13.516   6.456  1.00  0.00     0.184 C 
BRANCH  21  22
HETATM   22  C   UNL     1      40.605 -14.935   6.040  1.00  0.00     0.231 C 
HETATM   23  N   UNL     1      41.786 -15.374   6.614  1.00  0.00    -0.327 N 
HETATM   24  H   UNL     1      42.355 -14.657   7.053  1.00  0.00     0.169 HD
HETATM   25  O   UNL     1      39.876 -15.549   5.267  1.00  0.00    -0.272 OA
BRANCH  23  26
HETATM   26  C   UNL     1      42.364 -16.653   6.545  1.00  0.00     0.034 A 
HETATM   27  C   UNL     1      42.852 -17.348   7.650  1.00  0.00     0.030 A 
HETATM   28  C   UNL     1      43.448 -18.604   7.484  1.00  0.00     0.009 A 
HETATM   29  C   UNL     1      43.567 -19.179   6.214  1.00  0.00    -0.062 A 
HETATM   30  C   UNL     1      44.181 -20.538   6.047  1.00  0.00     0.048 C 
HETATM   31  C   UNL     1      43.058 -18.490   5.111  1.00  0.00     0.009 A 
HETATM   32  C   UNL     1      42.471 -17.234   5.275  1.00  0.00     0.030 A 
ENDBRANCH  23  26
ENDBRANCH  21  22
ENDBRANCH  20  21
ENDBRANCH   6  20
BRANCH   2  33
HETATM   33  C   UNL     1      40.715 -13.456  -0.493  1.00  0.00     0.255 C 
HETATM   34  N   UNL     1      41.154 -12.245  -0.995  1.00  0.00    -0.323 N 
HETATM   35  H   UNL     1      41.421 -11.540  -0.319  1.00  0.00     0.169 HD
HETATM   36  O   UNL     1      40.441 -14.463  -1.130  1.00  0.00    -0.268 OA
BRANCH  34  37
HETATM   37  C   UNL     1      41.228 -11.840  -2.344  1.00  0.00     0.035 A 
HETATM   38  C   UNL     1      42.413 -11.774  -3.076  1.00  0.00     0.029 A 
HETATM   39  C   UNL     1      42.391 -11.381  -4.418  1.00  0.00     0.002 A 
HETATM   40  C   UNL     1      41.186 -11.058  -5.039  1.00  0.00     0.000 A 
HETATM   41  C   UNL     1      39.999 -11.121  -4.316  1.00  0.00     0.002 A 
HETATM   42  C   UNL     1      40.021 -11.505  -2.973  1.00  0.00     0.029 A 
ENDBRANCH  34  37
ENDBRANCH   2  33
TORSDOF 9
ENDMDL
MODEL 7
REMARK VINA RESULT:      -8.6      4.129      7.716
REMARK  9 active torsions:
REMARK  status: ('A' for Active; 'I' for Inactive)
REMARK    1  A    between atoms: C_2  and  O_3 
REMARK    2  A    between atoms: O_3  and  C_4 
REMARK    3  A    between atoms: C_7  and  C_8 
REMARK    4  A    between atoms: C_9  and  C_10 
REMARK       I    between atoms: C_10  and  N_11 
REMARK    5  A    between atoms: N_11  and  C_12 
REMARK    6  A    between atoms: C_22  and  S_23 
REMARK    7  A    between atoms: S_23  and  C_24 
REMARK    8  A    between atoms: C_24  and  C_25 
REMARK       I    between atoms: C_25  and  N_26 
REMARK    9  A    between atoms: N_26  and  C_27 
ROOT
HETATM    1  C   UNL     1      42.163 -14.246   1.644  1.00  0.00     0.104 C 
HETATM    2  C   UNL     1      42.140 -15.776   1.618  1.00  0.00     0.046 C 
HETATM    3  C   UNL     1      41.227 -16.441   0.871  1.00  0.00     0.019 C 
HETATM    4  C   UNL     1      40.958 -17.923   0.944  1.00  0.00     0.069 C 
HETATM    5  N   UNL     1      40.454 -15.738  -0.036  1.00  0.00    -0.353 N 
HETATM    6  C   UNL     1      40.618 -14.397  -0.343  1.00  0.00     0.087 C 
HETATM    7  C   UNL     1      41.422 -13.638   0.455  1.00  0.00     0.055 C 
HETATM    8  C   UNL     1      41.488 -12.138   0.218  1.00  0.00     0.019 C 
HETATM    9  N   UNL     1      41.543 -10.894   0.021  1.00  0.00    -0.096 N 
HETATM   10  H   UNL     1      39.677 -16.235  -0.466  1.00  0.00     0.166 HD
ENDROOT
BRANCH   1  11
HETATM   11  C   UNL     1      41.594 -13.688   2.951  1.00  0.00    -0.044 A 
HETATM   12  C   UNL     1      40.302 -14.038   3.366  1.00  0.00     0.011 A 
HETATM   13  C   UNL     1      39.795 -13.558   4.578  1.00  0.00     0.037 A 
HETATM   14  C   UNL     1      40.563 -12.729   5.398  1.00  0.00     0.068 A 
HETATM   15  C   UNL     1      41.843 -12.365   4.986  1.00  0.00     0.037 A 
HETATM   16  C   UNL     1      42.355 -12.841   3.775  1.00  0.00     0.011 A 
BRANCH  14  17
HETATM   17  O   UNL     1      39.954 -12.345   6.561  1.00  0.00    -0.352 OA
BRANCH  17  18
HETATM   18  C   UNL     1      40.453 -11.165   7.189  1.00  0.00     0.171 C 
HETATM   19  C   UNL     1      39.538 -10.011   6.817  1.00  0.00     0.034 C 
ENDBRANCH  17  18
ENDBRANCH  14  17
ENDBRANCH   1  11
BRANCH   6  20
HETATM   20  S   UNL     1      39.851 -13.626  -1.735  1.00  0.00    -0.102 SA
BRANCH  20  21
HETATM   21  C   UNL     1      38.079 -13.812  -1.454  1.00  0.00     0.184 C 
BRANCH  21  22
HETATM   22  C   UNL     1      37.719 -13.291  -0.073  1.00  0.00     0.231 C 
HETATM   23  N   UNL     1      38.034 -11.951   0.079  1.00  0.00    -0.327 N 
HETATM   24  H   UNL     1      38.629 -11.555  -0.641  1.00  0.00     0.169 HD
HETATM   25  O   UNL     1      37.222 -14.042   0.761  1.00  0.00    -0.272 OA
BRANCH  23  26
HETATM   26  C   UNL     1      37.754 -11.110   1.170  1.00  0.00     0.034 A 
HETATM   27  C   UNL     1      38.589 -10.965   2.275  1.00  0.00     0.030 A 
HETATM   28  C   UNL     1      38.212 -10.132   3.337  1.00  0.00     0.009 A 
HETATM   29  C   UNL     1      36.997  -9.440   3.309  1.00  0.00    -0.062 A 
HETATM   30  C   UNL     1      36.613  -8.528   4.436  1.00  0.00     0.048 C 
HETATM   31  C   UNL     1      36.172  -9.571   2.190  1.00  0.00     0.009 A 
HETATM   32  C   UNL     1      36.543 -10.407   1.134  1.00  0.00     0.030 A 
ENDBRANCH  23  26
ENDBRANCH  21  22
ENDBRANCH  20  21
ENDBRANCH   6  20
BRANCH   2  33
HETATM   33  C   UNL     1      43.195 -16.473   2.417  1.00  0.00     0.255 C 
HETATM   34  N   UNL     1      42.756 -16.803   3.686  1.00  0.00    -0.323 N 
HETATM   35  H   UNL     1      41.800 -16.563   3.914  1.00  0.00     0.169 HD
HETATM   36  O   UNL     1      44.271 -16.759   1.911  1.00  0.00    -0.268 OA
BRANCH  34  37
HETATM   37  C   UNL     1      43.494 -17.388   4.734  1.00  0.00     0.035 A 
HETATM   38  C   UNL     1      43.895 -18.723   4.757  1.00  0.00     0.029 A 
HETATM   39  C   UNL     1      44.645 -19.216   5.831  1.00  0.00     0.002 A 
HETATM   40  C   UNL     1      45.003 -18.377   6.885  1.00  0.00     0.000 A 
HETATM   41  C   UNL     1      44.607 -17.044   6.870  1.00  0.00     0.002 A 
HETATM   42  C   UNL     1      43.851 -16.553   5.802  1.00  0.00     0.029 A 
ENDBRANCH  34  37
ENDBRANCH   2  33
TORSDOF 9
ENDMDL
MODEL 8
REMARK VINA RESULT:      -8.3      4.723      8.636
REMARK  9 active torsions:
REMARK  status: ('A' for Active; 'I' for Inactive)
REMARK    1  A    between atoms: C_2  and  O_3 
REMARK    2  A    between atoms: O_3  and  C_4 
REMARK    3  A    between atoms: C_7  and  C_8 
REMARK    4  A    between atoms: C_9  and  C_10 
REMARK       I    between atoms: C_10  and  N_11 
REMARK    5  A    between atoms: N_11  and  C_12 
REMARK    6  A    between atoms: C_22  and  S_23 
REMARK    7  A    between atoms: S_23  and  C_24 
REMARK    8  A    between atoms: C_24  and  C_25 
REMARK       I    between atoms: C_25  and  N_26 
REMARK    9  A    between atoms: N_26  and  C_27 
ROOT
HETATM    1  C   UNL     1      42.064 -14.198   0.902  1.00  0.00     0.104 C 
HETATM    2  C   UNL     1      42.049 -15.664   1.341  1.00  0.00     0.046 C 
HETATM    3  C   UNL     1      41.339 -16.586   0.648  1.00  0.00     0.019 C 
HETATM    4  C   UNL     1      41.061 -17.995   1.108  1.00  0.00     0.069 C 
HETATM    5  N   UNL     1      40.802 -16.241  -0.580  1.00  0.00    -0.353 N 
HETATM    6  C   UNL     1      41.033 -15.044  -1.238  1.00  0.00     0.087 C 
HETATM    7  C   UNL     1      41.625 -14.026  -0.551  1.00  0.00     0.055 C 
HETATM    8  C   UNL     1      41.744 -12.663  -1.213  1.00  0.00     0.019 C 
HETATM    9  N   UNL     1      41.845 -11.533  -1.763  1.00  0.00    -0.096 N 
HETATM   10  H   UNL     1      40.150 -16.899  -1.002  1.00  0.00     0.166 HD
ENDROOT
BRANCH   1  11
HETATM   11  C   UNL     1      41.201 -13.320   1.812  1.00  0.00    -0.044 A 
HETATM   12  C   UNL     1      41.677 -12.079   2.256  1.00  0.00     0.011 A 
HETATM   13  C   UNL     1      40.875 -11.259   3.057  1.00  0.00     0.037 A 
HETATM   14  C   UNL     1      39.589 -11.656   3.426  1.00  0.00     0.068 A 
HETATM   15  C   UNL     1      39.113 -12.895   3.002  1.00  0.00     0.037 A 
HETATM   16  C   UNL     1      39.910 -13.718   2.201  1.00  0.00     0.011 A 
BRANCH  14  17
HETATM   17  O   UNL     1      38.907 -10.755   4.198  1.00  0.00    -0.352 OA
BRANCH  17  18
HETATM   18  C   UNL     1      39.559 -10.298   5.381  1.00  0.00     0.171 C 
HETATM   19  C   UNL     1      39.562 -11.435   6.386  1.00  0.00     0.034 C 
ENDBRANCH  17  18
ENDBRANCH  14  17
ENDBRANCH   1  11
BRANCH   6  20
HETATM   20  S   UNL     1      40.617 -14.779  -2.934  1.00  0.00    -0.102 SA
BRANCH  20  21
HETATM   21  C   UNL     1      38.817 -14.670  -2.961  1.00  0.00     0.184 C 
BRANCH  21  22
HETATM   22  C   UNL     1      38.377 -13.297  -2.484  1.00  0.00     0.231 C 
HETATM   23  N   UNL     1      38.082 -13.281  -1.132  1.00  0.00    -0.327 N 
HETATM   24  H   UNL     1      37.996 -14.191  -0.690  1.00  0.00     0.169 HD
HETATM   25  O   UNL     1      38.305 -12.362  -3.277  1.00  0.00    -0.272 OA
BRANCH  23  26
HETATM   26  C   UNL     1      37.747 -12.179  -0.327  1.00  0.00     0.034 A 
HETATM   27  C   UNL     1      36.559 -12.072   0.393  1.00  0.00     0.030 A 
HETATM   28  C   UNL     1      36.291 -10.918   1.140  1.00  0.00     0.009 A 
HETATM   29  C   UNL     1      37.202  -9.858   1.174  1.00  0.00    -0.062 A 
HETATM   30  C   UNL     1      36.921  -8.637   1.999  1.00  0.00     0.048 C 
HETATM   31  C   UNL     1      38.401  -9.976   0.469  1.00  0.00     0.009 A 
HETATM   32  C   UNL     1      38.667 -11.123  -0.283  1.00  0.00     0.030 A 
ENDBRANCH  23  26
ENDBRANCH  21  22
ENDBRANCH  20  21
ENDBRANCH   6  20
BRANCH   2  33
HETATM   33  C   UNL     1      42.885 -16.014   2.530  1.00  0.00     0.255 C 
HETATM   34  N   UNL     1      42.171 -15.933   3.712  1.00  0.00    -0.323 N 
HETATM   35  H   UNL     1      41.195 -15.677   3.638  1.00  0.00     0.169 HD
HETATM   36  O   UNL     1      44.037 -16.397   2.390  1.00  0.00    -0.268 OA
BRANCH  34  37
HETATM   37  C   UNL     1      42.646 -16.111   5.027  1.00  0.00     0.035 A 
HETATM   38  C   UNL     1      43.556 -15.258   5.652  1.00  0.00     0.029 A 
HETATM   39  C   UNL     1      43.958 -15.500   6.970  1.00  0.00     0.002 A 
HETATM   40  C   UNL     1      43.450 -16.590   7.674  1.00  0.00     0.000 A 
HETATM   41  C   UNL     1      42.542 -17.446   7.058  1.00  0.00     0.002 A 
HETATM   42  C   UNL     1      42.147 -17.210   5.739  1.00  0.00     0.029 A 
ENDBRANCH  34  37
ENDBRANCH   2  33
TORSDOF 9
ENDMDL
MODEL 9
REMARK VINA RESULT:      -8.3      4.560      9.087
REMARK  9 active torsions:
REMARK  status: ('A' for Active; 'I' for Inactive)
REMARK    1  A    between atoms: C_2  and  O_3 
REMARK    2  A    between atoms: O_3  and  C_4 
REMARK    3  A    between atoms: C_7  and  C_8 
REMARK    4  A    between atoms: C_9  and  C_10 
REMARK       I    between atoms: C_10  and  N_11 
REMARK    5  A    between atoms: N_11  and  C_12 
REMARK    6  A    between atoms: C_22  and  S_23 
REMARK    7  A    between atoms: S_23  and  C_24 
REMARK    8  A    between atoms: C_24  and  C_25 
REMARK       I    between atoms: C_25  and  N_26 
REMARK    9  A    between atoms: N_26  and  C_27 
ROOT
HETATM    1  C   UNL     1      42.347 -15.200   3.804  1.00  0.00     0.104 C 
HETATM    2  C   UNL     1      41.700 -16.174   2.818  1.00  0.00     0.046 C 
HETATM    3  C   UNL     1      40.384 -16.076   2.512  1.00  0.00     0.019 C 
HETATM    4  C   UNL     1      39.590 -17.104   1.746  1.00  0.00     0.069 C 
HETATM    5  N   UNL     1      39.677 -14.961   2.924  1.00  0.00    -0.353 N 
HETATM    6  C   UNL     1      40.235 -13.850   3.536  1.00  0.00     0.087 C 
HETATM    7  C   UNL     1      41.518 -13.931   3.990  1.00  0.00     0.055 C 
HETATM    8  C   UNL     1      42.087 -12.774   4.796  1.00  0.00     0.019 C 
HETATM    9  N   UNL     1      42.560 -11.815   5.463  1.00  0.00    -0.096 N 
HETATM   10  H   UNL     1      38.665 -14.987   2.815  1.00  0.00     0.166 HD
ENDROOT
BRANCH   1  11
HETATM   11  C   UNL     1      42.611 -15.852   5.163  1.00  0.00    -0.044 A 
HETATM   12  C   UNL     1      43.897 -15.836   5.719  1.00  0.00     0.011 A 
HETATM   13  C   UNL     1      44.132 -16.399   6.978  1.00  0.00     0.037 A 
HETATM   14  C   UNL     1      43.093 -16.982   7.706  1.00  0.00     0.068 A 
HETATM   15  C   UNL     1      41.814 -17.015   7.156  1.00  0.00     0.037 A 
HETATM   16  C   UNL     1      41.574 -16.454   5.898  1.00  0.00     0.011 A 
BRANCH  14  17
HETATM   17  O   UNL     1      43.455 -17.480   8.927  1.00  0.00    -0.352 OA
BRANCH  17  18
HETATM   18  C   UNL     1      44.411 -18.539   8.932  1.00  0.00     0.171 C 
HETATM   19  C   UNL     1      43.857 -19.678   8.095  1.00  0.00     0.034 C 
ENDBRANCH  17  18
ENDBRANCH  14  17
ENDBRANCH   1  11
BRANCH   6  20
HETATM   20  S   UNL     1      39.371 -12.322   3.736  1.00  0.00    -0.102 SA
BRANCH  20  21
HETATM   21  C   UNL     1      39.403 -11.551   2.106  1.00  0.00     0.184 C 
BRANCH  21  22
HETATM   22  C   UNL     1      38.788 -12.487   1.081  1.00  0.00     0.231 C 
HETATM   23  N   UNL     1      39.558 -12.588  -0.066  1.00  0.00    -0.327 N 
HETATM   24  H   UNL     1      40.294 -11.897  -0.162  1.00  0.00     0.169 HD
HETATM   25  O   UNL     1      37.718 -13.042   1.315  1.00  0.00    -0.272 OA
BRANCH  23  26
HETATM   26  C   UNL     1      39.362 -13.430  -1.173  1.00  0.00     0.034 A 
HETATM   27  C   UNL     1      38.218 -13.420  -1.967  1.00  0.00     0.030 A 
HETATM   28  C   UNL     1      38.091 -14.323  -3.031  1.00  0.00     0.009 A 
HETATM   29  C   UNL     1      39.102 -15.248  -3.310  1.00  0.00    -0.062 A 
HETATM   30  C   UNL     1      38.972 -16.193  -4.468  1.00  0.00     0.048 C 
HETATM   31  C   UNL     1      40.257 -15.243  -2.526  1.00  0.00     0.009 A 
HETATM   32  C   UNL     1      40.381 -14.348  -1.460  1.00  0.00     0.030 A 
ENDBRANCH  23  26
ENDBRANCH  21  22
ENDBRANCH  20  21
ENDBRANCH   6  20
BRANCH   2  33
HETATM   33  C   UNL     1      42.601 -17.192   2.195  1.00  0.00     0.255 C 
HETATM   34  N   UNL     1      42.535 -18.413   2.841  1.00  0.00    -0.323 N 
HETATM   35  H   UNL     1      41.892 -18.483   3.620  1.00  0.00     0.169 HD
HETATM   36  O   UNL     1      43.233 -16.927   1.183  1.00  0.00    -0.268 OA
BRANCH  34  37
HETATM   37  C   UNL     1      43.296 -19.572   2.587  1.00  0.00     0.035 A 
HETATM   38  C   UNL     1      42.961 -20.534   1.635  1.00  0.00     0.029 A 
HETATM   39  C   UNL     1      43.787 -21.645   1.434  1.00  0.00     0.002 A 
HETATM   40  C   UNL     1      44.956 -21.799   2.178  1.00  0.00     0.000 A 
HETATM   41  C   UNL     1      45.298 -20.844   3.130  1.00  0.00     0.002 A 
HETATM   42  C   UNL     1      44.469 -19.739   3.337  1.00  0.00     0.029 A 
ENDBRANCH  34  37
ENDBRANCH   2  33
TORSDOF 9
ENDMDL
MODEL 10
REMARK VINA RESULT:      -8.1      2.740      9.311
REMARK  9 active torsions:
REMARK  status: ('A' for Active; 'I' for Inactive)
REMARK    1  A    between atoms: C_2  and  O_3 
REMARK    2  A    between atoms: O_3  and  C_4 
REMARK    3  A    between atoms: C_7  and  C_8 
REMARK    4  A    between atoms: C_9  and  C_10 
REMARK       I    between atoms: C_10  and  N_11 
REMARK    5  A    between atoms: N_11  and  C_12 
REMARK    6  A    between atoms: C_22  and  S_23 
REMARK    7  A    between atoms: S_23  and  C_24 
REMARK    8  A    between atoms: C_24  and  C_25 
REMARK       I    between atoms: C_25  and  N_26 
REMARK    9  A    between atoms: N_26  and  C_27 
ROOT
HETATM    1  C   UNL     1      41.503 -11.799   4.597  1.00  0.00     0.104 C 
HETATM    2  C   UNL     1      41.753 -13.079   5.397  1.00  0.00     0.046 C 
HETATM    3  C   UNL     1      40.936 -14.150   5.259  1.00  0.00     0.019 C 
HETATM    4  C   UNL     1      40.940 -15.367   6.151  1.00  0.00     0.069 C 
HETATM    5  N   UNL     1      40.005 -14.163   4.236  1.00  0.00    -0.353 N 
HETATM    6  C   UNL     1      39.910 -13.205   3.240  1.00  0.00     0.087 C 
HETATM    7  C   UNL     1      40.605 -12.041   3.385  1.00  0.00     0.055 C 
HETATM    8  C   UNL     1      40.390 -10.925   2.376  1.00  0.00     0.019 C 
HETATM    9  N   UNL     1      40.213 -10.000   1.539  1.00  0.00    -0.096 N 
HETATM   10  H   UNL     1      39.308 -14.905   4.253  1.00  0.00     0.166 HD
ENDROOT
BRANCH   1  11
HETATM   11  C   UNL     1      40.911 -10.687   5.467  1.00  0.00    -0.044 A 
HETATM   12  C   UNL     1      39.783 -10.935   6.261  1.00  0.00     0.011 A 
HETATM   13  C   UNL     1      39.264  -9.930   7.085  1.00  0.00     0.037 A 
HETATM   14  C   UNL     1      39.858  -8.668   7.136  1.00  0.00     0.068 A 
HETATM   15  C   UNL     1      40.971  -8.409   6.340  1.00  0.00     0.037 A 
HETATM   16  C   UNL     1      41.494  -9.409   5.514  1.00  0.00     0.011 A 
BRANCH  14  17
HETATM   17  O   UNL     1      39.260  -7.785   7.993  1.00  0.00    -0.352 OA
BRANCH  17  18
HETATM   18  C   UNL     1      38.848  -8.295   9.260  1.00  0.00     0.171 C 
HETATM   19  C   UNL     1      39.841  -7.818  10.305  1.00  0.00     0.034 C 
ENDBRANCH  17  18
ENDBRANCH  14  17
ENDBRANCH   1  11
BRANCH   6  20
HETATM   20  S   UNL     1      38.947 -13.428   1.776  1.00  0.00    -0.102 SA
BRANCH  20  21
HETATM   21  C   UNL     1      40.139 -13.868   0.496  1.00  0.00     0.184 C 
BRANCH  21  22
HETATM   22  C   UNL     1      41.327 -14.579   1.121  1.00  0.00     0.231 C 
HETATM   23  N   UNL     1      41.068 -15.917   1.365  1.00  0.00    -0.327 N 
HETATM   24  H   UNL     1      40.094 -16.196   1.294  1.00  0.00     0.169 HD
HETATM   25  O   UNL     1      42.359 -13.960   1.364  1.00  0.00    -0.272 OA
BRANCH  23  26
HETATM   26  C   UNL     1      41.952 -16.903   1.833  1.00  0.00     0.034 A 
HETATM   27  C   UNL     1      42.982 -17.450   1.071  1.00  0.00     0.030 A 
HETATM   28  C   UNL     1      43.795 -18.458   1.605  1.00  0.00     0.009 A 
HETATM   29  C   UNL     1      43.585 -18.934   2.904  1.00  0.00    -0.062 A 
HETATM   30  C   UNL     1      44.477 -19.994   3.480  1.00  0.00     0.048 C 
HETATM   31  C   UNL     1      42.565 -18.370   3.673  1.00  0.00     0.009 A 
HETATM   32  C   UNL     1      41.750 -17.370   3.138  1.00  0.00     0.030 A 
ENDBRANCH  23  26
ENDBRANCH  21  22
ENDBRANCH  20  21
ENDBRANCH   6  20
BRANCH   2  33
HETATM   33  C   UNL     1      42.955 -13.087   6.287  1.00  0.00     0.255 C 
HETATM   34  N   UNL     1      42.794 -12.266   7.388  1.00  0.00    -0.323 N 
HETATM   35  H   UNL     1      41.906 -11.788   7.475  1.00  0.00     0.169 HD
HETATM   36  O   UNL     1      43.901 -13.822   6.048  1.00  0.00    -0.268 OA
BRANCH  34  37
HETATM   37  C   UNL     1      43.738 -11.963   8.390  1.00  0.00     0.035 A 
HETATM   38  C   UNL     1      44.978 -12.589   8.511  1.00  0.00     0.029 A 
HETATM   39  C   UNL     1      45.864 -12.210   9.525  1.00  0.00     0.002 A 
HETATM   40  C   UNL     1      45.520 -11.199  10.421  1.00  0.00     0.000 A 
HETATM   41  C   UNL     1      44.284 -10.569  10.308  1.00  0.00     0.002 A 
HETATM   42  C   UNL     1      43.396 -10.953   9.301  1.00  0.00     0.029 A 
ENDBRANCH  34  37
ENDBRANCH   2  33
TORSDOF 9
ENDMDL
