MODEL 1
REMARK VINA RESULT:     -10.5      0.000      0.000
REMARK  5 active torsions:
REMARK  status: ('A' for Active; 'I' for Inactive)
REMARK    1  A    between atoms: C_4  and  N_5 
REMARK       I    between atoms: N_5  and  C_6 
REMARK    2  A    between atoms: C_6  and  C_7 
REMARK    3  A    between atoms: C_8  and  N_9 
REMARK    4  A    between atoms: N_10  and  N_11 
REMARK    5  A    between atoms: C_12  and  C_13 
ROOT
HETATM    1  C   UNL     1      40.968 -16.153   3.339  1.00  0.00     0.110 A 
HETATM    2  C   UNL     1      40.875 -16.060   1.965  1.00  0.00     0.143 A 
HETATM    3  N   UNL     1      40.555 -14.751   1.617  1.00  0.00    -0.197 N 
HETATM    4  C   UNL     1      40.341 -14.037   2.789  1.00  0.00     0.183 A 
HETATM    5  C   UNL     1      40.603 -14.893   3.858  1.00  0.00     0.125 A 
HETATM    6  N   UNL     1      40.535 -14.466   5.144  1.00  0.00    -0.242 NA
HETATM    7  C   UNL     1      40.148 -13.190   5.294  1.00  0.00     0.086 A 
HETATM    8  C   UNL     1      39.871 -12.338   4.193  1.00  0.00     0.088 A 
HETATM    9  N   UNL     1      39.972 -12.739   2.914  1.00  0.00    -0.225 NA
HETATM   10  C   UNL     1      40.018 -12.689   6.584  1.00  0.00     0.034 A 
HETATM   11  C   UNL     1      39.625 -11.370   6.819  1.00  0.00     0.002 A 
HETATM   12  C   UNL     1      39.360 -10.534   5.744  1.00  0.00     0.002 A 
HETATM   13  C   UNL     1      39.485 -11.026   4.444  1.00  0.00     0.034 A 
ENDROOT
BRANCH   1  14
HETATM   14  C   UNL     1      41.473 -17.321   4.026  1.00  0.00     0.262 C 
HETATM   15  N   UNL     1      42.750 -17.615   3.589  1.00  0.00    -0.322 N 
HETATM   16  H   UNL     1      43.187 -16.887   3.040  1.00  0.00     0.169 HD
HETATM   17  O   UNL     1      40.774 -17.975   4.787  1.00  0.00    -0.267 OA
BRANCH  15  18
HETATM   18  C   UNL     1      43.412 -18.860   3.593  1.00  0.00     0.041 A 
HETATM   19  C   UNL     1      43.302 -19.771   2.535  1.00  0.00     0.037 A 
HETATM   20  C   UNL     1      44.070 -20.945   2.506  1.00  0.00    -0.060 A 
HETATM   21  C   UNL     1      43.987 -21.864   1.322  1.00  0.00     0.048 C 
HETATM   22  C   UNL     1      44.958 -21.207   3.550  1.00  0.00     0.007 A 
HETATM   23  C   UNL     1      45.059 -20.323   4.622  1.00  0.00     0.009 A 
HETATM   24  C   UNL     1      44.291 -19.148   4.661  1.00  0.00    -0.035 A 
HETATM   25  C   UNL     1      44.467 -18.219   5.834  1.00  0.00     0.050 C 
ENDBRANCH  15  18
ENDBRANCH   1  14
BRANCH   2  26
HETATM   26  N   UNL     1      41.121 -16.987   1.002  1.00  0.00    -0.383 N 
HETATM   27  H   UNL     1      41.730 -16.768   0.215  1.00  0.00     0.157 HD
HETATM   28  H   UNL     1      41.161 -17.969   1.287  1.00  0.00     0.157 HD
ENDBRANCH   2  26
BRANCH   3  29
HETATM   29  N   UNL     1      40.547 -14.383   0.299  1.00  0.00    -0.176 NA
HETATM   30  C   UNL     1      41.525 -13.665  -0.132  1.00  0.00     0.153 C 
BRANCH  30  31
HETATM   31  C   UNL     1      41.572 -13.401  -1.559  1.00  0.00     0.011 A 
HETATM   32  C   UNL     1      41.931 -12.180  -2.216  1.00  0.00     0.004 A 
HETATM   33  C   UNL     1      41.913 -12.425  -3.591  1.00  0.00     0.043 A 
HETATM   34  C   UNL     1      42.296 -10.892  -1.771  1.00  0.00     0.014 A 
HETATM   35  C   UNL     1      42.245 -11.453  -4.541  1.00  0.00     0.030 A 
HETATM   36  N   UNL     1      41.536 -13.735  -3.766  1.00  0.00    -0.364 N 
HETATM   37  C   UNL     1      42.603 -10.186  -4.073  1.00  0.00     0.002 A 
HETATM   38  C   UNL     1      42.627  -9.906  -2.710  1.00  0.00     0.001 A 
HETATM   39  H   UNL     1      41.444 -14.191  -4.664  1.00  0.00     0.165 HD
HETATM   40  C   UNL     1      41.330 -14.332  -2.555  1.00  0.00     0.102 A 
ENDBRANCH  30  31
ENDBRANCH   3  29
TORSDOF 5
ENDMDL
MODEL 2
REMARK VINA RESULT:     -10.4      3.507      7.610
REMARK  5 active torsions:
REMARK  status: ('A' for Active; 'I' for Inactive)
REMARK    1  A    between atoms: C_4  and  N_5 
REMARK       I    between atoms: N_5  and  C_6 
REMARK    2  A    between atoms: C_6  and  C_7 
REMARK    3  A    between atoms: C_8  and  N_9 
REMARK    4  A    between atoms: N_10  and  N_11 
REMARK    5  A    between atoms: C_12  and  C_13 
ROOT
HETATM    1  C   UNL     1      42.457 -14.911   5.218  1.00  0.00     0.110 A 
HETATM    2  C   UNL     1      42.770 -13.875   6.075  1.00  0.00     0.143 A 
HETATM    3  N   UNL     1      41.914 -12.806   5.828  1.00  0.00    -0.197 N 
HETATM    4  C   UNL     1      41.124 -13.133   4.734  1.00  0.00     0.183 A 
HETATM    5  C   UNL     1      41.447 -14.436   4.356  1.00  0.00     0.125 A 
HETATM    6  N   UNL     1      40.798 -15.064   3.343  1.00  0.00    -0.242 NA
HETATM    7  C   UNL     1      39.877 -14.315   2.716  1.00  0.00     0.086 A 
HETATM    8  C   UNL     1      39.573 -12.985   3.105  1.00  0.00     0.088 A 
HETATM    9  N   UNL     1      40.183 -12.367   4.132  1.00  0.00    -0.225 NA
HETATM   10  C   UNL     1      39.195 -14.876   1.642  1.00  0.00     0.034 A 
HETATM   11  C   UNL     1      38.220 -14.162   0.943  1.00  0.00     0.002 A 
HETATM   12  C   UNL     1      37.918 -12.864   1.327  1.00  0.00     0.002 A 
HETATM   13  C   UNL     1      38.597 -12.289   2.402  1.00  0.00     0.034 A 
ENDROOT
BRANCH   1  14
HETATM   14  C   UNL     1      43.019 -16.239   5.334  1.00  0.00     0.262 C 
HETATM   15  N   UNL     1      43.639 -16.597   4.151  1.00  0.00    -0.322 N 
HETATM   16  H   UNL     1      43.774 -15.838   3.498  1.00  0.00     0.169 HD
HETATM   17  O   UNL     1      42.836 -16.935   6.322  1.00  0.00    -0.267 OA
BRANCH  15  18
HETATM   18  C   UNL     1      43.874 -17.891   3.643  1.00  0.00     0.041 A 
HETATM   19  C   UNL     1      44.352 -18.936   4.444  1.00  0.00     0.037 A 
HETATM   20  C   UNL     1      44.455 -20.243   3.945  1.00  0.00    -0.060 A 
HETATM   21  C   UNL     1      44.899 -21.355   4.850  1.00  0.00     0.048 C 
HETATM   22  C   UNL     1      44.076 -20.504   2.628  1.00  0.00     0.007 A 
HETATM   23  C   UNL     1      43.623 -19.471   1.812  1.00  0.00     0.009 A 
HETATM   24  C   UNL     1      43.521 -18.159   2.301  1.00  0.00    -0.035 A 
HETATM   25  C   UNL     1      42.997 -17.090   1.377  1.00  0.00     0.050 C 
ENDBRANCH  15  18
ENDBRANCH   1  14
BRANCH   2  26
HETATM   26  N   UNL     1      43.671 -13.816   7.091  1.00  0.00    -0.383 N 
HETATM   27  H   UNL     1      43.365 -13.624   8.044  1.00  0.00     0.157 HD
HETATM   28  H   UNL     1      44.485 -14.433   7.041  1.00  0.00     0.157 HD
ENDBRANCH   2  26
BRANCH   3  29
HETATM   29  N   UNL     1      41.942 -11.713   6.652  1.00  0.00    -0.176 NA
HETATM   30  C   UNL     1      40.951 -11.540   7.456  1.00  0.00     0.153 C 
BRANCH  30  31
HETATM   31  C   UNL     1      41.062 -10.456   8.417  1.00  0.00     0.011 A 
HETATM   32  C   UNL     1      41.893 -10.395   9.581  1.00  0.00     0.004 A 
HETATM   33  C   UNL     1      41.726  -9.129  10.147  1.00  0.00     0.043 A 
HETATM   34  C   UNL     1      42.795 -11.289  10.197  1.00  0.00     0.014 A 
HETATM   35  C   UNL     1      42.415  -8.710  11.290  1.00  0.00     0.030 A 
HETATM   36  N   UNL     1      40.812  -8.455   9.373  1.00  0.00    -0.364 N 
HETATM   37  C   UNL     1      43.303  -9.615  11.879  1.00  0.00     0.002 A 
HETATM   38  C   UNL     1      43.490 -10.886  11.345  1.00  0.00     0.001 A 
HETATM   39  H   UNL     1      40.503  -7.507   9.544  1.00  0.00     0.165 HD
HETATM   40  C   UNL     1      40.408  -9.239   8.331  1.00  0.00     0.102 A 
ENDBRANCH  30  31
ENDBRANCH   3  29
TORSDOF 5
ENDMDL
MODEL 3
REMARK VINA RESULT:     -10.3      2.203      8.540
REMARK  5 active torsions:
REMARK  status: ('A' for Active; 'I' for Inactive)
REMARK    1  A    between atoms: C_4  and  N_5 
REMARK       I    between atoms: N_5  and  C_6 
REMARK    2  A    between atoms: C_6  and  C_7 
REMARK    3  A    between atoms: C_8  and  N_9 
REMARK    4  A    between atoms: N_10  and  N_11 
REMARK    5  A    between atoms: C_12  and  C_13 
ROOT
HETATM    1  C   UNL     1      41.372 -15.029   0.433  1.00  0.00     0.110 A 
HETATM    2  C   UNL     1      42.054 -16.150   0.863  1.00  0.00     0.143 A 
HETATM    3  N   UNL     1      41.890 -16.284   2.239  1.00  0.00    -0.197 N 
HETATM    4  C   UNL     1      41.185 -15.177   2.695  1.00  0.00     0.183 A 
HETATM    5  C   UNL     1      40.854 -14.401   1.584  1.00  0.00     0.125 A 
HETATM    6  N   UNL     1      40.109 -13.273   1.702  1.00  0.00    -0.242 NA
HETATM    7  C   UNL     1      39.775 -12.948   2.961  1.00  0.00     0.086 A 
HETATM    8  C   UNL     1      40.135 -13.743   4.080  1.00  0.00     0.088 A 
HETATM    9  N   UNL     1      40.839 -14.883   3.972  1.00  0.00    -0.225 NA
HETATM   10  C   UNL     1      39.043 -11.784   3.168  1.00  0.00     0.034 A 
HETATM   11  C   UNL     1      38.654 -11.384   4.447  1.00  0.00     0.002 A 
HETATM   12  C   UNL     1      39.000 -12.163   5.541  1.00  0.00     0.002 A 
HETATM   13  C   UNL     1      39.736 -13.333   5.347  1.00  0.00     0.034 A 
ENDROOT
BRANCH   1  14
HETATM   14  C   UNL     1      41.173 -14.704  -0.962  1.00  0.00     0.262 C 
HETATM   15  N   UNL     1      40.948 -13.348  -1.106  1.00  0.00    -0.322 N 
HETATM   16  H   UNL     1      41.152 -12.796  -0.285  1.00  0.00     0.169 HD
HETATM   17  O   UNL     1      41.109 -15.568  -1.824  1.00  0.00    -0.267 OA
BRANCH  15  18
HETATM   18  C   UNL     1      40.252 -12.681  -2.135  1.00  0.00     0.041 A 
HETATM   19  C   UNL     1      38.861 -12.521  -2.118  1.00  0.00     0.037 A 
HETATM   20  C   UNL     1      38.208 -11.744  -3.087  1.00  0.00    -0.060 A 
HETATM   21  C   UNL     1      36.725 -11.529  -2.998  1.00  0.00     0.048 C 
HETATM   22  C   UNL     1      38.960 -11.122  -4.085  1.00  0.00     0.007 A 
HETATM   23  C   UNL     1      40.342 -11.293  -4.129  1.00  0.00     0.009 A 
HETATM   24  C   UNL     1      41.002 -12.072  -3.166  1.00  0.00    -0.035 A 
HETATM   25  C   UNL     1      42.501 -12.196  -3.253  1.00  0.00     0.050 C 
ENDBRANCH  15  18
ENDBRANCH   1  14
BRANCH   2  26
HETATM   26  N   UNL     1      42.729 -17.095   0.155  1.00  0.00    -0.383 N 
HETATM   27  H   UNL     1      43.381 -16.825  -0.579  1.00  0.00     0.157 HD
HETATM   28  H   UNL     1      42.997 -17.952   0.644  1.00  0.00     0.157 HD
ENDBRANCH   2  26
BRANCH   3  29
HETATM   29  N   UNL     1      42.359 -17.403   2.871  1.00  0.00    -0.176 NA
HETATM   30  C   UNL     1      43.551 -17.363   3.358  1.00  0.00     0.153 C 
BRANCH  30  31
HETATM   31  C   UNL     1      43.981 -18.506   4.144  1.00  0.00     0.011 A 
HETATM   32  C   UNL     1      44.143 -19.861   3.709  1.00  0.00     0.004 A 
HETATM   33  C   UNL     1      44.654 -20.587   4.787  1.00  0.00     0.043 A 
HETATM   34  C   UNL     1      43.926 -20.538   2.490  1.00  0.00     0.014 A 
HETATM   35  C   UNL     1      44.964 -21.949   4.708  1.00  0.00     0.030 A 
HETATM   36  N   UNL     1      44.778 -19.716   5.843  1.00  0.00    -0.364 N 
HETATM   37  C   UNL     1      44.740 -22.595   3.489  1.00  0.00     0.002 A 
HETATM   38  C   UNL     1      44.227 -21.903   2.396  1.00  0.00     0.001 A 
HETATM   39  H   UNL     1      45.132 -19.967   6.757  1.00  0.00     0.165 HD
HETATM   40  C   UNL     1      44.379 -18.464   5.470  1.00  0.00     0.102 A 
ENDBRANCH  30  31
ENDBRANCH   3  29
TORSDOF 5
ENDMDL
MODEL 4
REMARK VINA RESULT:     -10.3      1.739      2.541
REMARK  5 active torsions:
REMARK  status: ('A' for Active; 'I' for Inactive)
REMARK    1  A    between atoms: C_4  and  N_5 
REMARK       I    between atoms: N_5  and  C_6 
REMARK    2  A    between atoms: C_6  and  C_7 
REMARK    3  A    between atoms: C_8  and  N_9 
REMARK    4  A    between atoms: N_10  and  N_11 
REMARK    5  A    between atoms: C_12  and  C_13 
ROOT
HETATM    1  C   UNL     1      41.627 -16.025   1.254  1.00  0.00     0.110 A 
HETATM    2  C   UNL     1      41.135 -15.643   0.022  1.00  0.00     0.143 A 
HETATM    3  N   UNL     1      40.353 -14.502   0.177  1.00  0.00    -0.197 N 
HETATM    4  C   UNL     1      40.265 -14.225   1.536  1.00  0.00     0.183 A 
HETATM    5  C   UNL     1      41.056 -15.156   2.208  1.00  0.00     0.125 A 
HETATM    6  N   UNL     1      41.220 -15.110   3.554  1.00  0.00    -0.242 NA
HETATM    7  C   UNL     1      40.522 -14.145   4.172  1.00  0.00     0.086 A 
HETATM    8  C   UNL     1      39.710 -13.215   3.472  1.00  0.00     0.088 A 
HETATM    9  N   UNL     1      39.571 -13.228   2.135  1.00  0.00    -0.225 NA
HETATM   10  C   UNL     1      40.608 -14.056   5.557  1.00  0.00     0.034 A 
HETATM   11  C   UNL     1      39.916 -13.076   6.271  1.00  0.00     0.002 A 
HETATM   12  C   UNL     1      39.127 -12.163   5.587  1.00  0.00     0.002 A 
HETATM   13  C   UNL     1      39.032 -12.242   4.197  1.00  0.00     0.034 A 
ENDROOT
BRANCH   1  14
HETATM   14  C   UNL     1      42.629 -17.054   1.429  1.00  0.00     0.262 C 
HETATM   15  N   UNL     1      42.425 -17.717   2.624  1.00  0.00    -0.322 N 
HETATM   16  H   UNL     1      41.536 -17.529   3.066  1.00  0.00     0.169 HD
HETATM   17  O   UNL     1      43.562 -17.185   0.650  1.00  0.00    -0.267 OA
BRANCH  15  18
HETATM   18  C   UNL     1      43.368 -18.406   3.414  1.00  0.00     0.041 A 
HETATM   19  C   UNL     1      43.905 -17.862   4.587  1.00  0.00     0.037 A 
HETATM   20  C   UNL     1      44.742 -18.617   5.422  1.00  0.00    -0.060 A 
HETATM   21  C   UNL     1      45.240 -18.031   6.710  1.00  0.00     0.048 C 
HETATM   22  C   UNL     1      45.045 -19.934   5.073  1.00  0.00     0.007 A 
HETATM   23  C   UNL     1      44.540 -20.481   3.896  1.00  0.00     0.009 A 
HETATM   24  C   UNL     1      43.704 -19.730   3.054  1.00  0.00    -0.035 A 
HETATM   25  C   UNL     1      43.167 -20.388   1.810  1.00  0.00     0.050 C 
ENDBRANCH  15  18
ENDBRANCH   1  14
BRANCH   2  26
HETATM   26  N   UNL     1      41.375 -16.150  -1.216  1.00  0.00    -0.383 N 
HETATM   27  H   UNL     1      40.616 -16.262  -1.886  1.00  0.00     0.157 HD
HETATM   28  H   UNL     1      42.275 -15.934  -1.652  1.00  0.00     0.157 HD
ENDBRANCH   2  26
BRANCH   3  29
HETATM   29  N   UNL     1      39.873 -13.856  -0.929  1.00  0.00    -0.176 NA
HETATM   30  C   UNL     1      40.471 -12.779  -1.304  1.00  0.00     0.153 C 
BRANCH  30  31
HETATM   31  C   UNL     1      40.036 -12.183  -2.556  1.00  0.00     0.011 A 
HETATM   32  C   UNL     1      40.807 -11.397  -3.471  1.00  0.00     0.004 A 
HETATM   33  C   UNL     1      39.993 -11.117  -4.570  1.00  0.00     0.043 A 
HETATM   34  C   UNL     1      42.134 -10.917  -3.481  1.00  0.00     0.014 A 
HETATM   35  C   UNL     1      40.436 -10.387  -5.678  1.00  0.00     0.030 A 
HETATM   36  N   UNL     1      38.767 -11.688  -4.324  1.00  0.00    -0.364 N 
HETATM   37  C   UNL     1      41.755  -9.924  -5.663  1.00  0.00     0.002 A 
HETATM   38  C   UNL     1      42.592 -10.181  -4.582  1.00  0.00     0.001 A 
HETATM   39  H   UNL     1      37.979 -11.650  -4.957  1.00  0.00     0.165 HD
HETATM   40  C   UNL     1      38.780 -12.332  -3.121  1.00  0.00     0.102 A 
ENDBRANCH  30  31
ENDBRANCH   3  29
TORSDOF 5
ENDMDL
MODEL 5
REMARK VINA RESULT:     -10.0      2.089      6.652
REMARK  5 active torsions:
REMARK  status: ('A' for Active; 'I' for Inactive)
REMARK    1  A    between atoms: C_4  and  N_5 
REMARK       I    between atoms: N_5  and  C_6 
REMARK    2  A    between atoms: C_6  and  C_7 
REMARK    3  A    between atoms: C_8  and  N_9 
REMARK    4  A    between atoms: N_10  and  N_11 
REMARK    5  A    between atoms: C_12  and  C_13 
ROOT
HETATM    1  C   UNL     1      42.105 -15.478   4.144  1.00  0.00     0.110 A 
HETATM    2  C   UNL     1      41.963 -14.315   4.875  1.00  0.00     0.143 A 
HETATM    3  N   UNL     1      41.455 -13.317   4.049  1.00  0.00    -0.197 N 
HETATM    4  C   UNL     1      41.376 -13.827   2.759  1.00  0.00     0.183 A 
HETATM    5  C   UNL     1      41.768 -15.165   2.811  1.00  0.00     0.125 A 
HETATM    6  N   UNL     1      41.741 -15.956   1.709  1.00  0.00    -0.242 NA
HETATM    7  C   UNL     1      41.368 -15.335   0.580  1.00  0.00     0.086 A 
HETATM    8  C   UNL     1      40.988 -13.969   0.544  1.00  0.00     0.088 A 
HETATM    9  N   UNL     1      40.973 -13.186   1.636  1.00  0.00    -0.225 NA
HETATM   10  C   UNL     1      41.352 -16.071  -0.600  1.00  0.00     0.034 A 
HETATM   11  C   UNL     1      40.970 -15.496  -1.814  1.00  0.00     0.002 A 
HETATM   12  C   UNL     1      40.592 -14.162  -1.849  1.00  0.00     0.002 A 
HETATM   13  C   UNL     1      40.605 -13.413  -0.671  1.00  0.00     0.034 A 
ENDROOT
BRANCH   1  14
HETATM   14  C   UNL     1      42.424 -16.758   4.738  1.00  0.00     0.262 C 
HETATM   15  N   UNL     1      43.524 -17.311   4.110  1.00  0.00    -0.322 N 
HETATM   16  H   UNL     1      44.030 -16.677   3.508  1.00  0.00     0.169 HD
HETATM   17  O   UNL     1      41.711 -17.271   5.588  1.00  0.00    -0.267 OA
BRANCH  15  18
HETATM   18  C   UNL     1      43.878 -18.672   4.004  1.00  0.00     0.041 A 
HETATM   19  C   UNL     1      43.559 -19.444   2.880  1.00  0.00     0.037 A 
HETATM   20  C   UNL     1      44.033 -20.757   2.743  1.00  0.00    -0.060 A 
HETATM   21  C   UNL     1      43.738 -21.532   1.492  1.00  0.00     0.048 C 
HETATM   22  C   UNL     1      44.835 -21.302   3.747  1.00  0.00     0.007 A 
HETATM   23  C   UNL     1      45.139 -20.555   4.882  1.00  0.00     0.009 A 
HETATM   24  C   UNL     1      44.665 -19.242   5.029  1.00  0.00    -0.035 A 
HETATM   25  C   UNL     1      45.052 -18.477   6.268  1.00  0.00     0.050 C 
ENDBRANCH  15  18
ENDBRANCH   1  14
BRANCH   2  26
HETATM   26  N   UNL     1      42.160 -14.078   6.199  1.00  0.00    -0.383 N 
HETATM   27  H   UNL     1      42.198 -14.850   6.863  1.00  0.00     0.157 HD
HETATM   28  H   UNL     1      42.756 -13.288   6.457  1.00  0.00     0.157 HD
ENDBRANCH   2  26
BRANCH   3  29
HETATM   29  N   UNL     1      41.098 -12.110   4.586  1.00  0.00    -0.176 NA
HETATM   30  C   UNL     1      39.847 -11.895   4.803  1.00  0.00     0.153 C 
BRANCH  30  31
HETATM   31  C   UNL     1      39.498 -10.669   5.499  1.00  0.00     0.011 A 
HETATM   32  C   UNL     1      39.406 -10.456   6.913  1.00  0.00     0.004 A 
HETATM   33  C   UNL     1      39.124  -9.103   7.114  1.00  0.00     0.043 A 
HETATM   34  C   UNL     1      39.560 -11.283   8.046  1.00  0.00     0.014 A 
HETATM   35  C   UNL     1      38.994  -8.534   8.385  1.00  0.00     0.030 A 
HETATM   36  N   UNL     1      39.026  -8.519   5.873  1.00  0.00    -0.364 N 
HETATM   37  C   UNL     1      39.153  -9.375   9.490  1.00  0.00     0.002 A 
HETATM   38  C   UNL     1      39.428 -10.729   9.326  1.00  0.00     0.001 A 
HETATM   39  H   UNL     1      38.835  -7.539   5.713  1.00  0.00     0.165 HD
HETATM   40  C   UNL     1      39.250  -9.447   4.897  1.00  0.00     0.102 A 
ENDBRANCH  30  31
ENDBRANCH   3  29
TORSDOF 5
ENDMDL
MODEL 6
REMARK VINA RESULT:     -10.0      2.401      8.425
REMARK  5 active torsions:
REMARK  status: ('A' for Active; 'I' for Inactive)
REMARK    1  A    between atoms: C_4  and  N_5 
REMARK       I    between atoms: N_5  and  C_6 
REMARK    2  A    between atoms: C_6  and  C_7 
REMARK    3  A    between atoms: C_8  and  N_9 
REMARK    4  A    between atoms: N_10  and  N_11 
REMARK    5  A    between atoms: C_12  and  C_13 
ROOT
HETATM    1  C   UNL     1      41.018 -14.557   0.786  1.00  0.00     0.110 A 
HETATM    2  C   UNL     1      41.721 -15.725   1.003  1.00  0.00     0.143 A 
HETATM    3  N   UNL     1      41.744 -15.997   2.368  1.00  0.00    -0.197 N 
HETATM    4  C   UNL     1      41.140 -14.932   3.026  1.00  0.00     0.183 A 
HETATM    5  C   UNL     1      40.681 -14.043   2.055  1.00  0.00     0.125 A 
HETATM    6  N   UNL     1      39.992 -12.922   2.387  1.00  0.00    -0.242 NA
HETATM    7  C   UNL     1      39.844 -12.723   3.706  1.00  0.00     0.086 A 
HETATM    8  C   UNL     1      40.331 -13.633   4.680  1.00  0.00     0.088 A 
HETATM    9  N   UNL     1      40.982 -14.765   4.361  1.00  0.00    -0.225 NA
HETATM   10  C   UNL     1      39.181 -11.576   4.127  1.00  0.00     0.034 A 
HETATM   11  C   UNL     1      38.983 -11.302   5.481  1.00  0.00     0.002 A 
HETATM   12  C   UNL     1      39.454 -12.194   6.434  1.00  0.00     0.002 A 
HETATM   13  C   UNL     1      40.122 -13.348   6.024  1.00  0.00     0.034 A 
ENDROOT
BRANCH   1  14
HETATM   14  C   UNL     1      40.638 -14.089  -0.529  1.00  0.00     0.262 C 
HETATM   15  N   UNL     1      40.132 -12.805  -0.447  1.00  0.00    -0.322 N 
HETATM   16  H   UNL     1      40.291 -12.344   0.438  1.00  0.00     0.169 HD
HETATM   17  O   UNL     1      40.675 -14.817  -1.510  1.00  0.00    -0.267 OA
BRANCH  15  18
HETATM   18  C   UNL     1      39.230 -12.163  -1.320  1.00  0.00     0.041 A 
HETATM   19  C   UNL     1      39.637 -11.595  -2.533  1.00  0.00     0.037 A 
HETATM   20  C   UNL     1      38.702 -11.075  -3.441  1.00  0.00    -0.060 A 
HETATM   21  C   UNL     1      39.162 -10.543  -4.767  1.00  0.00     0.048 C 
HETATM   22  C   UNL     1      37.343 -11.126  -3.126  1.00  0.00     0.007 A 
HETATM   23  C   UNL     1      36.925 -11.664  -1.911  1.00  0.00     0.009 A 
HETATM   24  C   UNL     1      37.855 -12.182  -0.996  1.00  0.00    -0.035 A 
HETATM   25  C   UNL     1      37.338 -12.776   0.289  1.00  0.00     0.050 C 
ENDBRANCH  15  18
ENDBRANCH   1  14
BRANCH   2  26
HETATM   26  N   UNL     1      42.265 -16.603   0.118  1.00  0.00    -0.383 N 
HETATM   27  H   UNL     1      43.247 -16.864   0.185  1.00  0.00     0.157 HD
HETATM   28  H   UNL     1      41.666 -17.353  -0.236  1.00  0.00     0.157 HD
ENDBRANCH   2  26
BRANCH   3  29
HETATM   29  N   UNL     1      42.264 -17.181   2.814  1.00  0.00    -0.176 NA
HETATM   30  C   UNL     1      43.452 -17.167   3.311  1.00  0.00     0.153 C 
BRANCH  30  31
HETATM   31  C   UNL     1      43.935 -18.402   3.904  1.00  0.00     0.011 A 
HETATM   32  C   UNL     1      43.999 -19.700   3.303  1.00  0.00     0.004 A 
HETATM   33  C   UNL     1      44.610 -20.556   4.222  1.00  0.00     0.043 A 
HETATM   34  C   UNL     1      43.617 -20.226   2.051  1.00  0.00     0.014 A 
HETATM   35  C   UNL     1      44.863 -21.905   3.953  1.00  0.00     0.030 A 
HETATM   36  N   UNL     1      44.886 -19.815   5.347  1.00  0.00    -0.364 N 
HETATM   37  C   UNL     1      44.476 -22.400   2.704  1.00  0.00     0.002 A 
HETATM   38  C   UNL     1      43.860 -21.576   1.767  1.00  0.00     0.001 A 
HETATM   39  H   UNL     1      45.337 -20.178   6.177  1.00  0.00     0.165 HD
HETATM   40  C   UNL     1      44.488 -18.522   5.168  1.00  0.00     0.102 A 
ENDBRANCH  30  31
ENDBRANCH   3  29
TORSDOF 5
ENDMDL
MODEL 7
REMARK VINA RESULT:      -9.9      3.046      6.996
REMARK  5 active torsions:
REMARK  status: ('A' for Active; 'I' for Inactive)
REMARK    1  A    between atoms: C_4  and  N_5 
REMARK       I    between atoms: N_5  and  C_6 
REMARK    2  A    between atoms: C_6  and  C_7 
REMARK    3  A    between atoms: C_8  and  N_9 
REMARK    4  A    between atoms: N_10  and  N_11 
REMARK    5  A    between atoms: C_12  and  C_13 
ROOT
HETATM    1  C   UNL     1      42.381 -15.302   3.318  1.00  0.00     0.110 A 
HETATM    2  C   UNL     1      42.650 -14.746   4.553  1.00  0.00     0.143 A 
HETATM    3  N   UNL     1      41.677 -13.797   4.847  1.00  0.00    -0.197 N 
HETATM    4  C   UNL     1      40.846 -13.677   3.740  1.00  0.00     0.183 A 
HETATM    5  C   UNL     1      41.269 -14.610   2.794  1.00  0.00     0.125 A 
HETATM    6  N   UNL     1      40.614 -14.775   1.617  1.00  0.00    -0.242 NA
HETATM    7  C   UNL     1      39.581 -13.940   1.426  1.00  0.00     0.086 A 
HETATM    8  C   UNL     1      39.175 -12.987   2.395  1.00  0.00     0.088 A 
HETATM    9  N   UNL     1      39.792 -12.841   3.580  1.00  0.00    -0.225 NA
HETATM   10  C   UNL     1      38.882 -14.022   0.227  1.00  0.00     0.034 A 
HETATM   11  C   UNL     1      37.793 -13.192  -0.043  1.00  0.00     0.002 A 
HETATM   12  C   UNL     1      37.392 -12.263   0.907  1.00  0.00     0.002 A 
HETATM   13  C   UNL     1      38.086 -12.170   2.114  1.00  0.00     0.034 A 
ENDROOT
BRANCH   1  14
HETATM   14  C   UNL     1      43.080 -16.454   2.792  1.00  0.00     0.262 C 
HETATM   15  N   UNL     1      42.578 -17.612   3.356  1.00  0.00    -0.322 N 
HETATM   16  H   UNL     1      41.711 -17.494   3.863  1.00  0.00     0.169 HD
HETATM   17  O   UNL     1      44.044 -16.342   2.049  1.00  0.00    -0.267 OA
BRANCH  15  18
HETATM   18  C   UNL     1      43.224 -18.853   3.529  1.00  0.00     0.041 A 
HETATM   19  C   UNL     1      43.374 -19.772   2.483  1.00  0.00     0.037 A 
HETATM   20  C   UNL     1      44.132 -20.942   2.647  1.00  0.00    -0.060 A 
HETATM   21  C   UNL     1      44.338 -21.869   1.485  1.00  0.00     0.048 C 
HETATM   22  C   UNL     1      44.744 -21.192   3.876  1.00  0.00     0.007 A 
HETATM   23  C   UNL     1      44.582 -20.300   4.934  1.00  0.00     0.009 A 
HETATM   24  C   UNL     1      43.822 -19.130   4.779  1.00  0.00    -0.035 A 
HETATM   25  C   UNL     1      43.708 -18.192   5.952  1.00  0.00     0.050 C 
ENDBRANCH  15  18
ENDBRANCH   1  14
BRANCH   2  26
HETATM   26  N   UNL     1      43.612 -15.053   5.464  1.00  0.00    -0.383 N 
HETATM   27  H   UNL     1      44.575 -14.755   5.320  1.00  0.00     0.157 HD
HETATM   28  H   UNL     1      43.338 -15.088   6.449  1.00  0.00     0.157 HD
ENDBRANCH   2  26
BRANCH   3  29
HETATM   29  N   UNL     1      41.655 -13.211   6.084  1.00  0.00    -0.176 NA
HETATM   30  C   UNL     1      42.098 -12.006   6.187  1.00  0.00     0.153 C 
BRANCH  30  31
HETATM   31  C   UNL     1      41.939 -11.353   7.475  1.00  0.00     0.011 A 
HETATM   32  C   UNL     1      42.891 -11.270   8.542  1.00  0.00     0.004 A 
HETATM   33  C   UNL     1      42.329 -10.475   9.542  1.00  0.00     0.043 A 
HETATM   34  C   UNL     1      44.194 -11.775   8.742  1.00  0.00     0.014 A 
HETATM   35  C   UNL     1      43.000 -10.156  10.728  1.00  0.00     0.030 A 
HETATM   36  N   UNL     1      41.075 -10.107   9.114  1.00  0.00    -0.364 N 
HETATM   37  C   UNL     1      44.289 -10.669  10.900  1.00  0.00     0.002 A 
HETATM   38  C   UNL     1      44.878 -11.469   9.925  1.00  0.00     0.001 A 
HETATM   39  H   UNL     1      40.438  -9.521   9.637  1.00  0.00     0.165 HD
HETATM   40  C   UNL     1      40.831 -10.626   7.875  1.00  0.00     0.102 A 
ENDBRANCH  30  31
ENDBRANCH   3  29
TORSDOF 5
ENDMDL
MODEL 8
REMARK VINA RESULT:      -9.9      2.240      6.273
REMARK  5 active torsions:
REMARK  status: ('A' for Active; 'I' for Inactive)
REMARK    1  A    between atoms: C_4  and  N_5 
REMARK       I    between atoms: N_5  and  C_6 
REMARK    2  A    between atoms: C_6  and  C_7 
REMARK    3  A    between atoms: C_8  and  N_9 
REMARK    4  A    between atoms: N_10  and  N_11 
REMARK    5  A    between atoms: C_12  and  C_13 
ROOT
HETATM    1  C   UNL     1      42.027 -16.196   4.322  1.00  0.00     0.110 A 
HETATM    2  C   UNL     1      41.833 -15.204   5.263  1.00  0.00     0.143 A 
HETATM    3  N   UNL     1      41.290 -14.085   4.639  1.00  0.00    -0.197 N 
HETATM    4  C   UNL     1      41.241 -14.337   3.274  1.00  0.00     0.183 A 
HETATM    5  C   UNL     1      41.687 -15.643   3.070  1.00  0.00     0.125 A 
HETATM    6  N   UNL     1      41.702 -16.205   1.836  1.00  0.00    -0.242 NA
HETATM    7  C   UNL     1      41.311 -15.391   0.843  1.00  0.00     0.086 A 
HETATM    8  C   UNL     1      40.875 -14.059   1.068  1.00  0.00     0.088 A 
HETATM    9  N   UNL     1      40.820 -13.505   2.291  1.00  0.00    -0.225 NA
HETATM   10  C   UNL     1      41.334 -15.882  -0.458  1.00  0.00     0.034 A 
HETATM   11  C   UNL     1      40.937 -15.097  -1.542  1.00  0.00     0.002 A 
HETATM   12  C   UNL     1      40.505 -13.797  -1.323  1.00  0.00     0.002 A 
HETATM   13  C   UNL     1      40.479 -13.293  -0.022  1.00  0.00     0.034 A 
ENDROOT
BRANCH   1  14
HETATM   14  C   UNL     1      42.394 -17.554   4.660  1.00  0.00     0.262 C 
HETATM   15  N   UNL     1      43.528 -17.927   3.963  1.00  0.00    -0.322 N 
HETATM   16  H   UNL     1      44.015 -17.166   3.510  1.00  0.00     0.169 HD
HETATM   17  O   UNL     1      41.693 -18.254   5.376  1.00  0.00    -0.267 OA
BRANCH  15  18
HETATM   18  C   UNL     1      43.945 -19.224   3.600  1.00  0.00     0.041 A 
HETATM   19  C   UNL     1      44.434 -20.144   4.535  1.00  0.00     0.037 A 
HETATM   20  C   UNL     1      44.722 -21.468   4.170  1.00  0.00    -0.060 A 
HETATM   21  C   UNL     1      45.171 -22.450   5.211  1.00  0.00     0.048 C 
HETATM   22  C   UNL     1      44.517 -21.872   2.850  1.00  0.00     0.007 A 
HETATM   23  C   UNL     1      44.056 -20.961   1.902  1.00  0.00     0.009 A 
HETATM   24  C   UNL     1      43.770 -19.633   2.259  1.00  0.00    -0.035 A 
HETATM   25  C   UNL     1      43.248 -18.704   1.194  1.00  0.00     0.050 C 
ENDBRANCH  15  18
ENDBRANCH   1  14
BRANCH   2  26
HETATM   26  N   UNL     1      42.010 -15.224   6.611  1.00  0.00    -0.383 N 
HETATM   27  H   UNL     1      42.945 -15.170   7.011  1.00  0.00     0.157 HD
HETATM   28  H   UNL     1      41.292 -14.782   7.190  1.00  0.00     0.157 HD
ENDBRANCH   2  26
BRANCH   3  29
HETATM   29  N   UNL     1      40.879 -13.021   5.395  1.00  0.00    -0.176 NA
HETATM   30  C   UNL     1      41.652 -11.993   5.458  1.00  0.00     0.153 C 
BRANCH  30  31
HETATM   31  C   UNL     1      41.139 -10.823   6.150  1.00  0.00     0.011 A 
HETATM   32  C   UNL     1      40.019 -10.007   5.787  1.00  0.00     0.004 A 
HETATM   33  C   UNL     1      39.856  -9.052   6.792  1.00  0.00     0.043 A 
HETATM   34  C   UNL     1      39.110 -10.006   4.708  1.00  0.00     0.014 A 
HETATM   35  C   UNL     1      38.830  -8.101   6.778  1.00  0.00     0.030 A 
HETATM   36  N   UNL     1      40.850  -9.261   7.719  1.00  0.00    -0.364 N 
HETATM   37  C   UNL     1      37.942  -8.122   5.699  1.00  0.00     0.002 A 
HETATM   38  C   UNL     1      38.079  -9.057   4.677  1.00  0.00     0.001 A 
HETATM   39  H   UNL     1      40.972  -8.718   8.563  1.00  0.00     0.165 HD
HETATM   40  C   UNL     1      41.625 -10.322   7.346  1.00  0.00     0.102 A 
ENDBRANCH  30  31
ENDBRANCH   3  29
TORSDOF 5
ENDMDL
MODEL 9
REMARK VINA RESULT:      -9.8      1.513      1.997
REMARK  5 active torsions:
REMARK  status: ('A' for Active; 'I' for Inactive)
REMARK    1  A    between atoms: C_4  and  N_5 
REMARK       I    between atoms: N_5  and  C_6 
REMARK    2  A    between atoms: C_6  and  C_7 
REMARK    3  A    between atoms: C_8  and  N_9 
REMARK    4  A    between atoms: N_10  and  N_11 
REMARK    5  A    between atoms: C_12  and  C_13 
ROOT
HETATM    1  C   UNL     1      41.119 -15.918   1.588  1.00  0.00     0.110 A 
HETATM    2  C   UNL     1      41.383 -15.284   0.391  1.00  0.00     0.143 A 
HETATM    3  N   UNL     1      41.302 -13.907   0.578  1.00  0.00    -0.197 N 
HETATM    4  C   UNL     1      40.877 -13.676   1.880  1.00  0.00     0.183 A 
HETATM    5  C   UNL     1      40.770 -14.913   2.514  1.00  0.00     0.125 A 
HETATM    6  N   UNL     1      40.428 -15.014   3.823  1.00  0.00    -0.242 NA
HETATM    7  C   UNL     1      40.152 -13.846   4.424  1.00  0.00     0.086 A 
HETATM    8  C   UNL     1      40.252 -12.597   3.757  1.00  0.00     0.088 A 
HETATM    9  N   UNL     1      40.628 -12.483   2.472  1.00  0.00    -0.225 NA
HETATM   10  C   UNL     1      39.757 -13.869   5.757  1.00  0.00     0.034 A 
HETATM   11  C   UNL     1      39.459 -12.695   6.451  1.00  0.00     0.002 A 
HETATM   12  C   UNL     1      39.562 -11.473   5.802  1.00  0.00     0.002 A 
HETATM   13  C   UNL     1      39.957 -11.437   4.464  1.00  0.00     0.034 A 
ENDROOT
BRANCH   1  14
HETATM   14  C   UNL     1      41.308 -17.337   1.797  1.00  0.00     0.262 C 
HETATM   15  N   UNL     1      42.140 -17.551   2.880  1.00  0.00    -0.322 N 
HETATM   16  H   UNL     1      42.309 -16.734   3.451  1.00  0.00     0.169 HD
HETATM   17  O   UNL     1      40.864 -18.170   1.020  1.00  0.00    -0.267 OA
BRANCH  15  18
HETATM   18  C   UNL     1      42.963 -18.665   3.146  1.00  0.00     0.041 A 
HETATM   19  C   UNL     1      43.098 -19.728   2.245  1.00  0.00     0.037 A 
HETATM   20  C   UNL     1      44.020 -20.761   2.475  1.00  0.00    -0.060 A 
HETATM   21  C   UNL     1      44.196 -21.847   1.454  1.00  0.00     0.048 C 
HETATM   22  C   UNL     1      44.812 -20.727   3.623  1.00  0.00     0.007 A 
HETATM   23  C   UNL     1      44.670 -19.689   4.541  1.00  0.00     0.009 A 
HETATM   24  C   UNL     1      43.747 -18.654   4.320  1.00  0.00    -0.035 A 
HETATM   25  C   UNL     1      43.661 -17.545   5.337  1.00  0.00     0.050 C 
ENDBRANCH  15  18
ENDBRANCH   1  14
BRANCH   2  26
HETATM   26  N   UNL     1      41.764 -15.794  -0.810  1.00  0.00    -0.383 N 
HETATM   27  H   UNL     1      41.686 -16.792  -0.996  1.00  0.00     0.157 HD
HETATM   28  H   UNL     1      41.625 -15.212  -1.639  1.00  0.00     0.157 HD
ENDBRANCH   2  26
BRANCH   3  29
HETATM   29  N   UNL     1      41.664 -13.064  -0.438  1.00  0.00    -0.176 NA
HETATM   30  C   UNL     1      41.858 -11.824  -0.150  1.00  0.00     0.153 C 
BRANCH  30  31
HETATM   31  C   UNL     1      42.374 -10.973  -1.208  1.00  0.00     0.011 A 
HETATM   32  C   UNL     1      41.890 -10.848  -2.550  1.00  0.00     0.004 A 
HETATM   33  C   UNL     1      42.645  -9.852  -3.175  1.00  0.00     0.043 A 
HETATM   34  C   UNL     1      40.862 -11.471  -3.290  1.00  0.00     0.014 A 
HETATM   35  C   UNL     1      42.422  -9.444  -4.494  1.00  0.00     0.030 A 
HETATM   36  N   UNL     1      43.566  -9.404  -2.258  1.00  0.00    -0.364 N 
HETATM   37  C   UNL     1      41.397 -10.077  -5.204  1.00  0.00     0.002 A 
HETATM   38  C   UNL     1      40.629 -11.077  -4.614  1.00  0.00     0.001 A 
HETATM   39  H   UNL     1      44.244  -8.675  -2.435  1.00  0.00     0.165 HD
HETATM   40  C   UNL     1      43.413 -10.067  -1.074  1.00  0.00     0.102 A 
ENDBRANCH  30  31
ENDBRANCH   3  29
TORSDOF 5
ENDMDL
MODEL 10
REMARK VINA RESULT:      -9.7      3.447      9.011
REMARK  5 active torsions:
REMARK  status: ('A' for Active; 'I' for Inactive)
REMARK    1  A    between atoms: C_4  and  N_5 
REMARK       I    between atoms: N_5  and  C_6 
REMARK    2  A    between atoms: C_6  and  C_7 
REMARK    3  A    between atoms: C_8  and  N_9 
REMARK    4  A    between atoms: N_10  and  N_11 
REMARK    5  A    between atoms: C_12  and  C_13 
ROOT
HETATM    1  C   UNL     1      42.171 -13.846   3.234  1.00  0.00     0.110 A 
HETATM    2  C   UNL     1      42.212 -13.135   4.416  1.00  0.00     0.143 A 
HETATM    3  N   UNL     1      42.809 -13.918   5.399  1.00  0.00    -0.197 N 
HETATM    4  C   UNL     1      43.049 -15.175   4.858  1.00  0.00     0.183 A 
HETATM    5  C   UNL     1      42.666 -15.136   3.517  1.00  0.00     0.125 A 
HETATM    6  N   UNL     1      42.833 -16.206   2.700  1.00  0.00    -0.242 NA
HETATM    7  C   UNL     1      43.337 -17.297   3.296  1.00  0.00     0.086 A 
HETATM    8  C   UNL     1      43.707 -17.321   4.666  1.00  0.00     0.088 A 
HETATM    9  N   UNL     1      43.582 -16.256   5.476  1.00  0.00    -0.225 NA
HETATM   10  C   UNL     1      43.503 -18.447   2.532  1.00  0.00     0.034 A 
HETATM   11  C   UNL     1      44.026 -19.619   3.081  1.00  0.00     0.002 A 
HETATM   12  C   UNL     1      44.394 -19.642   4.418  1.00  0.00     0.002 A 
HETATM   13  C   UNL     1      44.230 -18.495   5.196  1.00  0.00     0.034 A 
ENDROOT
BRANCH   1  14
HETATM   14  C   UNL     1      41.792 -13.263   1.965  1.00  0.00     0.262 C 
HETATM   15  N   UNL     1      40.618 -13.834   1.512  1.00  0.00    -0.322 N 
HETATM   16  H   UNL     1      40.125 -14.389   2.198  1.00  0.00     0.169 HD
HETATM   17  O   UNL     1      42.514 -12.470   1.378  1.00  0.00    -0.267 OA
BRANCH  15  18
HETATM   18  C   UNL     1      40.156 -13.949   0.185  1.00  0.00     0.041 A 
HETATM   19  C   UNL     1      40.925 -14.535  -0.829  1.00  0.00     0.037 A 
HETATM   20  C   UNL     1      40.394 -14.752  -2.109  1.00  0.00    -0.060 A 
HETATM   21  C   UNL     1      41.217 -15.452  -3.151  1.00  0.00     0.048 C 
HETATM   22  C   UNL     1      39.077 -14.376  -2.376  1.00  0.00     0.007 A 
HETATM   23  C   UNL     1      38.309 -13.768  -1.385  1.00  0.00     0.009 A 
HETATM   24  C   UNL     1      38.834 -13.543  -0.103  1.00  0.00    -0.035 A 
HETATM   25  C   UNL     1      37.943 -12.907   0.932  1.00  0.00     0.050 C 
ENDBRANCH  15  18
ENDBRANCH   1  14
BRANCH   2  26
HETATM   26  N   UNL     1      41.853 -11.850   4.683  1.00  0.00    -0.383 N 
HETATM   27  H   UNL     1      41.664 -11.553   5.638  1.00  0.00     0.157 HD
HETATM   28  H   UNL     1      42.255 -11.114   4.098  1.00  0.00     0.157 HD
ENDBRANCH   2  26
BRANCH   3  29
HETATM   29  N   UNL     1      43.088 -13.372   6.623  1.00  0.00    -0.176 NA
HETATM   30  C   UNL     1      44.323 -13.176   6.926  1.00  0.00     0.153 C 
BRANCH  30  31
HETATM   31  C   UNL     1      44.595 -12.470   8.167  1.00  0.00     0.011 A 
HETATM   32  C   UNL     1      43.763 -11.515   8.835  1.00  0.00     0.004 A 
HETATM   33  C   UNL     1      44.399 -11.173  10.031  1.00  0.00     0.043 A 
HETATM   34  C   UNL     1      42.513 -10.927   8.550  1.00  0.00     0.014 A 
HETATM   35  C   UNL     1      43.849 -10.278  10.955  1.00  0.00     0.030 A 
HETATM   36  N   UNL     1      45.581 -11.872  10.078  1.00  0.00    -0.364 N 
HETATM   37  C   UNL     1      42.609  -9.709  10.648  1.00  0.00     0.002 A 
HETATM   38  C   UNL     1      41.951 -10.025   9.463  1.00  0.00     0.001 A 
HETATM   39  H   UNL     1      46.247 -11.824  10.838  1.00  0.00     0.165 HD
HETATM   40  C   UNL     1      45.710 -12.655   8.967  1.00  0.00     0.102 A 
ENDBRANCH  30  31
ENDBRANCH   3  29
TORSDOF 5
ENDMDL
