MODEL 1
REMARK VINA RESULT:      -9.0      0.000      0.000
REMARK  9 active torsions:
REMARK  status: ('A' for Active; 'I' for Inactive)
REMARK       I    between atoms: C_2  and  N_3 
REMARK    1  A    between atoms: N_3  and  C_4 
REMARK    2  A    between atoms: C_6  and  O_7 
REMARK    3  A    between atoms: O_7  and  C_8 
REMARK    4  A    between atoms: C_8  and  C_9 
REMARK    5  A    between atoms: C_9  and  C_10 
REMARK    6  A    between atoms: C_10  and  C_11 
REMARK    7  A    between atoms: C_11  and  N_12 
REMARK       I    between atoms: N_12  and  C_13 
REMARK    8  A    between atoms: C_13  and  C_14 
REMARK    9  A    between atoms: C_18  and  C_19 
ROOT
HETATM    1  N   UNL     1      44.380 -13.377   7.799  1.00  0.00    -0.345 N 
HETATM    2  C   UNL     1      45.024 -12.497   8.632  1.00  0.00     0.270 C 
HETATM    3  O   UNL     1      46.227 -12.273   8.553  1.00  0.00    -0.266 OA
HETATM    4  H   UNL     1      43.375 -13.450   7.822  1.00  0.00     0.163 HD
ENDROOT
BRANCH   1   5
HETATM    5  C   UNL     1      45.085 -14.037   6.733  1.00  0.00     0.217 C 
BRANCH   5   6
HETATM    6  C   UNL     1      44.634 -15.487   6.670  1.00  0.00    -0.085 C 
BRANCH   6   7
HETATM    7  C   UNL     1      44.247 -16.731   6.617  1.00  0.00    -0.078 C 
BRANCH   7   8
HETATM    8  C   UNL     1      43.796 -18.182   6.556  1.00  0.00     0.269 C 
BRANCH   8   9
HETATM    9  O   UNL     1      44.741 -18.956   5.824  1.00  0.00    -0.339 OA
BRANCH   9  10
HETATM   10  C   UNL     1      44.396 -19.252   4.528  1.00  0.00     0.072 A 
HETATM   11  C   UNL     1      43.820 -18.364   3.610  1.00  0.00     0.066 A 
HETATM   12  C   UNL     1      43.530 -18.770   2.303  1.00  0.00     0.037 A 
HETATM   13  C   UNL     1      43.808 -20.089   1.927  1.00  0.00     0.029 A 
HETATM   14  C   UNL     1      44.372 -20.982   2.838  1.00  0.00     0.005 A 
HETATM   15  C   UNL     1      44.667 -20.562   4.134  1.00  0.00     0.037 A 
BRANCH  12  16
HETATM   16  N   UNL     1      42.973 -17.920   1.322  1.00  0.00    -0.327 N 
HETATM   17  C   UNL     1      41.755 -17.264   1.368  1.00  0.00     0.218 C 
HETATM   18  C   UNL     1      41.506 -16.424   0.140  1.00  0.00     0.117 C 
HETATM   19  O   UNL     1      40.939 -17.287   2.283  1.00  0.00    -0.274 OA
HETATM   20  H   UNL     1      43.546 -17.756   0.505  1.00  0.00     0.169 HD
ENDBRANCH  12  16
ENDBRANCH   9  10
ENDBRANCH   8   9
ENDBRANCH   7   8
ENDBRANCH   6   7
ENDBRANCH   5   6
ENDBRANCH   1   5
BRANCH   2  21
HETATM   21  C   UNL     1      44.185 -11.847   9.601  1.00  0.00     0.120 A 
HETATM   22  N   UNL     1      42.928 -11.414   9.284  1.00  0.00    -0.272 N 
HETATM   23  H   UNL     1      42.468 -11.494   8.382  1.00  0.00     0.189 HD
HETATM   24  N   UNL     1      42.274 -10.829  10.298  1.00  0.00    -0.174 NA
HETATM   25  C   UNL     1      43.131 -10.878  11.331  1.00  0.00     0.089 A 
HETATM   26  C   UNL     1      44.345 -11.503  10.928  1.00  0.00     0.071 A 
BRANCH  25  27
HETATM   27  C   UNL     1      42.778 -10.336  12.649  1.00  0.00    -0.005 A 
HETATM   28  C   UNL     1      41.644 -10.791  13.343  1.00  0.00     0.017 A 
HETATM   29  C   UNL     1      41.319 -10.265  14.598  1.00  0.00     0.043 A 
HETATM   30  C   UNL     1      42.125  -9.284  15.162  1.00  0.00     0.116 A 
HETATM   31  F   UNL     1      41.810  -8.782  16.364  1.00  0.00    -0.206 F 
HETATM   32  C   UNL     1      43.249  -8.816  14.497  1.00  0.00     0.043 A 
HETATM   33  C   UNL     1      43.574  -9.340  13.244  1.00  0.00     0.017 A 
ENDBRANCH  25  27
ENDBRANCH   2  21
TORSDOF 9
ENDMDL
MODEL 2
REMARK VINA RESULT:      -8.8      1.569      2.968
REMARK  9 active torsions:
REMARK  status: ('A' for Active; 'I' for Inactive)
REMARK       I    between atoms: C_2  and  N_3 
REMARK    1  A    between atoms: N_3  and  C_4 
REMARK    2  A    between atoms: C_6  and  O_7 
REMARK    3  A    between atoms: O_7  and  C_8 
REMARK    4  A    between atoms: C_8  and  C_9 
REMARK    5  A    between atoms: C_9  and  C_10 
REMARK    6  A    between atoms: C_10  and  C_11 
REMARK    7  A    between atoms: C_11  and  N_12 
REMARK       I    between atoms: N_12  and  C_13 
REMARK    8  A    between atoms: C_13  and  C_14 
REMARK    9  A    between atoms: C_18  and  C_19 
ROOT
HETATM    1  N   UNL     1      44.333 -13.458   8.246  1.00  0.00    -0.345 N 
HETATM    2  C   UNL     1      45.053 -12.509   8.927  1.00  0.00     0.270 C 
HETATM    3  O   UNL     1      46.119 -12.065   8.513  1.00  0.00    -0.266 OA
HETATM    4  H   UNL     1      43.411 -13.715   8.562  1.00  0.00     0.163 HD
ENDROOT
BRANCH   1   5
HETATM    5  C   UNL     1      44.769 -13.935   6.961  1.00  0.00     0.217 C 
BRANCH   5   6
HETATM    6  C   UNL     1      43.634 -14.716   6.317  1.00  0.00    -0.085 C 
BRANCH   6   7
HETATM    7  C   UNL     1      42.661 -15.386   5.765  1.00  0.00    -0.078 C 
BRANCH   7   8
HETATM    8  C   UNL     1      41.527 -16.166   5.121  1.00  0.00     0.269 C 
BRANCH   8   9
HETATM    9  O   UNL     1      41.612 -16.069   3.703  1.00  0.00    -0.339 OA
BRANCH   9  10
HETATM   10  C   UNL     1      42.387 -17.019   3.084  1.00  0.00     0.072 A 
HETATM   11  C   UNL     1      42.792 -18.238   3.643  1.00  0.00     0.066 A 
HETATM   12  C   UNL     1      43.564 -19.144   2.908  1.00  0.00     0.037 A 
HETATM   13  C   UNL     1      43.948 -18.806   1.605  1.00  0.00     0.029 A 
HETATM   14  C   UNL     1      43.557 -17.589   1.045  1.00  0.00     0.005 A 
HETATM   15  C   UNL     1      42.776 -16.701   1.783  1.00  0.00     0.037 A 
BRANCH  12  16
HETATM   16  N   UNL     1      43.985 -20.398   3.402  1.00  0.00    -0.327 N 
HETATM   17  C   UNL     1      44.712 -20.651   4.553  1.00  0.00     0.218 C 
HETATM   18  C   UNL     1      44.958 -22.124   4.768  1.00  0.00     0.117 C 
HETATM   19  O   UNL     1      45.112 -19.828   5.369  1.00  0.00    -0.274 OA
HETATM   20  H   UNL     1      43.696 -21.204   2.862  1.00  0.00     0.169 HD
ENDBRANCH  12  16
ENDBRANCH   9  10
ENDBRANCH   8   9
ENDBRANCH   7   8
ENDBRANCH   6   7
ENDBRANCH   5   6
ENDBRANCH   1   5
BRANCH   2  21
HETATM   21  C   UNL     1      44.463 -12.062  10.160  1.00  0.00     0.120 A 
HETATM   22  N   UNL     1      44.177 -12.933  11.173  1.00  0.00    -0.272 N 
HETATM   23  H   UNL     1      44.335 -13.936  11.175  1.00  0.00     0.189 HD
HETATM   24  N   UNL     1      43.632 -12.359  12.255  1.00  0.00    -0.174 NA
HETATM   25  C   UNL     1      43.556 -11.054  11.949  1.00  0.00     0.089 A 
HETATM   26  C   UNL     1      44.061 -10.831  10.636  1.00  0.00     0.071 A 
BRANCH  25  27
HETATM   27  C   UNL     1      43.011 -10.072  12.894  1.00  0.00    -0.005 A 
HETATM   28  C   UNL     1      42.456 -10.474  14.122  1.00  0.00     0.017 A 
HETATM   29  C   UNL     1      41.939  -9.528  15.013  1.00  0.00     0.043 A 
HETATM   30  C   UNL     1      41.975  -8.179  14.682  1.00  0.00     0.116 A 
HETATM   31  F   UNL     1      41.479  -7.276  15.538  1.00  0.00    -0.206 F 
HETATM   32  C   UNL     1      42.516  -7.756  13.476  1.00  0.00     0.043 A 
HETATM   33  C   UNL     1      43.031  -8.700  12.585  1.00  0.00     0.017 A 
ENDBRANCH  25  27
ENDBRANCH   2  21
TORSDOF 9
ENDMDL
MODEL 3
REMARK VINA RESULT:      -8.6      4.540     10.533
REMARK  9 active torsions:
REMARK  status: ('A' for Active; 'I' for Inactive)
REMARK       I    between atoms: C_2  and  N_3 
REMARK    1  A    between atoms: N_3  and  C_4 
REMARK    2  A    between atoms: C_6  and  O_7 
REMARK    3  A    between atoms: O_7  and  C_8 
REMARK    4  A    between atoms: C_8  and  C_9 
REMARK    5  A    between atoms: C_9  and  C_10 
REMARK    6  A    between atoms: C_10  and  C_11 
REMARK    7  A    between atoms: C_11  and  N_12 
REMARK       I    between atoms: N_12  and  C_13 
REMARK    8  A    between atoms: C_13  and  C_14 
REMARK    9  A    between atoms: C_18  and  C_19 
ROOT
HETATM    1  N   UNL     1      40.127 -13.644   5.731  1.00  0.00    -0.345 N 
HETATM    2  C   UNL     1      41.484 -13.494   5.595  1.00  0.00     0.270 C 
HETATM    3  O   UNL     1      42.025 -12.395   5.531  1.00  0.00    -0.266 OA
HETATM    4  H   UNL     1      39.734 -14.558   5.891  1.00  0.00     0.163 HD
ENDROOT
BRANCH   1   5
HETATM    5  C   UNL     1      39.268 -12.499   5.877  1.00  0.00     0.217 C 
BRANCH   5   6
HETATM    6  C   UNL     1      39.399 -11.965   7.294  1.00  0.00    -0.085 C 
BRANCH   6   7
HETATM    7  C   UNL     1      39.511 -11.507   8.510  1.00  0.00    -0.078 C 
BRANCH   7   8
HETATM    8  C   UNL     1      39.641 -10.973   9.927  1.00  0.00     0.269 C 
BRANCH   8   9
HETATM    9  O   UNL     1      40.726 -10.053  10.004  1.00  0.00    -0.339 OA
BRANCH   9  10
HETATM   10  C   UNL     1      41.938 -10.588  10.366  1.00  0.00     0.072 A 
HETATM   11  C   UNL     1      43.047 -10.751   9.525  1.00  0.00     0.066 A 
HETATM   12  C   UNL     1      44.244 -11.288  10.011  1.00  0.00     0.037 A 
HETATM   13  C   UNL     1      44.314 -11.681  11.352  1.00  0.00     0.029 A 
HETATM   14  C   UNL     1      43.211 -11.531  12.193  1.00  0.00     0.005 A 
HETATM   15  C   UNL     1      42.029 -10.983  11.700  1.00  0.00     0.037 A 
BRANCH  12  16
HETATM   16  N   UNL     1      45.404 -11.456   9.224  1.00  0.00    -0.327 N 
HETATM   17  C   UNL     1      45.716 -12.521   8.396  1.00  0.00     0.218 C 
HETATM   18  C   UNL     1      47.040 -12.340   7.696  1.00  0.00     0.117 C 
HETATM   19  O   UNL     1      45.027 -13.513   8.181  1.00  0.00    -0.274 OA
HETATM   20  H   UNL     1      46.070 -10.694   9.253  1.00  0.00     0.169 HD
ENDBRANCH  12  16
ENDBRANCH   9  10
ENDBRANCH   8   9
ENDBRANCH   7   8
ENDBRANCH   6   7
ENDBRANCH   5   6
ENDBRANCH   1   5
BRANCH   2  21
HETATM   21  C   UNL     1      42.232 -14.721   5.541  1.00  0.00     0.120 A 
HETATM   22  N   UNL     1      43.052 -15.103   6.566  1.00  0.00    -0.272 N 
HETATM   23  H   UNL     1      43.221 -14.598   7.430  1.00  0.00     0.189 HD
HETATM   24  N   UNL     1      43.678 -16.272   6.363  1.00  0.00    -0.174 NA
HETATM   25  C   UNL     1      43.255 -16.683   5.157  1.00  0.00     0.089 A 
HETATM   26  C   UNL     1      42.352 -15.729   4.606  1.00  0.00     0.071 A 
BRANCH  25  27
HETATM   27  C   UNL     1      43.714 -17.947   4.569  1.00  0.00    -0.005 A 
HETATM   28  C   UNL     1      43.517 -18.230   3.207  1.00  0.00     0.017 A 
HETATM   29  C   UNL     1      43.958 -19.440   2.660  1.00  0.00     0.043 A 
HETATM   30  C   UNL     1      44.598 -20.368   3.471  1.00  0.00     0.116 A 
HETATM   31  F   UNL     1      45.019 -21.526   2.944  1.00  0.00    -0.206 F 
HETATM   32  C   UNL     1      44.804 -20.114   4.820  1.00  0.00     0.043 A 
HETATM   33  C   UNL     1      44.362 -18.907   5.367  1.00  0.00     0.017 A 
ENDBRANCH  25  27
ENDBRANCH   2  21
TORSDOF 9
ENDMDL
MODEL 4
REMARK VINA RESULT:      -8.5      1.767      2.244
REMARK  9 active torsions:
REMARK  status: ('A' for Active; 'I' for Inactive)
REMARK       I    between atoms: C_2  and  N_3 
REMARK    1  A    between atoms: N_3  and  C_4 
REMARK    2  A    between atoms: C_6  and  O_7 
REMARK    3  A    between atoms: O_7  and  C_8 
REMARK    4  A    between atoms: C_8  and  C_9 
REMARK    5  A    between atoms: C_9  and  C_10 
REMARK    6  A    between atoms: C_10  and  C_11 
REMARK    7  A    between atoms: C_11  and  N_12 
REMARK       I    between atoms: N_12  and  C_13 
REMARK    8  A    between atoms: C_13  and  C_14 
REMARK    9  A    between atoms: C_18  and  C_19 
ROOT
HETATM    1  N   UNL     1      44.341 -13.526   8.195  1.00  0.00    -0.345 N 
HETATM    2  C   UNL     1      44.993 -12.536   8.885  1.00  0.00     0.270 C 
HETATM    3  O   UNL     1      46.064 -12.067   8.513  1.00  0.00    -0.266 OA
HETATM    4  H   UNL     1      43.413 -13.806   8.471  1.00  0.00     0.163 HD
ENDROOT
BRANCH   1   5
HETATM    5  C   UNL     1      44.857 -14.022   6.948  1.00  0.00     0.217 C 
BRANCH   5   6
HETATM    6  C   UNL     1      44.143 -15.319   6.602  1.00  0.00    -0.085 C 
BRANCH   6   7
HETATM    7  C   UNL     1      43.532 -16.431   6.304  1.00  0.00    -0.078 C 
BRANCH   7   8
HETATM    8  C   UNL     1      42.818 -17.728   5.958  1.00  0.00     0.269 C 
BRANCH   8   9
HETATM    9  O   UNL     1      43.430 -18.333   4.823  1.00  0.00    -0.339 OA
BRANCH   9  10
HETATM   10  C   UNL     1      42.955 -17.928   3.600  1.00  0.00     0.072 A 
HETATM   11  C   UNL     1      41.708 -17.337   3.360  1.00  0.00     0.066 A 
HETATM   12  C   UNL     1      41.337 -16.941   2.071  1.00  0.00     0.037 A 
HETATM   13  C   UNL     1      42.226 -17.161   1.013  1.00  0.00     0.029 A 
HETATM   14  C   UNL     1      43.466 -17.758   1.242  1.00  0.00     0.005 A 
HETATM   15  C   UNL     1      43.828 -18.137   2.533  1.00  0.00     0.037 A 
BRANCH  12  16
HETATM   16  N   UNL     1      40.107 -16.319   1.765  1.00  0.00    -0.327 N 
HETATM   17  C   UNL     1      39.833 -14.962   1.726  1.00  0.00     0.218 C 
HETATM   18  C   UNL     1      38.405 -14.672   1.338  1.00  0.00     0.117 C 
HETATM   19  O   UNL     1      40.620 -14.045   1.936  1.00  0.00    -0.274 OA
HETATM   20  H   UNL     1      39.347 -16.941   1.521  1.00  0.00     0.169 HD
ENDBRANCH  12  16
ENDBRANCH   9  10
ENDBRANCH   8   9
ENDBRANCH   7   8
ENDBRANCH   6   7
ENDBRANCH   5   6
ENDBRANCH   1   5
BRANCH   2  21
HETATM   21  C   UNL     1      44.326 -12.076  10.073  1.00  0.00     0.120 A 
HETATM   22  N   UNL     1      44.212 -12.868  11.180  1.00  0.00    -0.272 N 
HETATM   23  H   UNL     1      44.560 -13.817  11.288  1.00  0.00     0.189 HD
HETATM   24  N   UNL     1      43.565 -12.293  12.204  1.00  0.00    -0.174 NA
HETATM   25  C   UNL     1      43.239 -11.069  11.759  1.00  0.00     0.089 A 
HETATM   26  C   UNL     1      43.694 -10.900  10.421  1.00  0.00     0.071 A 
BRANCH  25  27
HETATM   27  C   UNL     1      42.514 -10.111  12.603  1.00  0.00    -0.005 A 
HETATM   28  C   UNL     1      42.976  -9.779  13.888  1.00  0.00     0.017 A 
HETATM   29  C   UNL     1      42.275  -8.866  14.683  1.00  0.00     0.043 A 
HETATM   30  C   UNL     1      41.112  -8.283  14.197  1.00  0.00     0.116 A 
HETATM   31  F   UNL     1      40.443  -7.409  14.961  1.00  0.00    -0.206 F 
HETATM   32  C   UNL     1      40.633  -8.595  12.932  1.00  0.00     0.043 A 
HETATM   33  C   UNL     1      41.331  -9.507  12.138  1.00  0.00     0.017 A 
ENDBRANCH  25  27
ENDBRANCH   2  21
TORSDOF 9
ENDMDL
MODEL 5
REMARK VINA RESULT:      -8.4      1.885      3.416
REMARK  9 active torsions:
REMARK  status: ('A' for Active; 'I' for Inactive)
REMARK       I    between atoms: C_2  and  N_3 
REMARK    1  A    between atoms: N_3  and  C_4 
REMARK    2  A    between atoms: C_6  and  O_7 
REMARK    3  A    between atoms: O_7  and  C_8 
REMARK    4  A    between atoms: C_8  and  C_9 
REMARK    5  A    between atoms: C_9  and  C_10 
REMARK    6  A    between atoms: C_10  and  C_11 
REMARK    7  A    between atoms: C_11  and  N_12 
REMARK       I    between atoms: N_12  and  C_13 
REMARK    8  A    between atoms: C_13  and  C_14 
REMARK    9  A    between atoms: C_18  and  C_19 
ROOT
HETATM    1  N   UNL     1      44.233 -13.870   7.774  1.00  0.00    -0.345 N 
HETATM    2  C   UNL     1      45.202 -12.975   8.151  1.00  0.00     0.270 C 
HETATM    3  O   UNL     1      46.272 -12.873   7.561  1.00  0.00    -0.266 OA
HETATM    4  H   UNL     1      43.326 -13.846   8.214  1.00  0.00     0.163 HD
ENDROOT
BRANCH   1   5
HETATM    5  C   UNL     1      44.402 -14.696   6.609  1.00  0.00     0.217 C 
BRANCH   5   6
HETATM    6  C   UNL     1      43.688 -14.043   5.437  1.00  0.00    -0.085 C 
BRANCH   6   7
HETATM    7  C   UNL     1      43.075 -13.482   4.431  1.00  0.00    -0.078 C 
BRANCH   7   8
HETATM    8  C   UNL     1      42.361 -12.830   3.259  1.00  0.00     0.269 C 
BRANCH   8   9
HETATM    9  O   UNL     1      42.640 -13.543   2.058  1.00  0.00    -0.339 OA
BRANCH   9  10
HETATM   10  C   UNL     1      42.030 -14.767   1.935  1.00  0.00     0.072 A 
HETATM   11  C   UNL     1      42.682 -15.995   1.765  1.00  0.00     0.066 A 
HETATM   12  C   UNL     1      41.957 -17.188   1.674  1.00  0.00     0.037 A 
HETATM   13  C   UNL     1      40.560 -17.137   1.736  1.00  0.00     0.029 A 
HETATM   14  C   UNL     1      39.902 -15.917   1.896  1.00  0.00     0.005 A 
HETATM   15  C   UNL     1      40.637 -14.737   1.998  1.00  0.00     0.037 A 
BRANCH  12  16
HETATM   16  N   UNL     1      42.553 -18.460   1.526  1.00  0.00    -0.327 N 
HETATM   17  C   UNL     1      43.136 -19.238   2.511  1.00  0.00     0.218 C 
HETATM   18  C   UNL     1      43.650 -20.553   1.979  1.00  0.00     0.117 C 
HETATM   19  O   UNL     1      43.227 -18.971   3.705  1.00  0.00    -0.274 OA
HETATM   20  H   UNL     1      42.524 -18.854   0.594  1.00  0.00     0.169 HD
ENDBRANCH  12  16
ENDBRANCH   9  10
ENDBRANCH   8   9
ENDBRANCH   7   8
ENDBRANCH   6   7
ENDBRANCH   5   6
ENDBRANCH   1   5
BRANCH   2  21
HETATM   21  C   UNL     1      44.870 -12.155   9.284  1.00  0.00     0.120 A 
HETATM   22  N   UNL     1      45.638 -11.082   9.639  1.00  0.00    -0.272 N 
HETATM   23  H   UNL     1      46.482 -10.758   9.175  1.00  0.00     0.189 HD
HETATM   24  N   UNL     1      45.194 -10.419  10.717  1.00  0.00    -0.174 NA
HETATM   25  C   UNL     1      44.086 -11.078  11.091  1.00  0.00     0.089 A 
HETATM   26  C   UNL     1      43.855 -12.179  10.219  1.00  0.00     0.071 A 
BRANCH  25  27
HETATM   27  C   UNL     1      43.291 -10.651  12.249  1.00  0.00    -0.005 A 
HETATM   28  C   UNL     1      42.080 -11.286  12.575  1.00  0.00     0.017 A 
HETATM   29  C   UNL     1      41.332 -10.868  13.680  1.00  0.00     0.043 A 
HETATM   30  C   UNL     1      41.789  -9.816  14.462  1.00  0.00     0.116 A 
HETATM   31  F   UNL     1      41.069  -9.418  15.520  1.00  0.00    -0.206 F 
HETATM   32  C   UNL     1      42.981  -9.170  14.162  1.00  0.00     0.043 A 
HETATM   33  C   UNL     1      43.728  -9.586  13.058  1.00  0.00     0.017 A 
ENDBRANCH  25  27
ENDBRANCH   2  21
TORSDOF 9
ENDMDL
MODEL 6
REMARK VINA RESULT:      -8.4      4.772     11.778
REMARK  9 active torsions:
REMARK  status: ('A' for Active; 'I' for Inactive)
REMARK       I    between atoms: C_2  and  N_3 
REMARK    1  A    between atoms: N_3  and  C_4 
REMARK    2  A    between atoms: C_6  and  O_7 
REMARK    3  A    between atoms: O_7  and  C_8 
REMARK    4  A    between atoms: C_8  and  C_9 
REMARK    5  A    between atoms: C_9  and  C_10 
REMARK    6  A    between atoms: C_10  and  C_11 
REMARK    7  A    between atoms: C_11  and  N_12 
REMARK       I    between atoms: N_12  and  C_13 
REMARK    8  A    between atoms: C_13  and  C_14 
REMARK    9  A    between atoms: C_18  and  C_19 
ROOT
HETATM    1  N   UNL     1      41.254 -13.643   4.213  1.00  0.00    -0.345 N 
HETATM    2  C   UNL     1      40.897 -14.811   4.837  1.00  0.00     0.270 C 
HETATM    3  O   UNL     1      39.862 -14.925   5.484  1.00  0.00    -0.266 OA
HETATM    4  H   UNL     1      42.054 -13.623   3.600  1.00  0.00     0.163 HD
ENDROOT
BRANCH   1   5
HETATM    5  C   UNL     1      40.384 -12.498   4.232  1.00  0.00     0.217 C 
BRANCH   5   6
HETATM    6  C   UNL     1      40.677 -11.679   5.478  1.00  0.00    -0.085 C 
BRANCH   6   7
HETATM    7  C   UNL     1      40.929 -10.977   6.548  1.00  0.00    -0.078 C 
BRANCH   7   8
HETATM    8  C   UNL     1      41.222 -10.159   7.795  1.00  0.00     0.269 C 
BRANCH   8   9
HETATM    9  O   UNL     1      42.618 -10.185   8.079  1.00  0.00    -0.339 OA
BRANCH   9  10
HETATM   10  C   UNL     1      42.971 -10.711   9.297  1.00  0.00     0.072 A 
HETATM   11  C   UNL     1      42.368 -10.410  10.525  1.00  0.00     0.066 A 
HETATM   12  C   UNL     1      42.796 -11.027  11.706  1.00  0.00     0.037 A 
HETATM   13  C   UNL     1      43.854 -11.941  11.646  1.00  0.00     0.029 A 
HETATM   14  C   UNL     1      44.466 -12.240  10.428  1.00  0.00     0.005 A 
HETATM   15  C   UNL     1      44.022 -11.627   9.258  1.00  0.00     0.037 A 
BRANCH  12  16
HETATM   16  N   UNL     1      42.217 -10.787  12.971  1.00  0.00    -0.327 N 
HETATM   17  C   UNL     1      42.688  -9.952  13.970  1.00  0.00     0.218 C 
HETATM   18  C   UNL     1      41.788  -9.935  15.180  1.00  0.00     0.117 C 
HETATM   19  O   UNL     1      43.693  -9.250  13.931  1.00  0.00    -0.274 OA
HETATM   20  H   UNL     1      41.343 -11.264  13.153  1.00  0.00     0.169 HD
ENDBRANCH  12  16
ENDBRANCH   9  10
ENDBRANCH   8   9
ENDBRANCH   7   8
ENDBRANCH   6   7
ENDBRANCH   5   6
ENDBRANCH   1   5
BRANCH   2  21
HETATM   21  C   UNL     1      41.820 -15.901   4.670  1.00  0.00     0.120 A 
HETATM   22  N   UNL     1      42.985 -15.966   5.382  1.00  0.00    -0.272 N 
HETATM   23  H   UNL     1      43.317 -15.295   6.067  1.00  0.00     0.189 HD
HETATM   24  N   UNL     1      43.734 -17.045   5.113  1.00  0.00    -0.174 NA
HETATM   25  C   UNL     1      43.038 -17.725   4.187  1.00  0.00     0.089 A 
HETATM   26  C   UNL     1      41.833 -17.031   3.878  1.00  0.00     0.071 A 
BRANCH  25  27
HETATM   27  C   UNL     1      43.529 -18.990   3.630  1.00  0.00    -0.005 A 
HETATM   28  C   UNL     1      44.394 -19.821   4.362  1.00  0.00     0.017 A 
HETATM   29  C   UNL     1      44.856 -21.024   3.818  1.00  0.00     0.043 A 
HETATM   30  C   UNL     1      44.456 -21.400   2.543  1.00  0.00     0.116 A 
HETATM   31  F   UNL     1      44.901 -22.553   2.025  1.00  0.00    -0.206 F 
HETATM   32  C   UNL     1      43.604 -20.597   1.797  1.00  0.00     0.043 A 
HETATM   33  C   UNL     1      43.143 -19.396   2.339  1.00  0.00     0.017 A 
ENDBRANCH  25  27
ENDBRANCH   2  21
TORSDOF 9
ENDMDL
MODEL 7
REMARK VINA RESULT:      -8.3      6.037     10.965
REMARK  9 active torsions:
REMARK  status: ('A' for Active; 'I' for Inactive)
REMARK       I    between atoms: C_2  and  N_3 
REMARK    1  A    between atoms: N_3  and  C_4 
REMARK    2  A    between atoms: C_6  and  O_7 
REMARK    3  A    between atoms: O_7  and  C_8 
REMARK    4  A    between atoms: C_8  and  C_9 
REMARK    5  A    between atoms: C_9  and  C_10 
REMARK    6  A    between atoms: C_10  and  C_11 
REMARK    7  A    between atoms: C_11  and  N_12 
REMARK       I    between atoms: N_12  and  C_13 
REMARK    8  A    between atoms: C_13  and  C_14 
REMARK    9  A    between atoms: C_18  and  C_19 
ROOT
HETATM    1  N   UNL     1      39.694 -15.229   1.128  1.00  0.00    -0.345 N 
HETATM    2  C   UNL     1      40.880 -15.464   0.480  1.00  0.00     0.270 C 
HETATM    3  O   UNL     1      41.154 -14.957  -0.602  1.00  0.00    -0.266 OA
HETATM    4  H   UNL     1      39.552 -15.574   2.064  1.00  0.00     0.163 HD
ENDROOT
BRANCH   1   5
HETATM    5  C   UNL     1      38.729 -14.307   0.591  1.00  0.00     0.217 C 
BRANCH   5   6
HETATM    6  C   UNL     1      38.587 -13.133   1.547  1.00  0.00    -0.085 C 
BRANCH   6   7
HETATM    7  C   UNL     1      38.465 -12.126   2.366  1.00  0.00    -0.078 C 
BRANCH   7   8
HETATM    8  C   UNL     1      38.322 -10.952   3.321  1.00  0.00     0.269 C 
BRANCH   8   9
HETATM    9  O   UNL     1      38.291 -11.418   4.667  1.00  0.00    -0.339 OA
BRANCH   9  10
HETATM   10  C   UNL     1      39.475 -11.914   5.155  1.00  0.00     0.072 A 
HETATM   11  C   UNL     1      39.769 -13.265   5.376  1.00  0.00     0.066 A 
HETATM   12  C   UNL     1      41.023 -13.659   5.856  1.00  0.00     0.037 A 
HETATM   13  C   UNL     1      41.980 -12.676   6.133  1.00  0.00     0.029 A 
HETATM   14  C   UNL     1      41.692 -11.327   5.924  1.00  0.00     0.005 A 
HETATM   15  C   UNL     1      40.443 -10.949   5.434  1.00  0.00     0.037 A 
BRANCH  12  16
HETATM   16  N   UNL     1      41.391 -15.003   6.078  1.00  0.00    -0.327 N 
HETATM   17  C   UNL     1      41.198 -16.082   5.232  1.00  0.00     0.218 C 
HETATM   18  C   UNL     1      41.746 -17.367   5.802  1.00  0.00     0.117 C 
HETATM   19  O   UNL     1      40.683 -16.064   4.120  1.00  0.00    -0.274 OA
HETATM   20  H   UNL     1      41.876 -15.189   6.947  1.00  0.00     0.169 HD
ENDBRANCH  12  16
ENDBRANCH   9  10
ENDBRANCH   8   9
ENDBRANCH   7   8
ENDBRANCH   6   7
ENDBRANCH   5   6
ENDBRANCH   1   5
BRANCH   2  21
HETATM   21  C   UNL     1      41.787 -16.343   1.166  1.00  0.00     0.120 A 
HETATM   22  N   UNL     1      42.842 -15.860   1.889  1.00  0.00    -0.272 N 
HETATM   23  H   UNL     1      43.094 -14.885   2.018  1.00  0.00     0.189 HD
HETATM   24  N   UNL     1      43.592 -16.808   2.469  1.00  0.00    -0.174 NA
HETATM   25  C   UNL     1      43.011 -17.967   2.119  1.00  0.00     0.089 A 
HETATM   26  C   UNL     1      41.879 -17.715   1.293  1.00  0.00     0.071 A 
BRANCH  25  27
HETATM   27  C   UNL     1      43.541 -19.260   2.568  1.00  0.00    -0.005 A 
HETATM   28  C   UNL     1      44.187 -19.390   3.810  1.00  0.00     0.017 A 
HETATM   29  C   UNL     1      44.688 -20.628   4.226  1.00  0.00     0.043 A 
HETATM   30  C   UNL     1      44.546 -21.738   3.404  1.00  0.00     0.116 A 
HETATM   31  F   UNL     1      45.028 -22.922   3.805  1.00  0.00    -0.206 F 
HETATM   32  C   UNL     1      43.914 -21.637   2.172  1.00  0.00     0.043 A 
HETATM   33  C   UNL     1      43.414 -20.401   1.756  1.00  0.00     0.017 A 
ENDBRANCH  25  27
ENDBRANCH   2  21
TORSDOF 9
ENDMDL
MODEL 8
REMARK VINA RESULT:      -8.0      4.895     11.020
REMARK  9 active torsions:
REMARK  status: ('A' for Active; 'I' for Inactive)
REMARK       I    between atoms: C_2  and  N_3 
REMARK    1  A    between atoms: N_3  and  C_4 
REMARK    2  A    between atoms: C_6  and  O_7 
REMARK    3  A    between atoms: O_7  and  C_8 
REMARK    4  A    between atoms: C_8  and  C_9 
REMARK    5  A    between atoms: C_9  and  C_10 
REMARK    6  A    between atoms: C_10  and  C_11 
REMARK    7  A    between atoms: C_11  and  N_12 
REMARK       I    between atoms: N_12  and  C_13 
REMARK    8  A    between atoms: C_13  and  C_14 
REMARK    9  A    between atoms: C_18  and  C_19 
ROOT
HETATM    1  N   UNL     1      40.482 -11.425   5.718  1.00  0.00    -0.345 N 
HETATM    2  C   UNL     1      39.557 -12.416   5.512  1.00  0.00     0.270 C 
HETATM    3  O   UNL     1      38.349 -12.203   5.510  1.00  0.00    -0.266 OA
HETATM    4  H   UNL     1      41.464 -11.619   5.602  1.00  0.00     0.163 HD
ENDROOT
BRANCH   1   5
HETATM    5  C   UNL     1      40.075 -10.055   5.877  1.00  0.00     0.217 C 
BRANCH   5   6
HETATM    6  C   UNL     1      39.843  -9.780   7.354  1.00  0.00    -0.085 C 
BRANCH   6   7
HETATM    7  C   UNL     1      39.644  -9.544   8.621  1.00  0.00    -0.078 C 
BRANCH   7   8
HETATM    8  C   UNL     1      39.412  -9.271  10.098  1.00  0.00     0.269 C 
BRANCH   8   9
HETATM    9  O   UNL     1      40.614  -8.806  10.703  1.00  0.00    -0.339 OA
BRANCH   9  10
HETATM   10  C   UNL     1      41.531  -9.774  11.032  1.00  0.00     0.072 A 
HETATM   11  C   UNL     1      42.376 -10.441  10.136  1.00  0.00     0.066 A 
HETATM   12  C   UNL     1      43.292 -11.397  10.588  1.00  0.00     0.037 A 
HETATM   13  C   UNL     1      43.340 -11.695  11.954  1.00  0.00     0.029 A 
HETATM   14  C   UNL     1      42.495 -11.042  12.852  1.00  0.00     0.005 A 
HETATM   15  C   UNL     1      41.596 -10.082  12.390  1.00  0.00     0.037 A 
BRANCH  12  16
HETATM   16  N   UNL     1      44.188 -12.087   9.742  1.00  0.00    -0.327 N 
HETATM   17  C   UNL     1      45.353 -11.603   9.171  1.00  0.00     0.218 C 
HETATM   18  C   UNL     1      46.062 -12.643   8.339  1.00  0.00     0.117 C 
HETATM   19  O   UNL     1      45.832 -10.483   9.311  1.00  0.00    -0.274 OA
HETATM   20  H   UNL     1      43.960 -13.056   9.556  1.00  0.00     0.169 HD
ENDBRANCH  12  16
ENDBRANCH   9  10
ENDBRANCH   8   9
ENDBRANCH   7   8
ENDBRANCH   6   7
ENDBRANCH   5   6
ENDBRANCH   1   5
BRANCH   2  21
HETATM   21  C   UNL     1      40.104 -13.727   5.287  1.00  0.00     0.120 A 
HETATM   22  N   UNL     1      40.108 -14.678   6.268  1.00  0.00    -0.272 N 
HETATM   23  H   UNL     1      39.751 -14.577   7.214  1.00  0.00     0.189 HD
HETATM   24  N   UNL     1      40.652 -15.847   5.900  1.00  0.00    -0.174 NA
HETATM   25  C   UNL     1      41.021 -15.666   4.622  1.00  0.00     0.089 A 
HETATM   26  C   UNL     1      40.700 -14.342   4.205  1.00  0.00     0.071 A 
BRANCH  25  27
HETATM   27  C   UNL     1      41.659 -16.735   3.846  1.00  0.00    -0.005 A 
HETATM   28  C   UNL     1      42.682 -17.525   4.400  1.00  0.00     0.017 A 
HETATM   29  C   UNL     1      43.284 -18.540   3.649  1.00  0.00     0.043 A 
HETATM   30  C   UNL     1      42.866 -18.770   2.344  1.00  0.00     0.116 A 
HETATM   31  F   UNL     1      43.445 -19.743   1.627  1.00  0.00    -0.206 F 
HETATM   32  C   UNL     1      41.860 -18.003   1.772  1.00  0.00     0.043 A 
HETATM   33  C   UNL     1      41.259 -16.989   2.521  1.00  0.00     0.017 A 
ENDBRANCH  25  27
ENDBRANCH   2  21
TORSDOF 9
ENDMDL
MODEL 9
REMARK VINA RESULT:      -8.0      6.499      9.983
REMARK  9 active torsions:
REMARK  status: ('A' for Active; 'I' for Inactive)
REMARK       I    between atoms: C_2  and  N_3 
REMARK    1  A    between atoms: N_3  and  C_4 
REMARK    2  A    between atoms: C_6  and  O_7 
REMARK    3  A    between atoms: O_7  and  C_8 
REMARK    4  A    between atoms: C_8  and  C_9 
REMARK    5  A    between atoms: C_9  and  C_10 
REMARK    6  A    between atoms: C_10  and  C_11 
REMARK    7  A    between atoms: C_11  and  N_12 
REMARK       I    between atoms: N_12  and  C_13 
REMARK    8  A    between atoms: C_13  and  C_14 
REMARK    9  A    between atoms: C_18  and  C_19 
ROOT
HETATM    1  N   UNL     1      40.936 -14.266   5.564  1.00  0.00    -0.345 N 
HETATM    2  C   UNL     1      42.233 -14.292   5.117  1.00  0.00     0.270 C 
HETATM    3  O   UNL     1      42.863 -13.272   4.859  1.00  0.00    -0.266 OA
HETATM    4  H   UNL     1      40.491 -15.117   5.870  1.00  0.00     0.163 HD
ENDROOT
BRANCH   1   5
HETATM    5  C   UNL     1      40.268 -13.019   5.822  1.00  0.00     0.217 C 
BRANCH   5   6
HETATM    6  C   UNL     1      39.637 -12.525   4.530  1.00  0.00    -0.085 C 
BRANCH   6   7
HETATM    7  C   UNL     1      39.095 -12.101   3.422  1.00  0.00    -0.078 C 
BRANCH   7   8
HETATM    8  C   UNL     1      38.464 -11.606   2.131  1.00  0.00     0.269 C 
BRANCH   8   9
HETATM    9  O   UNL     1      39.468 -11.408   1.141  1.00  0.00    -0.339 OA
BRANCH   9  10
HETATM   10  C   UNL     1      39.967 -12.547   0.560  1.00  0.00     0.072 A 
HETATM   11  C   UNL     1      39.368 -13.266  -0.483  1.00  0.00     0.066 A 
HETATM   12  C   UNL     1      39.982 -14.405  -1.016  1.00  0.00     0.037 A 
HETATM   13  C   UNL     1      41.201 -14.831  -0.477  1.00  0.00     0.029 A 
HETATM   14  C   UNL     1      41.800 -14.126   0.567  1.00  0.00     0.005 A 
HETATM   15  C   UNL     1      41.184 -12.986   1.081  1.00  0.00     0.037 A 
BRANCH  12  16
HETATM   16  N   UNL     1      39.445 -15.160  -2.081  1.00  0.00    -0.327 N 
HETATM   17  C   UNL     1      39.864 -15.176  -3.400  1.00  0.00     0.218 C 
HETATM   18  C   UNL     1      39.058 -16.127  -4.250  1.00  0.00     0.117 C 
HETATM   19  O   UNL     1      40.797 -14.545  -3.885  1.00  0.00    -0.274 OA
HETATM   20  H   UNL     1      38.680 -15.779  -1.841  1.00  0.00     0.169 HD
ENDBRANCH  12  16
ENDBRANCH   9  10
ENDBRANCH   8   9
ENDBRANCH   7   8
ENDBRANCH   6   7
ENDBRANCH   5   6
ENDBRANCH   1   5
BRANCH   2  21
HETATM   21  C   UNL     1      42.807 -15.603   4.979  1.00  0.00     0.120 A 
HETATM   22  N   UNL     1      43.545 -16.169   5.981  1.00  0.00    -0.272 N 
HETATM   23  H   UNL     1      43.764 -15.756   6.882  1.00  0.00     0.189 HD
HETATM   24  N   UNL     1      44.009 -17.395   5.698  1.00  0.00    -0.174 NA
HETATM   25  C   UNL     1      43.558 -17.654   4.460  1.00  0.00     0.089 A 
HETATM   26  C   UNL     1      42.806 -16.547   3.973  1.00  0.00     0.071 A 
BRANCH  25  27
HETATM   27  C   UNL     1      43.852 -18.923   3.784  1.00  0.00    -0.005 A 
HETATM   28  C   UNL     1      44.622 -19.919   4.409  1.00  0.00     0.017 A 
HETATM   29  C   UNL     1      44.897 -21.124   3.753  1.00  0.00     0.043 A 
HETATM   30  C   UNL     1      44.403 -21.338   2.473  1.00  0.00     0.116 A 
HETATM   31  F   UNL     1      44.668 -22.493   1.848  1.00  0.00    -0.206 F 
HETATM   32  C   UNL     1      43.641 -20.370   1.832  1.00  0.00     0.043 A 
HETATM   33  C   UNL     1      43.368 -19.166   2.486  1.00  0.00     0.017 A 
ENDBRANCH  25  27
ENDBRANCH   2  21
TORSDOF 9
ENDMDL
MODEL 10
REMARK VINA RESULT:      -7.9      8.207     11.163
REMARK  9 active torsions:
REMARK  status: ('A' for Active; 'I' for Inactive)
REMARK       I    between atoms: C_2  and  N_3 
REMARK    1  A    between atoms: N_3  and  C_4 
REMARK    2  A    between atoms: C_6  and  O_7 
REMARK    3  A    between atoms: O_7  and  C_8 
REMARK    4  A    between atoms: C_8  and  C_9 
REMARK    5  A    between atoms: C_9  and  C_10 
REMARK    6  A    between atoms: C_10  and  C_11 
REMARK    7  A    between atoms: C_11  and  N_12 
REMARK       I    between atoms: N_12  and  C_13 
REMARK    8  A    between atoms: C_13  and  C_14 
REMARK    9  A    between atoms: C_18  and  C_19 
ROOT
HETATM    1  N   UNL     1      40.816 -14.012   2.771  1.00  0.00    -0.345 N 
HETATM    2  C   UNL     1      40.935 -15.075   1.912  1.00  0.00     0.270 C 
HETATM    3  O   UNL     1      40.340 -15.130   0.841  1.00  0.00    -0.266 OA
HETATM    4  H   UNL     1      41.405 -13.953   3.586  1.00  0.00     0.163 HD
ENDROOT
BRANCH   1   5
HETATM    5  C   UNL     1      40.027 -12.862   2.419  1.00  0.00     0.217 C 
BRANCH   5   6
HETATM    6  C   UNL     1      40.896 -11.891   1.637  1.00  0.00    -0.085 C 
BRANCH   6   7
HETATM    7  C   UNL     1      41.641 -11.057   0.966  1.00  0.00    -0.078 C 
BRANCH   7   8
HETATM    8  C   UNL     1      42.510 -10.086   0.183  1.00  0.00     0.269 C 
BRANCH   8   9
HETATM    9  O   UNL     1      43.388 -10.803  -0.679  1.00  0.00    -0.339 OA
BRANCH   9  10
HETATM   10  C   UNL     1      42.836 -11.261  -1.849  1.00  0.00     0.072 A 
HETATM   11  C   UNL     1      42.289 -12.535  -2.054  1.00  0.00     0.066 A 
HETATM   12  C   UNL     1      41.729 -12.886  -3.287  1.00  0.00     0.037 A 
HETATM   13  C   UNL     1      41.739 -11.949  -4.327  1.00  0.00     0.029 A 
HETATM   14  C   UNL     1      42.290 -10.682  -4.134  1.00  0.00     0.005 A 
HETATM   15  C   UNL     1      42.834 -10.340  -2.897  1.00  0.00     0.037 A 
BRANCH  12  16
HETATM   16  N   UNL     1      41.141 -14.142  -3.552  1.00  0.00    -0.327 N 
HETATM   17  C   UNL     1      39.794 -14.461  -3.553  1.00  0.00     0.218 C 
HETATM   18  C   UNL     1      39.543 -15.906  -3.904  1.00  0.00     0.117 C 
HETATM   19  O   UNL     1      38.856 -13.700  -3.338  1.00  0.00    -0.274 OA
HETATM   20  H   UNL     1      41.783 -14.887  -3.795  1.00  0.00     0.169 HD
ENDBRANCH  12  16
ENDBRANCH   9  10
ENDBRANCH   8   9
ENDBRANCH   7   8
ENDBRANCH   6   7
ENDBRANCH   5   6
ENDBRANCH   1   5
BRANCH   2  21
HETATM   21  C   UNL     1      41.819 -16.121   2.351  1.00  0.00     0.120 A 
HETATM   22  N   UNL     1      42.836 -15.875   3.230  1.00  0.00    -0.272 N 
HETATM   23  H   UNL     1      43.074 -14.981   3.649  1.00  0.00     0.189 HD
HETATM   24  N   UNL     1      43.567 -16.955   3.541  1.00  0.00    -0.174 NA
HETATM   25  C   UNL     1      43.012 -17.958   2.843  1.00  0.00     0.089 A 
HETATM   26  C   UNL     1      41.916 -17.470   2.076  1.00  0.00     0.071 A 
BRANCH  25  27
HETATM   27  C   UNL     1      43.532 -19.328   2.918  1.00  0.00    -0.005 A 
HETATM   28  C   UNL     1      44.284 -19.762   4.024  1.00  0.00     0.017 A 
HETATM   29  C   UNL     1      44.775 -21.070   4.083  1.00  0.00     0.043 A 
HETATM   30  C   UNL     1      44.516 -21.949   3.039  1.00  0.00     0.116 A 
HETATM   31  F   UNL     1      44.988 -23.202   3.099  1.00  0.00    -0.206 F 
HETATM   32  C   UNL     1      43.778 -21.546   1.935  1.00  0.00     0.043 A 
HETATM   33  C   UNL     1      43.288 -20.240   1.875  1.00  0.00     0.017 A 
ENDBRANCH  25  27
ENDBRANCH   2  21
TORSDOF 9
ENDMDL
