MODEL 1
REMARK VINA RESULT:      -8.0      0.000      0.000
REMARK  7 active torsions:
REMARK  status: ('A' for Active; 'I' for Inactive)
REMARK    1  A    between atoms: C_2  and  C_3 
REMARK    2  A    between atoms: C_3  and  N_4 
REMARK       I    between atoms: N_4  and  C_5 
REMARK    3  A    between atoms: C_5  and  C_6 
REMARK    4  A    between atoms: C_9  and  N_10 
REMARK       I    between atoms: N_10  and  C_11 
REMARK    5  A    between atoms: C_11  and  C_12 
REMARK    6  A    between atoms: C_14  and  O_15 
REMARK    7  A    between atoms: O_15  and  C_16 
ROOT
HETATM    1  N   UNL     1      44.023 -14.397   7.377  1.00  0.00    -0.323 N 
HETATM    2  C   UNL     1      45.090 -13.516   7.407  1.00  0.00     0.256 C 
HETATM    3  O   UNL     1      45.951 -13.384   6.546  1.00  0.00    -0.267 OA
HETATM    4  H   UNL     1      43.302 -14.276   8.074  1.00  0.00     0.169 HD
ENDROOT
BRANCH   1   5
HETATM    5  C   UNL     1      43.819 -15.460   6.474  1.00  0.00     0.035 A 
HETATM    6  C   UNL     1      43.148 -15.335   5.255  1.00  0.00     0.030 A 
HETATM    7  C   UNL     1      43.051 -16.424   4.376  1.00  0.00     0.019 A 
HETATM    8  C   UNL     1      43.638 -17.650   4.703  1.00  0.00     0.032 A 
HETATM    9  C   UNL     1      44.278 -17.787   5.941  1.00  0.00     0.019 A 
HETATM   10  C   UNL     1      44.367 -16.701   6.817  1.00  0.00     0.030 A 
BRANCH   8  11
HETATM   11  C   UNL     1      43.624 -18.828   3.787  1.00  0.00     0.251 C 
HETATM   12  N   UNL     1      44.612 -19.775   3.973  1.00  0.00    -0.357 N 
HETATM   13  H   UNL     1      45.211 -19.716   4.785  1.00  0.00     0.162 HD
HETATM   14  O   UNL     1      42.733 -18.941   2.952  1.00  0.00    -0.268 OA
BRANCH  12  15
HETATM   15  C   UNL     1      44.606 -21.027   3.241  1.00  0.00     0.122 C 
BRANCH  15  16
HETATM   16  C   UNL     1      44.766 -22.255   4.134  1.00  0.00     0.015 C 
HETATM   17  C   UNL     1      44.589 -21.936   5.611  1.00  0.00     0.006 C 
ENDBRANCH  15  16
ENDBRANCH  12  15
ENDBRANCH   8  11
ENDBRANCH   1   5
BRANCH   2  18
HETATM   18  C   UNL     1      45.173 -12.653   8.622  1.00  0.00     0.037 A 
HETATM   19  C   UNL     1      44.273 -12.878   9.662  1.00  0.00     0.075 A 
HETATM   20  C   UNL     1      44.310 -12.020  10.744  1.00  0.00     0.165 A 
HETATM   21  N   UNL     1      45.174 -10.990  10.861  1.00  0.00    -0.237 NA
HETATM   22  C   UNL     1      46.029 -10.792   9.839  1.00  0.00     0.120 A 
HETATM   23  C   UNL     1      46.066 -11.581   8.703  1.00  0.00     0.036 A 
BRANCH  20  24
HETATM   24  O   UNL     1      43.389 -12.240  11.750  1.00  0.00    -0.329 OA
BRANCH  24  25
HETATM   25  C   UNL     1      42.599 -11.096  12.140  1.00  0.00     0.130 C 
HETATM   26  C   UNL     1      41.202 -11.436  12.720  1.00  0.00     0.032 C 
HETATM   27  C   UNL     1      41.391 -10.260  13.695  1.00  0.00     0.005 C 
HETATM   28  C   UNL     1      42.909 -10.451  13.518  1.00  0.00     0.032 C 
ENDBRANCH  24  25
ENDBRANCH  20  24
ENDBRANCH   2  18
TORSDOF 7
ENDMDL
MODEL 2
REMARK VINA RESULT:      -7.8      1.785      2.102
REMARK  7 active torsions:
REMARK  status: ('A' for Active; 'I' for Inactive)
REMARK    1  A    between atoms: C_2  and  C_3 
REMARK    2  A    between atoms: C_3  and  N_4 
REMARK       I    between atoms: N_4  and  C_5 
REMARK    3  A    between atoms: C_5  and  C_6 
REMARK    4  A    between atoms: C_9  and  N_10 
REMARK       I    between atoms: N_10  and  C_11 
REMARK    5  A    between atoms: C_11  and  C_12 
REMARK    6  A    between atoms: C_14  and  O_15 
REMARK    7  A    between atoms: O_15  and  C_16 
ROOT
HETATM    1  N   UNL     1      43.793 -14.782   7.665  1.00  0.00    -0.323 N 
HETATM    2  C   UNL     1      44.771 -13.816   7.506  1.00  0.00     0.256 C 
HETATM    3  O   UNL     1      45.703 -13.846   6.711  1.00  0.00    -0.267 OA
HETATM    4  H   UNL     1      42.995 -14.545   8.238  1.00  0.00     0.169 HD
ENDROOT
BRANCH   1   5
HETATM    5  C   UNL     1      43.776 -16.079   7.111  1.00  0.00     0.035 A 
HETATM    6  C   UNL     1      43.769 -16.347   5.741  1.00  0.00     0.030 A 
HETATM    7  C   UNL     1      43.828 -17.666   5.268  1.00  0.00     0.019 A 
HETATM    8  C   UNL     1      43.908 -18.735   6.166  1.00  0.00     0.032 A 
HETATM    9  C   UNL     1      43.876 -18.471   7.540  1.00  0.00     0.019 A 
HETATM   10  C   UNL     1      43.811 -17.154   8.007  1.00  0.00     0.030 A 
BRANCH   8  11
HETATM   11  C   UNL     1      44.035 -20.156   5.728  1.00  0.00     0.251 C 
HETATM   12  N   UNL     1      44.485 -20.375   4.441  1.00  0.00    -0.357 N 
HETATM   13  H   UNL     1      44.836 -19.599   3.898  1.00  0.00     0.162 HD
HETATM   14  O   UNL     1      43.789 -21.062   6.518  1.00  0.00    -0.268 OA
BRANCH  12  15
HETATM   15  C   UNL     1      44.786 -21.711   3.964  1.00  0.00     0.122 C 
BRANCH  15  16
HETATM   16  C   UNL     1      44.430 -21.926   2.494  1.00  0.00     0.015 C 
HETATM   17  C   UNL     1      43.604 -20.788   1.915  1.00  0.00     0.006 C 
ENDBRANCH  15  16
ENDBRANCH  12  15
ENDBRANCH   8  11
ENDBRANCH   1   5
BRANCH   2  18
HETATM   18  C   UNL     1      44.653 -12.633   8.407  1.00  0.00     0.037 A 
HETATM   19  C   UNL     1      43.439 -11.948   8.453  1.00  0.00     0.075 A 
HETATM   20  C   UNL     1      43.370 -10.808   9.229  1.00  0.00     0.165 A 
HETATM   21  N   UNL     1      44.400 -10.327   9.956  1.00  0.00    -0.237 NA
HETATM   22  C   UNL     1      45.563 -11.004   9.890  1.00  0.00     0.120 A 
HETATM   23  C   UNL     1      45.745 -12.147   9.131  1.00  0.00     0.036 A 
BRANCH  20  24
HETATM   24  O   UNL     1      42.169 -10.126   9.236  1.00  0.00    -0.329 OA
BRANCH  24  25
HETATM   25  C   UNL     1      41.578  -9.906  10.535  1.00  0.00     0.130 C 
HETATM   26  C   UNL     1      40.202  -9.191  10.511  1.00  0.00     0.032 C 
HETATM   27  C   UNL     1      39.786 -10.091  11.689  1.00  0.00     0.005 C 
HETATM   28  C   UNL     1      40.839 -11.101  11.195  1.00  0.00     0.032 C 
ENDBRANCH  24  25
ENDBRANCH  20  24
ENDBRANCH   2  18
TORSDOF 7
ENDMDL
MODEL 3
REMARK VINA RESULT:      -7.4      5.283      9.345
REMARK  7 active torsions:
REMARK  status: ('A' for Active; 'I' for Inactive)
REMARK    1  A    between atoms: C_2  and  C_3 
REMARK    2  A    between atoms: C_3  and  N_4 
REMARK       I    between atoms: N_4  and  C_5 
REMARK    3  A    between atoms: C_5  and  C_6 
REMARK    4  A    between atoms: C_9  and  N_10 
REMARK       I    between atoms: N_10  and  C_11 
REMARK    5  A    between atoms: C_11  and  C_12 
REMARK    6  A    between atoms: C_14  and  O_15 
REMARK    7  A    between atoms: O_15  and  C_16 
ROOT
HETATM    1  N   UNL     1      41.731 -16.570   3.580  1.00  0.00    -0.323 N 
HETATM    2  C   UNL     1      42.438 -16.037   4.644  1.00  0.00     0.256 C 
HETATM    3  O   UNL     1      42.530 -14.851   4.937  1.00  0.00    -0.267 OA
HETATM    4  H   UNL     1      41.606 -17.573   3.562  1.00  0.00     0.169 HD
ENDROOT
BRANCH   1   5
HETATM    5  C   UNL     1      41.154 -15.869   2.502  1.00  0.00     0.035 A 
HETATM    6  C   UNL     1      41.729 -15.769   1.233  1.00  0.00     0.030 A 
HETATM    7  C   UNL     1      41.056 -15.116   0.190  1.00  0.00     0.019 A 
HETATM    8  C   UNL     1      39.788 -14.565   0.404  1.00  0.00     0.032 A 
HETATM    9  C   UNL     1      39.227 -14.630   1.685  1.00  0.00     0.019 A 
HETATM   10  C   UNL     1      39.905 -15.277   2.724  1.00  0.00     0.030 A 
BRANCH   8  11
HETATM   11  C   UNL     1      38.993 -13.911  -0.676  1.00  0.00     0.251 C 
HETATM   12  N   UNL     1      38.977 -14.539  -1.907  1.00  0.00    -0.357 N 
HETATM   13  H   UNL     1      39.375 -15.463  -1.999  1.00  0.00     0.162 HD
HETATM   14  O   UNL     1      38.356 -12.892  -0.434  1.00  0.00    -0.268 OA
BRANCH  12  15
HETATM   15  C   UNL     1      38.121 -14.074  -2.981  1.00  0.00     0.122 C 
BRANCH  15  16
HETATM   16  C   UNL     1      37.734 -15.172  -3.969  1.00  0.00     0.015 C 
HETATM   17  C   UNL     1      38.879 -16.127  -4.266  1.00  0.00     0.006 C 
ENDBRANCH  15  16
ENDBRANCH  12  15
ENDBRANCH   8  11
ENDBRANCH   1   5
BRANCH   2  18
HETATM   18  C   UNL     1      43.149 -17.030   5.501  1.00  0.00     0.037 A 
HETATM   19  C   UNL     1      43.840 -18.071   4.884  1.00  0.00     0.075 A 
HETATM   20  C   UNL     1      44.424 -19.027   5.691  1.00  0.00     0.165 A 
HETATM   21  N   UNL     1      44.379 -19.004   7.040  1.00  0.00    -0.237 NA
HETATM   22  C   UNL     1      43.700 -17.990   7.612  1.00  0.00     0.120 A 
HETATM   23  C   UNL     1      43.065 -16.991   6.896  1.00  0.00     0.036 A 
BRANCH  20  24
HETATM   24  O   UNL     1      45.077 -20.067   5.060  1.00  0.00    -0.329 OA
BRANCH  24  25
HETATM   25  C   UNL     1      44.314 -20.771   4.056  1.00  0.00     0.130 C 
HETATM   26  C   UNL     1      44.828 -20.590   2.604  1.00  0.00     0.032 C 
HETATM   27  C   UNL     1      44.445 -22.060   2.354  1.00  0.00     0.005 C 
HETATM   28  C   UNL     1      44.605 -22.285   3.869  1.00  0.00     0.032 C 
ENDBRANCH  24  25
ENDBRANCH  20  24
ENDBRANCH   2  18
TORSDOF 7
ENDMDL
MODEL 4
REMARK VINA RESULT:      -7.4      2.884      3.727
REMARK  7 active torsions:
REMARK  status: ('A' for Active; 'I' for Inactive)
REMARK    1  A    between atoms: C_2  and  C_3 
REMARK    2  A    between atoms: C_3  and  N_4 
REMARK       I    between atoms: N_4  and  C_5 
REMARK    3  A    between atoms: C_5  and  C_6 
REMARK    4  A    between atoms: C_9  and  N_10 
REMARK       I    between atoms: N_10  and  C_11 
REMARK    5  A    between atoms: C_11  and  C_12 
REMARK    6  A    between atoms: C_14  and  O_15 
REMARK    7  A    between atoms: O_15  and  C_16 
ROOT
HETATM    1  N   UNL     1      41.635 -14.623   6.059  1.00  0.00    -0.323 N 
HETATM    2  C   UNL     1      40.913 -13.571   5.523  1.00  0.00     0.256 C 
HETATM    3  O   UNL     1      40.358 -13.549   4.431  1.00  0.00    -0.267 OA
HETATM    4  H   UNL     1      41.891 -14.561   7.034  1.00  0.00     0.169 HD
ENDROOT
BRANCH   1   5
HETATM    5  C   UNL     1      42.061 -15.792   5.395  1.00  0.00     0.035 A 
HETATM    6  C   UNL     1      41.514 -17.059   5.609  1.00  0.00     0.030 A 
HETATM    7  C   UNL     1      41.941 -18.161   4.854  1.00  0.00     0.019 A 
HETATM    8  C   UNL     1      42.916 -18.003   3.864  1.00  0.00     0.032 A 
HETATM    9  C   UNL     1      43.492 -16.742   3.674  1.00  0.00     0.019 A 
HETATM   10  C   UNL     1      43.068 -15.647   4.433  1.00  0.00     0.030 A 
BRANCH   8  11
HETATM   11  C   UNL     1      43.370 -19.120   2.985  1.00  0.00     0.251 C 
HETATM   12  N   UNL     1      44.145 -20.102   3.573  1.00  0.00    -0.357 N 
HETATM   13  H   UNL     1      44.261 -20.109   4.576  1.00  0.00     0.162 HD
HETATM   14  O   UNL     1      43.013 -19.158   1.813  1.00  0.00    -0.268 OA
BRANCH  12  15
HETATM   15  C   UNL     1      44.515 -21.304   2.851  1.00  0.00     0.122 C 
BRANCH  15  16
HETATM   16  C   UNL     1      44.653 -22.532   3.748  1.00  0.00     0.015 C 
HETATM   17  C   UNL     1      44.811 -22.174   5.218  1.00  0.00     0.006 C 
ENDBRANCH  15  16
ENDBRANCH  12  15
ENDBRANCH   8  11
ENDBRANCH   1   5
BRANCH   2  18
HETATM   18  C   UNL     1      40.820 -12.355   6.383  1.00  0.00     0.037 A 
HETATM   19  C   UNL     1      41.987 -11.856   6.960  1.00  0.00     0.075 A 
HETATM   20  C   UNL     1      41.873 -10.780   7.818  1.00  0.00     0.165 A 
HETATM   21  N   UNL     1      40.705 -10.175   8.118  1.00  0.00    -0.237 NA
HETATM   22  C   UNL     1      39.592 -10.680   7.551  1.00  0.00     0.120 A 
HETATM   23  C   UNL     1      39.592 -11.764   6.691  1.00  0.00     0.036 A 
BRANCH  20  24
HETATM   24  O   UNL     1      43.036 -10.320   8.405  1.00  0.00    -0.329 OA
BRANCH  24  25
HETATM   25  C   UNL     1      43.617 -11.181   9.408  1.00  0.00     0.130 C 
HETATM   26  C   UNL     1      45.077 -11.619   9.123  1.00  0.00     0.032 C 
HETATM   27  C   UNL     1      45.337 -11.512  10.636  1.00  0.00     0.005 C 
HETATM   28  C   UNL     1      44.171 -10.508  10.693  1.00  0.00     0.032 C 
ENDBRANCH  24  25
ENDBRANCH  20  24
ENDBRANCH   2  18
TORSDOF 7
ENDMDL
MODEL 5
REMARK VINA RESULT:      -7.2      2.852      3.523
REMARK  7 active torsions:
REMARK  status: ('A' for Active; 'I' for Inactive)
REMARK    1  A    between atoms: C_2  and  C_3 
REMARK    2  A    between atoms: C_3  and  N_4 
REMARK       I    between atoms: N_4  and  C_5 
REMARK    3  A    between atoms: C_5  and  C_6 
REMARK    4  A    between atoms: C_9  and  N_10 
REMARK       I    between atoms: N_10  and  C_11 
REMARK    5  A    between atoms: C_11  and  C_12 
REMARK    6  A    between atoms: C_14  and  O_15 
REMARK    7  A    between atoms: O_15  and  C_16 
ROOT
HETATM    1  N   UNL     1      41.839 -14.351   6.360  1.00  0.00    -0.323 N 
HETATM    2  C   UNL     1      41.943 -13.268   5.505  1.00  0.00     0.256 C 
HETATM    3  O   UNL     1      42.240 -13.303   4.317  1.00  0.00    -0.267 OA
HETATM    4  H   UNL     1      41.422 -14.189   7.266  1.00  0.00     0.169 HD
ENDROOT
BRANCH   1   5
HETATM    5  C   UNL     1      42.250 -15.677   6.112  1.00  0.00     0.035 A 
HETATM    6  C   UNL     1      41.486 -16.619   5.421  1.00  0.00     0.030 A 
HETATM    7  C   UNL     1      41.997 -17.897   5.150  1.00  0.00     0.019 A 
HETATM    8  C   UNL     1      43.289 -18.242   5.559  1.00  0.00     0.032 A 
HETATM    9  C   UNL     1      44.041 -17.313   6.285  1.00  0.00     0.019 A 
HETATM   10  C   UNL     1      43.526 -16.042   6.559  1.00  0.00     0.030 A 
BRANCH   8  11
HETATM   11  C   UNL     1      43.914 -19.561   5.249  1.00  0.00     0.251 C 
HETATM   12  N   UNL     1      44.339 -19.762   3.950  1.00  0.00    -0.357 N 
HETATM   13  H   UNL     1      44.342 -18.986   3.303  1.00  0.00     0.162 HD
HETATM   14  O   UNL     1      44.071 -20.387   6.143  1.00  0.00    -0.268 OA
BRANCH  12  15
HETATM   15  C   UNL     1      45.091 -20.944   3.575  1.00  0.00     0.122 C 
BRANCH  15  16
HETATM   16  C   UNL     1      44.462 -21.725   2.424  1.00  0.00     0.015 C 
HETATM   17  C   UNL     1      43.291 -20.994   1.786  1.00  0.00     0.006 C 
ENDBRANCH  15  16
ENDBRANCH  12  15
ENDBRANCH   8  11
ENDBRANCH   1   5
BRANCH   2  18
HETATM   18  C   UNL     1      41.660 -11.939   6.120  1.00  0.00     0.037 A 
HETATM   19  C   UNL     1      42.348 -11.580   7.278  1.00  0.00     0.075 A 
HETATM   20  C   UNL     1      42.017 -10.382   7.880  1.00  0.00     0.165 A 
HETATM   21  N   UNL     1      41.081  -9.533   7.407  1.00  0.00    -0.237 NA
HETATM   22  C   UNL     1      40.428  -9.906   6.289  1.00  0.00     0.120 A 
HETATM   23  C   UNL     1      40.670 -11.091   5.617  1.00  0.00     0.036 A 
BRANCH  20  24
HETATM   24  O   UNL     1      42.687 -10.059   9.045  1.00  0.00    -0.329 OA
BRANCH  24  25
HETATM   25  C   UNL     1      43.521 -11.099   9.600  1.00  0.00     0.130 C 
HETATM   26  C   UNL     1      45.018 -10.722   9.749  1.00  0.00     0.032 C 
HETATM   27  C   UNL     1      45.025 -11.535  11.057  1.00  0.00     0.005 C 
HETATM   28  C   UNL     1      43.510 -11.276  11.142  1.00  0.00     0.032 C 
ENDBRANCH  24  25
ENDBRANCH  20  24
ENDBRANCH   2  18
TORSDOF 7
ENDMDL
MODEL 6
REMARK VINA RESULT:      -7.1      6.611     10.711
REMARK  7 active torsions:
REMARK  status: ('A' for Active; 'I' for Inactive)
REMARK    1  A    between atoms: C_2  and  C_3 
REMARK    2  A    between atoms: C_3  and  N_4 
REMARK       I    between atoms: N_4  and  C_5 
REMARK    3  A    between atoms: C_5  and  C_6 
REMARK    4  A    between atoms: C_9  and  N_10 
REMARK       I    between atoms: N_10  and  C_11 
REMARK    5  A    between atoms: C_11  and  C_12 
REMARK    6  A    between atoms: C_14  and  O_15 
REMARK    7  A    between atoms: O_15  and  C_16 
ROOT
HETATM    1  N   UNL     1      42.012 -16.253  -0.051  1.00  0.00    -0.323 N 
HETATM    2  C   UNL     1      41.680 -14.920  -0.222  1.00  0.00     0.256 C 
HETATM    3  O   UNL     1      41.858 -14.015   0.585  1.00  0.00    -0.267 OA
HETATM    4  H   UNL     1      41.963 -16.851  -0.863  1.00  0.00     0.169 HD
ENDROOT
BRANCH   1   5
HETATM    5  C   UNL     1      42.420 -16.884   1.142  1.00  0.00     0.035 A 
HETATM    6  C   UNL     1      41.623 -16.993   2.284  1.00  0.00     0.030 A 
HETATM    7  C   UNL     1      42.073 -17.702   3.407  1.00  0.00     0.019 A 
HETATM    8  C   UNL     1      43.325 -18.324   3.394  1.00  0.00     0.032 A 
HETATM    9  C   UNL     1      44.141 -18.184   2.265  1.00  0.00     0.019 A 
HETATM   10  C   UNL     1      43.691 -17.471   1.150  1.00  0.00     0.030 A 
BRANCH   8  11
HETATM   11  C   UNL     1      43.838 -19.144   4.531  1.00  0.00     0.251 C 
HETATM   12  N   UNL     1      43.535 -18.704   5.805  1.00  0.00    -0.357 N 
HETATM   13  H   UNL     1      42.881 -17.944   5.926  1.00  0.00     0.162 HD
HETATM   14  O   UNL     1      44.453 -20.181   4.306  1.00  0.00    -0.268 OA
BRANCH  12  15
HETATM   15  C   UNL     1      43.854 -19.500   6.974  1.00  0.00     0.122 C 
BRANCH  15  16
HETATM   16  C   UNL     1      44.182 -18.663   8.209  1.00  0.00     0.015 C 
HETATM   17  C   UNL     1      43.406 -17.356   8.257  1.00  0.00     0.006 C 
ENDBRANCH  15  16
ENDBRANCH  12  15
ENDBRANCH   8  11
ENDBRANCH   1   5
BRANCH   2  18
HETATM   18  C   UNL     1      41.044 -14.582  -1.528  1.00  0.00     0.037 A 
HETATM   19  C   UNL     1      40.851 -13.239  -1.849  1.00  0.00     0.075 A 
HETATM   20  C   UNL     1      40.189 -12.945  -3.024  1.00  0.00     0.165 A 
HETATM   21  N   UNL     1      39.732 -13.877  -3.886  1.00  0.00    -0.237 NA
HETATM   22  C   UNL     1      39.927 -15.167  -3.551  1.00  0.00     0.120 A 
HETATM   23  C   UNL     1      40.563 -15.571  -2.391  1.00  0.00     0.036 A 
BRANCH  20  24
HETATM   24  O   UNL     1      39.978 -11.609  -3.308  1.00  0.00    -0.329 OA
BRANCH  24  25
HETATM   25  C   UNL     1      40.770 -11.063  -4.384  1.00  0.00     0.130 C 
HETATM   26  C   UNL     1      41.136  -9.564  -4.227  1.00  0.00     0.032 C 
HETATM   27  C   UNL     1      42.500  -9.897  -4.857  1.00  0.00     0.005 C 
HETATM   28  C   UNL     1      42.298 -11.340  -4.359  1.00  0.00     0.032 C 
ENDBRANCH  24  25
ENDBRANCH  20  24
ENDBRANCH   2  18
TORSDOF 7
ENDMDL
MODEL 7
REMARK VINA RESULT:      -7.0      6.169      9.808
REMARK  7 active torsions:
REMARK  status: ('A' for Active; 'I' for Inactive)
REMARK    1  A    between atoms: C_2  and  C_3 
REMARK    2  A    between atoms: C_3  and  N_4 
REMARK       I    between atoms: N_4  and  C_5 
REMARK    3  A    between atoms: C_5  and  C_6 
REMARK    4  A    between atoms: C_9  and  N_10 
REMARK       I    between atoms: N_10  and  C_11 
REMARK    5  A    between atoms: C_11  and  C_12 
REMARK    6  A    between atoms: C_14  and  O_15 
REMARK    7  A    between atoms: O_15  and  C_16 
ROOT
HETATM    1  N   UNL     1      41.894 -17.380   1.597  1.00  0.00    -0.323 N 
HETATM    2  C   UNL     1      43.249 -17.625   1.737  1.00  0.00     0.256 C 
HETATM    3  O   UNL     1      44.162 -16.868   1.428  1.00  0.00    -0.267 OA
HETATM    4  H   UNL     1      41.258 -18.022   2.050  1.00  0.00     0.169 HD
ENDROOT
BRANCH   1   5
HETATM    5  C   UNL     1      41.285 -16.324   0.889  1.00  0.00     0.035 A 
HETATM    6  C   UNL     1      41.508 -16.056  -0.463  1.00  0.00     0.030 A 
HETATM    7  C   UNL     1      40.807 -15.031  -1.116  1.00  0.00     0.019 A 
HETATM    8  C   UNL     1      39.863 -14.269  -0.421  1.00  0.00     0.032 A 
HETATM    9  C   UNL     1      39.667 -14.510   0.943  1.00  0.00     0.019 A 
HETATM   10  C   UNL     1      40.372 -15.529   1.592  1.00  0.00     0.030 A 
BRANCH   8  11
HETATM   11  C   UNL     1      39.040 -13.206  -1.070  1.00  0.00     0.251 C 
HETATM   12  N   UNL     1      38.417 -13.536  -2.258  1.00  0.00    -0.357 N 
HETATM   13  H   UNL     1      38.421 -14.497  -2.571  1.00  0.00     0.162 HD
HETATM   14  O   UNL     1      38.906 -12.118  -0.520  1.00  0.00    -0.268 OA
BRANCH  12  15
HETATM   15  C   UNL     1      37.478 -12.633  -2.894  1.00  0.00     0.122 C 
BRANCH  15  16
HETATM   16  C   UNL     1      36.687 -13.280  -4.029  1.00  0.00     0.015 C 
HETATM   17  C   UNL     1      36.932 -14.777  -4.140  1.00  0.00     0.006 C 
ENDBRANCH  15  16
ENDBRANCH  12  15
ENDBRANCH   8  11
ENDBRANCH   1   5
BRANCH   2  18
HETATM   18  C   UNL     1      43.603 -18.950   2.325  1.00  0.00     0.037 A 
HETATM   19  C   UNL     1      43.988 -19.004   3.663  1.00  0.00     0.075 A 
HETATM   20  C   UNL     1      44.390 -20.223   4.170  1.00  0.00     0.165 A 
HETATM   21  N   UNL     1      44.416 -21.367   3.454  1.00  0.00    -0.237 NA
HETATM   22  C   UNL     1      44.044 -21.286   2.161  1.00  0.00     0.120 A 
HETATM   23  C   UNL     1      43.640 -20.112   1.550  1.00  0.00     0.036 A 
BRANCH  20  24
HETATM   24  O   UNL     1      44.800 -20.250   5.489  1.00  0.00    -0.329 OA
BRANCH  24  25
HETATM   25  C   UNL     1      44.134 -19.323   6.374  1.00  0.00     0.130 C 
HETATM   26  C   UNL     1      43.831 -19.878   7.790  1.00  0.00     0.032 C 
HETATM   27  C   UNL     1      44.144 -18.474   8.337  1.00  0.00     0.005 C 
HETATM   28  C   UNL     1      45.012 -18.257   7.083  1.00  0.00     0.032 C 
ENDBRANCH  24  25
ENDBRANCH  20  24
ENDBRANCH   2  18
TORSDOF 7
ENDMDL
MODEL 8
REMARK VINA RESULT:      -7.0      3.130      3.876
REMARK  7 active torsions:
REMARK  status: ('A' for Active; 'I' for Inactive)
REMARK    1  A    between atoms: C_2  and  C_3 
REMARK    2  A    between atoms: C_3  and  N_4 
REMARK       I    between atoms: N_4  and  C_5 
REMARK    3  A    between atoms: C_5  and  C_6 
REMARK    4  A    between atoms: C_9  and  N_10 
REMARK       I    between atoms: N_10  and  C_11 
REMARK    5  A    between atoms: C_11  and  C_12 
REMARK    6  A    between atoms: C_14  and  O_15 
REMARK    7  A    between atoms: O_15  and  C_16 
ROOT
HETATM    1  N   UNL     1      41.572 -13.050   6.279  1.00  0.00    -0.323 N 
HETATM    2  C   UNL     1      40.994 -11.860   5.871  1.00  0.00     0.256 C 
HETATM    3  O   UNL     1      40.515 -11.623   4.768  1.00  0.00    -0.267 OA
HETATM    4  H   UNL     1      41.769 -13.156   7.265  1.00  0.00     0.169 HD
ENDROOT
BRANCH   1   5
HETATM    5  C   UNL     1      41.923 -14.150   5.470  1.00  0.00     0.035 A 
HETATM    6  C   UNL     1      41.119 -15.277   5.287  1.00  0.00     0.030 A 
HETATM    7  C   UNL     1      41.506 -16.298   4.407  1.00  0.00     0.019 A 
HETATM    8  C   UNL     1      42.701 -16.195   3.687  1.00  0.00     0.032 A 
HETATM    9  C   UNL     1      43.526 -15.085   3.899  1.00  0.00     0.019 A 
HETATM   10  C   UNL     1      43.140 -14.072   4.783  1.00  0.00     0.030 A 
BRANCH   8  11
HETATM   11  C   UNL     1      43.140 -17.215   2.690  1.00  0.00     0.251 C 
HETATM   12  N   UNL     1      42.801 -18.528   2.950  1.00  0.00    -0.357 N 
HETATM   13  H   UNL     1      42.167 -18.738   3.709  1.00  0.00     0.162 HD
HETATM   14  O   UNL     1      43.730 -16.861   1.675  1.00  0.00    -0.268 OA
BRANCH  12  15
HETATM   15  C   UNL     1      43.047 -19.578   1.980  1.00  0.00     0.122 C 
BRANCH  15  16
HETATM   16  C   UNL     1      44.182 -20.519   2.376  1.00  0.00     0.015 C 
HETATM   17  C   UNL     1      44.065 -21.889   1.728  1.00  0.00     0.006 C 
ENDBRANCH  15  16
ENDBRANCH  12  15
ENDBRANCH   8  11
ENDBRANCH   1   5
BRANCH   2  18
HETATM   18  C   UNL     1      40.965 -10.778   6.897  1.00  0.00     0.037 A 
HETATM   19  C   UNL     1      41.884 -10.827   7.944  1.00  0.00     0.075 A 
HETATM   20  C   UNL     1      41.792  -9.864   8.930  1.00  0.00     0.165 A 
HETATM   21  N   UNL     1      40.878  -8.871   8.931  1.00  0.00    -0.237 NA
HETATM   22  C   UNL     1      39.999  -8.850   7.911  1.00  0.00     0.120 A 
HETATM   23  C   UNL     1      39.992  -9.775   6.882  1.00  0.00     0.036 A 
BRANCH  20  24
HETATM   24  O   UNL     1      42.691  -9.948   9.975  1.00  0.00    -0.329 OA
BRANCH  24  25
HETATM   25  C   UNL     1      43.587 -11.080   9.945  1.00  0.00     0.130 C 
HETATM   26  C   UNL     1      45.095 -10.717   9.943  1.00  0.00     0.032 C 
HETATM   27  C   UNL     1      45.327 -11.950  10.834  1.00  0.00     0.005 C 
HETATM   28  C   UNL     1      43.862 -11.809  11.288  1.00  0.00     0.032 C 
ENDBRANCH  24  25
ENDBRANCH  20  24
ENDBRANCH   2  18
TORSDOF 7
ENDMDL
MODEL 9
REMARK VINA RESULT:      -7.0      6.830     10.913
REMARK  7 active torsions:
REMARK  status: ('A' for Active; 'I' for Inactive)
REMARK    1  A    between atoms: C_2  and  C_3 
REMARK    2  A    between atoms: C_3  and  N_4 
REMARK       I    between atoms: N_4  and  C_5 
REMARK    3  A    between atoms: C_5  and  C_6 
REMARK    4  A    between atoms: C_9  and  N_10 
REMARK       I    between atoms: N_10  and  C_11 
REMARK    5  A    between atoms: C_11  and  C_12 
REMARK    6  A    between atoms: C_14  and  O_15 
REMARK    7  A    between atoms: O_15  and  C_16 
ROOT
HETATM    1  N   UNL     1      41.532 -16.590  -0.102  1.00  0.00    -0.323 N 
HETATM    2  C   UNL     1      41.333 -15.262  -0.434  1.00  0.00     0.256 C 
HETATM    3  O   UNL     1      41.781 -14.287   0.158  1.00  0.00    -0.267 OA
HETATM    4  H   UNL     1      41.244 -17.286  -0.776  1.00  0.00     0.169 HD
ENDROOT
BRANCH   1   5
HETATM    5  C   UNL     1      42.102 -17.097   1.085  1.00  0.00     0.035 A 
HETATM    6  C   UNL     1      41.472 -17.069   2.331  1.00  0.00     0.030 A 
HETATM    7  C   UNL     1      42.074 -17.661   3.451  1.00  0.00     0.019 A 
HETATM    8  C   UNL     1      43.310 -18.303   3.332  1.00  0.00     0.032 A 
HETATM    9  C   UNL     1      43.960 -18.298   2.093  1.00  0.00     0.019 A 
HETATM   10  C   UNL     1      43.360 -17.701   0.979  1.00  0.00     0.030 A 
BRANCH   8  11
HETATM   11  C   UNL     1      43.975 -19.005   4.469  1.00  0.00     0.251 C 
HETATM   12  N   UNL     1      43.509 -18.719   5.738  1.00  0.00    -0.357 N 
HETATM   13  H   UNL     1      42.669 -18.169   5.847  1.00  0.00     0.162 HD
HETATM   14  O   UNL     1      44.857 -19.827   4.246  1.00  0.00    -0.268 OA
BRANCH  12  15
HETATM   15  C   UNL     1      43.980 -19.451   6.897  1.00  0.00     0.122 C 
BRANCH  15  16
HETATM   16  C   UNL     1      44.122 -18.585   8.147  1.00  0.00     0.015 C 
HETATM   17  C   UNL     1      43.293 -17.311   8.078  1.00  0.00     0.006 C 
ENDBRANCH  15  16
ENDBRANCH  12  15
ENDBRANCH   8  11
ENDBRANCH   1   5
BRANCH   2  18
HETATM   18  C   UNL     1      40.484 -15.024  -1.637  1.00  0.00     0.037 A 
HETATM   19  C   UNL     1      39.450 -14.093  -1.551  1.00  0.00     0.075 A 
HETATM   20  C   UNL     1      38.623 -13.943  -2.646  1.00  0.00     0.165 A 
HETATM   21  N   UNL     1      38.764 -14.632  -3.798  1.00  0.00    -0.237 NA
HETATM   22  C   UNL     1      39.768 -15.529  -3.853  1.00  0.00     0.120 A 
HETATM   23  C   UNL     1      40.643 -15.769  -2.809  1.00  0.00     0.036 A 
BRANCH  20  24
HETATM   24  O   UNL     1      37.585 -13.039  -2.529  1.00  0.00    -0.329 OA
BRANCH  24  25
HETATM   25  C   UNL     1      37.235 -12.323  -3.734  1.00  0.00     0.130 C 
HETATM   26  C   UNL     1      36.043 -11.343  -3.585  1.00  0.00     0.032 C 
HETATM   27  C   UNL     1      36.784 -10.397  -4.548  1.00  0.00     0.005 C 
HETATM   28  C   UNL     1      38.089 -11.079  -4.098  1.00  0.00     0.032 C 
ENDBRANCH  24  25
ENDBRANCH  20  24
ENDBRANCH   2  18
TORSDOF 7
ENDMDL
MODEL 10
REMARK VINA RESULT:      -6.9      7.252     10.464
REMARK  7 active torsions:
REMARK  status: ('A' for Active; 'I' for Inactive)
REMARK    1  A    between atoms: C_2  and  C_3 
REMARK    2  A    between atoms: C_3  and  N_4 
REMARK       I    between atoms: N_4  and  C_5 
REMARK    3  A    between atoms: C_5  and  C_6 
REMARK    4  A    between atoms: C_9  and  N_10 
REMARK       I    between atoms: N_10  and  C_11 
REMARK    5  A    between atoms: C_11  and  C_12 
REMARK    6  A    between atoms: C_14  and  O_15 
REMARK    7  A    between atoms: O_15  and  C_16 
ROOT
HETATM    1  N   UNL     1      41.905 -16.075  -0.112  1.00  0.00    -0.323 N 
HETATM    2  C   UNL     1      41.620 -14.727  -0.241  1.00  0.00     0.256 C 
HETATM    3  O   UNL     1      41.844 -13.852   0.586  1.00  0.00    -0.267 OA
HETATM    4  H   UNL     1      41.820 -16.649  -0.940  1.00  0.00     0.169 HD
ENDROOT
BRANCH   1   5
HETATM    5  C   UNL     1      42.310 -16.754   1.056  1.00  0.00     0.035 A 
HETATM    6  C   UNL     1      41.579 -16.773   2.245  1.00  0.00     0.030 A 
HETATM    7  C   UNL     1      42.013 -17.534   3.341  1.00  0.00     0.019 A 
HETATM    8  C   UNL     1      43.181 -18.296   3.252  1.00  0.00     0.032 A 
HETATM    9  C   UNL     1      43.936 -18.247   2.075  1.00  0.00     0.019 A 
HETATM   10  C   UNL     1      43.504 -17.483   0.986  1.00  0.00     0.030 A 
BRANCH   8  11
HETATM   11  C   UNL     1      43.665 -19.174   4.358  1.00  0.00     0.251 C 
HETATM   12  N   UNL     1      44.643 -20.097   4.041  1.00  0.00    -0.357 N 
HETATM   13  H   UNL     1      45.087 -20.058   3.134  1.00  0.00     0.162 HD
HETATM   14  O   UNL     1      43.227 -19.022   5.494  1.00  0.00    -0.268 OA
BRANCH  12  15
HETATM   15  C   UNL     1      45.288 -20.895   5.065  1.00  0.00     0.122 C 
BRANCH  15  16
HETATM   16  C   UNL     1      44.969 -22.386   4.965  1.00  0.00     0.015 C 
HETATM   17  C   UNL     1      44.583 -22.812   3.557  1.00  0.00     0.006 C 
ENDBRANCH  15  16
ENDBRANCH  12  15
ENDBRANCH   8  11
ENDBRANCH   1   5
BRANCH   2  18
HETATM   18  C   UNL     1      40.974 -14.330  -1.526  1.00  0.00     0.037 A 
HETATM   19  C   UNL     1      40.688 -12.983  -1.741  1.00  0.00     0.075 A 
HETATM   20  C   UNL     1      40.017 -12.642  -2.899  1.00  0.00     0.165 A 
HETATM   21  N   UNL     1      39.638 -13.532  -3.841  1.00  0.00    -0.237 NA
HETATM   22  C   UNL     1      39.922 -14.828  -3.606  1.00  0.00     0.120 A 
HETATM   23  C   UNL     1      40.574 -15.278  -2.472  1.00  0.00     0.036 A 
BRANCH  20  24
HETATM   24  O   UNL     1      39.714 -11.307  -3.078  1.00  0.00    -0.329 OA
BRANCH  24  25
HETATM   25  C   UNL     1      40.569 -10.584  -3.991  1.00  0.00     0.130 C 
HETATM   26  C   UNL     1      41.470  -9.511  -3.327  1.00  0.00     0.032 C 
HETATM   27  C   UNL     1      42.566  -9.899  -4.336  1.00  0.00     0.005 C 
HETATM   28  C   UNL     1      41.885 -11.277  -4.436  1.00  0.00     0.032 C 
ENDBRANCH  24  25
ENDBRANCH  20  24
ENDBRANCH   2  18
TORSDOF 7
ENDMDL
