MODEL 1
REMARK VINA RESULT:      -9.1      0.000      0.000
REMARK  5 active torsions:
REMARK  status: ('A' for Active; 'I' for Inactive)
REMARK    1  A    between atoms: O_1  and  C_2 
REMARK    2  A    between atoms: C_6  and  C_7 
REMARK    3  A    between atoms: C_7  and  N_8 
REMARK       I    between atoms: N_8  and  C_9 
REMARK    4  A    between atoms: C_9  and  C_11 
REMARK    5  A    between atoms: C_14  and  C_17 
ROOT
HETATM    1  N   UNL     1      41.669 -15.523  -0.694  1.00  0.00    -0.353 N 
HETATM    2  C   UNL     1      41.896 -15.380   0.657  1.00  0.00     0.251 C 
HETATM    3  O   UNL     1      41.730 -14.330   1.268  1.00  0.00    -0.268 OA
HETATM    4  H   UNL     1      42.016 -16.341  -1.172  1.00  0.00     0.163 HD
ENDROOT
BRANCH   2   5
HETATM    5  C   UNL     1      42.418 -16.579   1.372  1.00  0.00     0.032 A 
HETATM    6  C   UNL     1      43.375 -17.368   0.727  1.00  0.00     0.018 A 
HETATM    7  C   UNL     1      43.879 -18.517   1.346  1.00  0.00     0.013 A 
HETATM    8  C   UNL     1      43.450 -18.898   2.628  1.00  0.00    -0.026 A 
HETATM    9  C   UNL     1      42.507 -18.079   3.274  1.00  0.00     0.013 A 
HETATM   10  C   UNL     1      41.995 -16.930   2.657  1.00  0.00     0.018 A 
BRANCH   8  11
HETATM   11  C   UNL     1      43.970 -20.118   3.273  1.00  0.00    -0.023 A 
HETATM   12  C   UNL     1      44.112 -21.316   2.560  1.00  0.00     0.031 A 
HETATM   13  C   UNL     1      44.596 -22.439   3.213  1.00  0.00     0.117 A 
HETATM   14  N   UNL     1      44.948 -22.457   4.514  1.00  0.00    -0.273 NA
HETATM   15  C   UNL     1      44.808 -21.299   5.192  1.00  0.00     0.117 A 
HETATM   16  C   UNL     1      44.334 -20.126   4.625  1.00  0.00     0.031 A 
ENDBRANCH   8  11
ENDBRANCH   2   5
BRANCH   1  17
HETATM   17  C   UNL     1      41.305 -14.396  -1.525  1.00  0.00     0.161 C 
BRANCH  17  18
HETATM   18  C   UNL     1      40.052 -14.693  -2.307  1.00  0.00    -0.038 A 
HETATM   19  C   UNL     1      38.833 -14.095  -1.951  1.00  0.00     0.009 A 
HETATM   20  C   UNL     1      37.671 -14.358  -2.680  1.00  0.00     0.003 A 
HETATM   21  C   UNL     1      37.712 -15.225  -3.772  1.00  0.00     0.036 A 
HETATM   22  C   UNL     1      38.919 -15.820  -4.126  1.00  0.00     0.066 A 
HETATM   23  C   UNL     1      40.083 -15.560  -3.408  1.00  0.00     0.045 A 
BRANCH  22  24
HETATM   24  O   UNL     1      39.006 -16.676  -5.183  1.00  0.00    -0.361 OA
HETATM   25  H   UNL     1      38.983 -17.586  -4.845  1.00  0.00     0.217 HD
ENDBRANCH  22  24
ENDBRANCH  17  18
ENDBRANCH   1  17
TORSDOF 5
ENDMDL
MODEL 2
REMARK VINA RESULT:      -8.8      2.470      2.922
REMARK  5 active torsions:
REMARK  status: ('A' for Active; 'I' for Inactive)
REMARK    1  A    between atoms: O_1  and  C_2 
REMARK    2  A    between atoms: C_6  and  C_7 
REMARK    3  A    between atoms: C_7  and  N_8 
REMARK       I    between atoms: N_8  and  C_9 
REMARK    4  A    between atoms: C_9  and  C_11 
REMARK    5  A    between atoms: C_14  and  C_17 
ROOT
HETATM    1  N   UNL     1      42.045 -14.115   1.475  1.00  0.00    -0.353 N 
HETATM    2  C   UNL     1      42.943 -14.402   2.479  1.00  0.00     0.251 C 
HETATM    3  O   UNL     1      43.499 -13.547   3.160  1.00  0.00    -0.268 OA
HETATM    4  H   UNL     1      41.782 -14.839   0.823  1.00  0.00     0.163 HD
ENDROOT
BRANCH   2   5
HETATM    5  C   UNL     1      43.267 -15.841   2.687  1.00  0.00     0.032 A 
HETATM    6  C   UNL     1      43.667 -16.596   1.580  1.00  0.00     0.018 A 
HETATM    7  C   UNL     1      43.960 -17.956   1.719  1.00  0.00     0.013 A 
HETATM    8  C   UNL     1      43.872 -18.594   2.968  1.00  0.00    -0.026 A 
HETATM    9  C   UNL     1      43.494 -17.815   4.076  1.00  0.00     0.013 A 
HETATM   10  C   UNL     1      43.196 -16.453   3.943  1.00  0.00     0.018 A 
BRANCH   8  11
HETATM   11  C   UNL     1      44.165 -20.032   3.110  1.00  0.00    -0.023 A 
HETATM   12  C   UNL     1      43.967 -20.925   2.048  1.00  0.00     0.031 A 
HETATM   13  C   UNL     1      44.248 -22.270   2.234  1.00  0.00     0.117 A 
HETATM   14  N   UNL     1      44.709 -22.787   3.390  1.00  0.00    -0.273 NA
HETATM   15  C   UNL     1      44.898 -21.921   4.405  1.00  0.00     0.117 A 
HETATM   16  C   UNL     1      44.646 -20.560   4.314  1.00  0.00     0.031 A 
ENDBRANCH   8  11
ENDBRANCH   2   5
BRANCH   1  17
HETATM   17  C   UNL     1      41.762 -12.753   1.078  1.00  0.00     0.161 C 
BRANCH  17  18
HETATM   18  C   UNL     1      42.055 -12.552  -0.387  1.00  0.00    -0.038 A 
HETATM   19  C   UNL     1      42.470 -11.299  -0.863  1.00  0.00     0.009 A 
HETATM   20  C   UNL     1      42.753 -11.111  -2.218  1.00  0.00     0.003 A 
HETATM   21  C   UNL     1      42.622 -12.172  -3.114  1.00  0.00     0.036 A 
HETATM   22  C   UNL     1      42.208 -13.414  -2.643  1.00  0.00     0.066 A 
HETATM   23  C   UNL     1      41.928 -13.613  -1.294  1.00  0.00     0.045 A 
BRANCH  22  24
HETATM   24  O   UNL     1      42.062 -14.479  -3.483  1.00  0.00    -0.361 OA
HETATM   25  H   UNL     1      41.123 -14.561  -3.716  1.00  0.00     0.217 HD
ENDBRANCH  22  24
ENDBRANCH  17  18
ENDBRANCH   1  17
TORSDOF 5
ENDMDL
MODEL 3
REMARK VINA RESULT:      -8.2      2.901      8.617
REMARK  5 active torsions:
REMARK  status: ('A' for Active; 'I' for Inactive)
REMARK    1  A    between atoms: O_1  and  C_2 
REMARK    2  A    between atoms: C_6  and  C_7 
REMARK    3  A    between atoms: C_7  and  N_8 
REMARK       I    between atoms: N_8  and  C_9 
REMARK    4  A    between atoms: C_9  and  C_11 
REMARK    5  A    between atoms: C_14  and  C_17 
ROOT
HETATM    1  N   UNL     1      43.729 -17.874   3.729  1.00  0.00    -0.353 N 
HETATM    2  C   UNL     1      42.381 -17.593   3.721  1.00  0.00     0.251 C 
HETATM    3  O   UNL     1      41.613 -17.914   4.621  1.00  0.00    -0.268 OA
HETATM    4  H   UNL     1      44.264 -17.769   2.880  1.00  0.00     0.163 HD
ENDROOT
BRANCH   2   5
HETATM    5  C   UNL     1      41.857 -16.900   2.510  1.00  0.00     0.032 A 
HETATM    6  C   UNL     1      42.476 -17.155   1.283  1.00  0.00     0.018 A 
HETATM    7  C   UNL     1      42.035 -16.513   0.121  1.00  0.00     0.013 A 
HETATM    8  C   UNL     1      40.959 -15.610   0.154  1.00  0.00    -0.026 A 
HETATM    9  C   UNL     1      40.330 -15.385   1.392  1.00  0.00     0.013 A 
HETATM   10  C   UNL     1      40.769 -16.023   2.559  1.00  0.00     0.018 A 
BRANCH   8  11
HETATM   11  C   UNL     1      40.506 -14.921  -1.069  1.00  0.00    -0.023 A 
HETATM   12  C   UNL     1      40.950 -15.319  -2.336  1.00  0.00     0.031 A 
HETATM   13  C   UNL     1      40.504 -14.633  -3.456  1.00  0.00     0.117 A 
HETATM   14  N   UNL     1      39.653 -13.588  -3.406  1.00  0.00    -0.273 NA
HETATM   15  C   UNL     1      39.230 -13.214  -2.181  1.00  0.00     0.117 A 
HETATM   16  C   UNL     1      39.621 -13.838  -1.006  1.00  0.00     0.031 A 
ENDBRANCH   8  11
ENDBRANCH   2   5
BRANCH   1  17
HETATM   17  C   UNL     1      44.331 -18.671   4.777  1.00  0.00     0.161 C 
BRANCH  17  18
HETATM   18  C   UNL     1      44.450 -20.111   4.349  1.00  0.00    -0.038 A 
HETATM   19  C   UNL     1      44.718 -21.114   5.295  1.00  0.00     0.009 A 
HETATM   20  C   UNL     1      44.818 -22.451   4.905  1.00  0.00     0.003 A 
HETATM   21  C   UNL     1      44.657 -22.803   3.565  1.00  0.00     0.036 A 
HETATM   22  C   UNL     1      44.394 -21.811   2.627  1.00  0.00     0.066 A 
HETATM   23  C   UNL     1      44.287 -20.476   3.006  1.00  0.00     0.045 A 
BRANCH  22  24
HETATM   24  O   UNL     1      44.233 -22.109   1.305  1.00  0.00    -0.361 OA
HETATM   25  H   UNL     1      44.516 -21.342   0.781  1.00  0.00     0.217 HD
ENDBRANCH  22  24
ENDBRANCH  17  18
ENDBRANCH   1  17
TORSDOF 5
ENDMDL
MODEL 4
REMARK VINA RESULT:      -8.2      5.748      8.776
REMARK  5 active torsions:
REMARK  status: ('A' for Active; 'I' for Inactive)
REMARK    1  A    between atoms: O_1  and  C_2 
REMARK    2  A    between atoms: C_6  and  C_7 
REMARK    3  A    between atoms: C_7  and  N_8 
REMARK       I    between atoms: N_8  and  C_9 
REMARK    4  A    between atoms: C_9  and  C_11 
REMARK    5  A    between atoms: C_14  and  C_17 
ROOT
HETATM    1  N   UNL     1      43.340 -17.497   3.509  1.00  0.00    -0.353 N 
HETATM    2  C   UNL     1      42.671 -17.209   4.679  1.00  0.00     0.251 C 
HETATM    3  O   UNL     1      41.629 -17.757   5.019  1.00  0.00    -0.268 OA
HETATM    4  H   UNL     1      44.069 -16.877   3.189  1.00  0.00     0.163 HD
ENDROOT
BRANCH   2   5
HETATM    5  C   UNL     1      43.253 -16.131   5.527  1.00  0.00     0.032 A 
HETATM    6  C   UNL     1      43.395 -14.856   4.971  1.00  0.00     0.018 A 
HETATM    7  C   UNL     1      43.957 -13.816   5.719  1.00  0.00     0.013 A 
HETATM    8  C   UNL     1      44.379 -14.020   7.043  1.00  0.00    -0.026 A 
HETATM    9  C   UNL     1      44.206 -15.302   7.596  1.00  0.00     0.013 A 
HETATM   10  C   UNL     1      43.648 -16.348   6.851  1.00  0.00     0.018 A 
BRANCH   8  11
HETATM   11  C   UNL     1      44.987 -12.927   7.824  1.00  0.00    -0.023 A 
HETATM   12  C   UNL     1      44.236 -12.187   8.747  1.00  0.00     0.031 A 
HETATM   13  C   UNL     1      44.850 -11.162   9.451  1.00  0.00     0.117 A 
HETATM   14  N   UNL     1      46.146 -10.823   9.306  1.00  0.00    -0.273 NA
HETATM   15  C   UNL     1      46.861 -11.542   8.416  1.00  0.00     0.117 A 
HETATM   16  C   UNL     1      46.335 -12.584   7.667  1.00  0.00     0.031 A 
ENDBRANCH   8  11
ENDBRANCH   2   5
BRANCH   1  17
HETATM   17  C   UNL     1      42.798 -18.416   2.532  1.00  0.00     0.161 C 
BRANCH  17  18
HETATM   18  C   UNL     1      43.454 -19.768   2.649  1.00  0.00    -0.038 A 
HETATM   19  C   UNL     1      43.405 -20.676   1.581  1.00  0.00     0.009 A 
HETATM   20  C   UNL     1      44.021 -21.926   1.681  1.00  0.00     0.003 A 
HETATM   21  C   UNL     1      44.688 -22.285   2.852  1.00  0.00     0.036 A 
HETATM   22  C   UNL     1      44.735 -21.387   3.913  1.00  0.00     0.066 A 
HETATM   23  C   UNL     1      44.129 -20.137   3.821  1.00  0.00     0.045 A 
BRANCH  22  24
HETATM   24  O   UNL     1      45.374 -21.696   5.077  1.00  0.00    -0.361 OA
HETATM   25  H   UNL     1      45.387 -22.663   5.173  1.00  0.00     0.217 HD
ENDBRANCH  22  24
ENDBRANCH  17  18
ENDBRANCH   1  17
TORSDOF 5
ENDMDL
MODEL 5
REMARK VINA RESULT:      -8.0      2.955      8.871
REMARK  5 active torsions:
REMARK  status: ('A' for Active; 'I' for Inactive)
REMARK    1  A    between atoms: O_1  and  C_2 
REMARK    2  A    between atoms: C_6  and  C_7 
REMARK    3  A    between atoms: C_7  and  N_8 
REMARK       I    between atoms: N_8  and  C_9 
REMARK    4  A    between atoms: C_9  and  C_11 
REMARK    5  A    between atoms: C_14  and  C_17 
ROOT
HETATM    1  N   UNL     1      43.431 -17.543   3.434  1.00  0.00    -0.353 N 
HETATM    2  C   UNL     1      42.082 -17.268   3.462  1.00  0.00     0.251 C 
HETATM    3  O   UNL     1      41.332 -17.632   4.361  1.00  0.00    -0.268 OA
HETATM    4  H   UNL     1      43.949 -17.398   2.580  1.00  0.00     0.163 HD
ENDROOT
BRANCH   2   5
HETATM    5  C   UNL     1      41.533 -16.525   2.294  1.00  0.00     0.032 A 
HETATM    6  C   UNL     1      42.077 -16.782   1.032  1.00  0.00     0.018 A 
HETATM    7  C   UNL     1      41.611 -16.094  -0.094  1.00  0.00     0.013 A 
HETATM    8  C   UNL     1      40.584 -15.141   0.011  1.00  0.00    -0.026 A 
HETATM    9  C   UNL     1      40.029 -14.914   1.283  1.00  0.00     0.013 A 
HETATM   10  C   UNL     1      40.494 -15.597   2.414  1.00  0.00     0.018 A 
BRANCH   8  11
HETATM   11  C   UNL     1      40.105 -14.405  -1.173  1.00  0.00    -0.023 A 
HETATM   12  C   UNL     1      38.914 -13.668  -1.141  1.00  0.00     0.031 A 
HETATM   13  C   UNL     1      38.501 -13.000  -2.284  1.00  0.00     0.117 A 
HETATM   14  N   UNL     1      39.182 -13.011  -3.447  1.00  0.00    -0.273 NA
HETATM   15  C   UNL     1      40.327 -13.723  -3.468  1.00  0.00     0.117 A 
HETATM   16  C   UNL     1      40.821 -14.422  -2.377  1.00  0.00     0.031 A 
ENDBRANCH   8  11
ENDBRANCH   2   5
BRANCH   1  17
HETATM   17  C   UNL     1      44.054 -18.383   4.433  1.00  0.00     0.161 C 
BRANCH  17  18
HETATM   18  C   UNL     1      44.231 -19.788   3.916  1.00  0.00    -0.038 A 
HETATM   19  C   UNL     1      43.906 -20.102   2.587  1.00  0.00     0.009 A 
HETATM   20  C   UNL     1      44.078 -21.400   2.101  1.00  0.00     0.003 A 
HETATM   21  C   UNL     1      44.573 -22.400   2.937  1.00  0.00     0.036 A 
HETATM   22  C   UNL     1      44.893 -22.091   4.255  1.00  0.00     0.066 A 
HETATM   23  C   UNL     1      44.730 -20.800   4.748  1.00  0.00     0.045 A 
BRANCH  22  24
HETATM   24  O   UNL     1      45.376 -23.038   5.109  1.00  0.00    -0.361 OA
HETATM   25  H   UNL     1      46.336 -22.916   5.192  1.00  0.00     0.217 HD
ENDBRANCH  22  24
ENDBRANCH  17  18
ENDBRANCH   1  17
TORSDOF 5
ENDMDL
MODEL 6
REMARK VINA RESULT:      -7.9      3.423      8.893
REMARK  5 active torsions:
REMARK  status: ('A' for Active; 'I' for Inactive)
REMARK    1  A    between atoms: O_1  and  C_2 
REMARK    2  A    between atoms: C_6  and  C_7 
REMARK    3  A    between atoms: C_7  and  N_8 
REMARK       I    between atoms: N_8  and  C_9 
REMARK    4  A    between atoms: C_9  and  C_11 
REMARK    5  A    between atoms: C_14  and  C_17 
ROOT
HETATM    1  N   UNL     1      43.467 -17.499   3.958  1.00  0.00    -0.353 N 
HETATM    2  C   UNL     1      42.121 -17.449   4.246  1.00  0.00     0.251 C 
HETATM    3  O   UNL     1      41.588 -18.113   5.128  1.00  0.00    -0.268 OA
HETATM    4  H   UNL     1      43.806 -17.092   3.100  1.00  0.00     0.163 HD
ENDROOT
BRANCH   2   5
HETATM    5  C   UNL     1      41.292 -16.562   3.382  1.00  0.00     0.032 A 
HETATM    6  C   UNL     1      41.227 -16.845   2.014  1.00  0.00     0.018 A 
HETATM    7  C   UNL     1      40.480 -16.029   1.158  1.00  0.00     0.013 A 
HETATM    8  C   UNL     1      39.771 -14.919   1.648  1.00  0.00    -0.026 A 
HETATM    9  C   UNL     1      39.825 -14.665   3.029  1.00  0.00     0.013 A 
HETATM   10  C   UNL     1      40.574 -15.476   3.891  1.00  0.00     0.018 A 
BRANCH   8  11
HETATM   11  C   UNL     1      38.997 -14.051   0.741  1.00  0.00    -0.023 A 
HETATM   12  C   UNL     1      37.906 -13.303   1.203  1.00  0.00     0.031 A 
HETATM   13  C   UNL     1      37.204 -12.508   0.309  1.00  0.00     0.117 A 
HETATM   14  N   UNL     1      37.507 -12.403  -1.000  1.00  0.00    -0.273 NA
HETATM   15  C   UNL     1      38.559 -13.126  -1.435  1.00  0.00     0.117 A 
HETATM   16  C   UNL     1      39.321 -13.948  -0.618  1.00  0.00     0.031 A 
ENDBRANCH   8  11
ENDBRANCH   2   5
BRANCH   1  17
HETATM   17  C   UNL     1      44.350 -18.430   4.626  1.00  0.00     0.161 C 
BRANCH  17  18
HETATM   18  C   UNL     1      44.348 -19.764   3.924  1.00  0.00    -0.038 A 
HETATM   19  C   UNL     1      43.964 -19.859   2.578  1.00  0.00     0.009 A 
HETATM   20  C   UNL     1      43.971 -21.092   1.921  1.00  0.00     0.003 A 
HETATM   21  C   UNL     1      44.358 -22.245   2.602  1.00  0.00     0.036 A 
HETATM   22  C   UNL     1      44.737 -22.153   3.938  1.00  0.00     0.066 A 
HETATM   23  C   UNL     1      44.738 -20.929   4.600  1.00  0.00     0.045 A 
BRANCH  22  24
HETATM   24  O   UNL     1      45.120 -23.256   4.644  1.00  0.00    -0.361 OA
HETATM   25  H   UNL     1      46.088 -23.258   4.710  1.00  0.00     0.217 HD
ENDBRANCH  22  24
ENDBRANCH  17  18
ENDBRANCH   1  17
TORSDOF 5
ENDMDL
MODEL 7
REMARK VINA RESULT:      -7.6      3.166      3.712
REMARK  5 active torsions:
REMARK  status: ('A' for Active; 'I' for Inactive)
REMARK    1  A    between atoms: O_1  and  C_2 
REMARK    2  A    between atoms: C_6  and  C_7 
REMARK    3  A    between atoms: C_7  and  N_8 
REMARK       I    between atoms: N_8  and  C_9 
REMARK    4  A    between atoms: C_9  and  C_11 
REMARK    5  A    between atoms: C_14  and  C_17 
ROOT
HETATM    1  N   UNL     1      42.152 -13.976   1.791  1.00  0.00    -0.353 N 
HETATM    2  C   UNL     1      42.982 -14.421   2.796  1.00  0.00     0.251 C 
HETATM    3  O   UNL     1      43.513 -13.682   3.617  1.00  0.00    -0.268 OA
HETATM    4  H   UNL     1      41.913 -14.597   1.032  1.00  0.00     0.163 HD
ENDROOT
BRANCH   2   5
HETATM    5  C   UNL     1      43.261 -15.884   2.825  1.00  0.00     0.032 A 
HETATM    6  C   UNL     1      43.352 -16.515   4.069  1.00  0.00     0.018 A 
HETATM    7  C   UNL     1      43.636 -17.882   4.151  1.00  0.00     0.013 A 
HETATM    8  C   UNL     1      43.822 -18.655   2.992  1.00  0.00    -0.026 A 
HETATM    9  C   UNL     1      43.700 -18.011   1.748  1.00  0.00     0.013 A 
HETATM   10  C   UNL     1      43.421 -16.641   1.661  1.00  0.00     0.018 A 
BRANCH   8  11
HETATM   11  C   UNL     1      44.137 -20.093   3.080  1.00  0.00    -0.023 A 
HETATM   12  C   UNL     1      44.607 -20.666   4.269  1.00  0.00     0.031 A 
HETATM   13  C   UNL     1      44.898 -22.021   4.298  1.00  0.00     0.117 A 
HETATM   14  N   UNL     1      44.756 -22.842   3.239  1.00  0.00    -0.273 NA
HETATM   15  C   UNL     1      44.302 -22.283   2.100  1.00  0.00     0.117 A 
HETATM   16  C   UNL     1      43.984 -20.939   1.974  1.00  0.00     0.031 A 
ENDBRANCH   8  11
ENDBRANCH   2   5
BRANCH   1  17
HETATM   17  C   UNL     1      41.922 -12.565   1.566  1.00  0.00     0.161 C 
BRANCH  17  18
HETATM   18  C   UNL     1      40.448 -12.275   1.456  1.00  0.00    -0.038 A 
HETATM   19  C   UNL     1      39.974 -10.956   1.544  1.00  0.00     0.009 A 
HETATM   20  C   UNL     1      38.609 -10.682   1.431  1.00  0.00     0.003 A 
HETATM   21  C   UNL     1      37.700 -11.722   1.234  1.00  0.00     0.036 A 
HETATM   22  C   UNL     1      38.168 -13.029   1.150  1.00  0.00     0.066 A 
HETATM   23  C   UNL     1      39.527 -13.313   1.256  1.00  0.00     0.045 A 
BRANCH  22  24
HETATM   24  O   UNL     1      37.316 -14.077   0.961  1.00  0.00    -0.361 OA
HETATM   25  H   UNL     1      37.234 -14.240   0.008  1.00  0.00     0.217 HD
ENDBRANCH  22  24
ENDBRANCH  17  18
ENDBRANCH   1  17
TORSDOF 5
ENDMDL
MODEL 8
REMARK VINA RESULT:      -7.5      7.430     10.312
REMARK  5 active torsions:
REMARK  status: ('A' for Active; 'I' for Inactive)
REMARK    1  A    between atoms: O_1  and  C_2 
REMARK    2  A    between atoms: C_6  and  C_7 
REMARK    3  A    between atoms: C_7  and  N_8 
REMARK       I    between atoms: N_8  and  C_9 
REMARK    4  A    between atoms: C_9  and  C_11 
REMARK    5  A    between atoms: C_14  and  C_17 
ROOT
HETATM    1  N   UNL     1      43.629 -12.170   8.462  1.00  0.00    -0.353 N 
HETATM    2  C   UNL     1      44.613 -13.069   8.114  1.00  0.00     0.251 C 
HETATM    3  O   UNL     1      45.751 -13.043   8.569  1.00  0.00    -0.268 OA
HETATM    4  H   UNL     1      42.788 -12.116   7.907  1.00  0.00     0.163 HD
ENDROOT
BRANCH   2   5
HETATM    5  C   UNL     1      44.249 -14.085   7.087  1.00  0.00     0.032 A 
HETATM    6  C   UNL     1      43.828 -13.636   5.832  1.00  0.00     0.018 A 
HETATM    7  C   UNL     1      43.453 -14.550   4.842  1.00  0.00     0.013 A 
HETATM    8  C   UNL     1      43.501 -15.935   5.077  1.00  0.00    -0.026 A 
HETATM    9  C   UNL     1      43.951 -16.371   6.335  1.00  0.00     0.013 A 
HETATM   10  C   UNL     1      44.324 -15.460   7.332  1.00  0.00     0.018 A 
BRANCH   8  11
HETATM   11  C   UNL     1      43.090 -16.897   4.038  1.00  0.00    -0.023 A 
HETATM   12  C   UNL     1      43.671 -18.169   3.951  1.00  0.00     0.031 A 
HETATM   13  C   UNL     1      43.258 -19.034   2.950  1.00  0.00     0.117 A 
HETATM   14  N   UNL     1      42.315 -18.730   2.036  1.00  0.00    -0.273 NA
HETATM   15  C   UNL     1      41.760 -17.504   2.128  1.00  0.00     0.117 A 
HETATM   16  C   UNL     1      42.108 -16.571   3.094  1.00  0.00     0.031 A 
ENDBRANCH   8  11
ENDBRANCH   2   5
BRANCH   1  17
HETATM   17  C   UNL     1      43.902 -11.048   9.334  1.00  0.00     0.161 C 
BRANCH  17  18
HETATM   18  C   UNL     1      43.007 -11.084  10.546  1.00  0.00    -0.038 A 
HETATM   19  C   UNL     1      43.557 -11.190  11.833  1.00  0.00     0.009 A 
HETATM   20  C   UNL     1      42.732 -11.212  12.960  1.00  0.00     0.003 A 
HETATM   21  C   UNL     1      41.347 -11.134  12.814  1.00  0.00     0.036 A 
HETATM   22  C   UNL     1      40.800 -11.032  11.539  1.00  0.00     0.066 A 
HETATM   23  C   UNL     1      41.614 -11.004  10.410  1.00  0.00     0.045 A 
BRANCH  22  24
HETATM   24  O   UNL     1      39.452 -10.957  11.350  1.00  0.00    -0.361 OA
HETATM   25  H   UNL     1      39.230 -11.426  10.528  1.00  0.00     0.217 HD
ENDBRANCH  22  24
ENDBRANCH  17  18
ENDBRANCH   1  17
TORSDOF 5
ENDMDL
MODEL 9
REMARK VINA RESULT:      -7.4      3.637      5.124
REMARK  5 active torsions:
REMARK  status: ('A' for Active; 'I' for Inactive)
REMARK    1  A    between atoms: O_1  and  C_2 
REMARK    2  A    between atoms: C_6  and  C_7 
REMARK    3  A    between atoms: C_7  and  N_8 
REMARK       I    between atoms: N_8  and  C_9 
REMARK    4  A    between atoms: C_9  and  C_11 
REMARK    5  A    between atoms: C_14  and  C_17 
ROOT
HETATM    1  N   UNL     1      42.654 -14.004   2.596  1.00  0.00    -0.353 N 
HETATM    2  C   UNL     1      42.286 -15.089   1.832  1.00  0.00     0.251 C 
HETATM    3  O   UNL     1      41.554 -15.014   0.852  1.00  0.00    -0.268 OA
HETATM    4  H   UNL     1      43.083 -14.154   3.498  1.00  0.00     0.163 HD
ENDROOT
BRANCH   2   5
HETATM    5  C   UNL     1      42.787 -16.418   2.283  1.00  0.00     0.032 A 
HETATM    6  C   UNL     1      43.166 -17.347   1.309  1.00  0.00     0.018 A 
HETATM    7  C   UNL     1      43.622 -18.616   1.681  1.00  0.00     0.013 A 
HETATM    8  C   UNL     1      43.722 -18.984   3.033  1.00  0.00    -0.026 A 
HETATM    9  C   UNL     1      43.363 -18.029   4.001  1.00  0.00     0.013 A 
HETATM   10  C   UNL     1      42.902 -16.758   3.635  1.00  0.00     0.018 A 
BRANCH   8  11
HETATM   11  C   UNL     1      44.187 -20.328   3.423  1.00  0.00    -0.023 A 
HETATM   12  C   UNL     1      44.615 -20.601   4.729  1.00  0.00     0.031 A 
HETATM   13  C   UNL     1      45.053 -21.878   5.044  1.00  0.00     0.117 A 
HETATM   14  N   UNL     1      45.095 -22.896   4.161  1.00  0.00    -0.273 NA
HETATM   15  C   UNL     1      44.680 -22.624   2.908  1.00  0.00     0.117 A 
HETATM   16  C   UNL     1      44.226 -21.380   2.499  1.00  0.00     0.031 A 
ENDBRANCH   8  11
ENDBRANCH   2   5
BRANCH   1  17
HETATM   17  C   UNL     1      42.114 -12.685   2.350  1.00  0.00     0.161 C 
BRANCH  17  18
HETATM   18  C   UNL     1      41.011 -12.368   3.328  1.00  0.00    -0.038 A 
HETATM   19  C   UNL     1      40.083 -11.353   3.048  1.00  0.00     0.009 A 
HETATM   20  C   UNL     1      39.053 -11.064   3.947  1.00  0.00     0.003 A 
HETATM   21  C   UNL     1      38.941 -11.782   5.137  1.00  0.00     0.036 A 
HETATM   22  C   UNL     1      39.861 -12.787   5.416  1.00  0.00     0.066 A 
HETATM   23  C   UNL     1      40.888 -13.087   4.525  1.00  0.00     0.045 A 
BRANCH  22  24
HETATM   24  O   UNL     1      39.792 -13.513   6.569  1.00  0.00    -0.361 OA
HETATM   25  H   UNL     1      39.285 -14.322   6.393  1.00  0.00     0.217 HD
ENDBRANCH  22  24
ENDBRANCH  17  18
ENDBRANCH   1  17
TORSDOF 5
ENDMDL
MODEL 10
REMARK VINA RESULT:      -7.3      5.013      8.989
REMARK  5 active torsions:
REMARK  status: ('A' for Active; 'I' for Inactive)
REMARK    1  A    between atoms: O_1  and  C_2 
REMARK    2  A    between atoms: C_6  and  C_7 
REMARK    3  A    between atoms: C_7  and  N_8 
REMARK       I    between atoms: N_8  and  C_9 
REMARK    4  A    between atoms: C_9  and  C_11 
REMARK    5  A    between atoms: C_14  and  C_17 
ROOT
HETATM    1  N   UNL     1      42.214 -16.912   2.584  1.00  0.00    -0.353 N 
HETATM    2  C   UNL     1      40.887 -16.551   2.663  1.00  0.00     0.251 C 
HETATM    3  O   UNL     1      39.990 -17.123   2.055  1.00  0.00    -0.268 OA
HETATM    4  H   UNL     1      42.921 -16.285   2.939  1.00  0.00     0.163 HD
ENDROOT
BRANCH   2   5
HETATM    5  C   UNL     1      40.572 -15.365   3.507  1.00  0.00     0.032 A 
HETATM    6  C   UNL     1      40.907 -15.411   4.864  1.00  0.00     0.018 A 
HETATM    7  C   UNL     1      40.612 -14.332   5.703  1.00  0.00     0.013 A 
HETATM    8  C   UNL     1      39.987 -13.176   5.206  1.00  0.00    -0.026 A 
HETATM    9  C   UNL     1      39.681 -13.134   3.835  1.00  0.00     0.013 A 
HETATM   10  C   UNL     1      39.971 -14.214   2.990  1.00  0.00     0.018 A 
BRANCH   8  11
HETATM   11  C   UNL     1      39.661 -12.046   6.096  1.00  0.00    -0.023 A 
HETATM   12  C   UNL     1      39.479 -10.751   5.592  1.00  0.00     0.031 A 
HETATM   13  C   UNL     1      39.184  -9.719   6.470  1.00  0.00     0.117 A 
HETATM   14  N   UNL     1      39.057  -9.881   7.802  1.00  0.00    -0.273 NA
HETATM   15  C   UNL     1      39.233 -11.130   8.277  1.00  0.00     0.117 A 
HETATM   16  C   UNL     1      39.530 -12.224   7.479  1.00  0.00     0.031 A 
ENDBRANCH   8  11
ENDBRANCH   2   5
BRANCH   1  17
HETATM   17  C   UNL     1      42.665 -17.951   1.684  1.00  0.00     0.161 C 
BRANCH  17  18
HETATM   18  C   UNL     1      43.370 -19.046   2.443  1.00  0.00    -0.038 A 
HETATM   19  C   UNL     1      43.617 -20.287   1.835  1.00  0.00     0.009 A 
HETATM   20  C   UNL     1      44.280 -21.301   2.531  1.00  0.00     0.003 A 
HETATM   21  C   UNL     1      44.701 -21.088   3.843  1.00  0.00     0.036 A 
HETATM   22  C   UNL     1      44.455 -19.860   4.448  1.00  0.00     0.066 A 
HETATM   23  C   UNL     1      43.800 -18.842   3.761  1.00  0.00     0.045 A 
BRANCH  22  24
HETATM   24  O   UNL     1      44.846 -19.609   5.730  1.00  0.00    -0.361 OA
HETATM   25  H   UNL     1      45.733 -19.216   5.710  1.00  0.00     0.217 HD
ENDBRANCH  22  24
ENDBRANCH  17  18
ENDBRANCH   1  17
TORSDOF 5
ENDMDL
