MODEL 1
REMARK VINA RESULT:      -7.8      0.000      0.000
REMARK  4 active torsions:
REMARK  status: ('A' for Active; 'I' for Inactive)
REMARK    1  A    between atoms: N_1  and  C_2 
REMARK    2  A    between atoms: C_2  and  C_3 
REMARK    3  A    between atoms: C_2  and  C_16 
REMARK       I    between atoms: C_3  and  N_5 
REMARK    4  A    between atoms: N_5  and  C_6 
ROOT
HETATM    1  C   UNL     1      41.071 -15.111   0.206  1.00  0.00     0.260 C 
HETATM    2  O   UNL     1      40.085 -15.413   0.880  1.00  0.00    -0.270 OA
HETATM    3  N   UNL     1      42.367 -15.567   0.409  1.00  0.00    -0.325 N 
HETATM    4  H   UNL     1      43.056 -15.294  -0.281  1.00  0.00     0.169 HD
ENDROOT
BRANCH   1   5
HETATM    5  C   UNL     1      40.945 -14.170  -1.029  1.00  0.00     0.342 C 
BRANCH   5   6
HETATM    6  N   UNL     1      42.273 -13.957  -1.639  1.00  0.00     0.096 N 
HETATM    7  H   UNL     1      42.241 -13.052  -2.114  1.00  0.00     0.314 HD
HETATM    8  H   UNL     1      42.381 -14.626  -2.403  1.00  0.00     0.314 HD
ENDBRANCH   5   6
BRANCH   5   9
HETATM    9  C   UNL     1      39.962 -14.706  -2.054  1.00  0.00    -0.016 A 
HETATM   10  C   UNL     1      38.669 -14.166  -2.139  1.00  0.00     0.010 A 
HETATM   11  C   UNL     1      37.760 -14.640  -3.088  1.00  0.00     0.001 A 
HETATM   12  C   UNL     1      38.133 -15.652  -3.970  1.00  0.00     0.000 A 
HETATM   13  C   UNL     1      39.417 -16.189  -3.907  1.00  0.00     0.001 A 
HETATM   14  C   UNL     1      40.327 -15.717  -2.960  1.00  0.00     0.010 A 
ENDBRANCH   5   9
ENDBRANCH   1   5
BRANCH   3  15
HETATM   15  C   UNL     1      42.827 -16.404   1.446  1.00  0.00     0.035 A 
HETATM   16  C   UNL     1      43.003 -15.982   2.764  1.00  0.00     0.030 A 
HETATM   17  C   UNL     1      43.472 -16.870   3.738  1.00  0.00     0.016 A 
HETATM   18  C   UNL     1      43.763 -18.203   3.408  1.00  0.00    -0.008 A 
HETATM   19  C   UNL     1      44.224 -19.134   4.343  1.00  0.00     0.128 A 
HETATM   20  C   UNL     1      43.587 -18.644   2.085  1.00  0.00    -0.021 A 
HETATM   21  N   UNL     1      44.503 -20.427   4.062  1.00  0.00    -0.272 NA
HETATM   22  C   UNL     1      44.318 -20.820   2.785  1.00  0.00     0.117 A 
HETATM   23  C   UNL     1      43.872 -19.981   1.776  1.00  0.00     0.031 A 
HETATM   24  C   UNL     1      43.131 -17.732   1.114  1.00  0.00     0.042 A 
ENDBRANCH   3  15
TORSDOF 4
ENDMDL
MODEL 2
REMARK VINA RESULT:      -7.7      1.958      7.463
REMARK  4 active torsions:
REMARK  status: ('A' for Active; 'I' for Inactive)
REMARK    1  A    between atoms: N_1  and  C_2 
REMARK    2  A    between atoms: C_2  and  C_3 
REMARK    3  A    between atoms: C_2  and  C_16 
REMARK       I    between atoms: C_3  and  N_5 
REMARK    4  A    between atoms: N_5  and  C_6 
ROOT
HETATM    1  C   UNL     1      43.415 -17.073   2.265  1.00  0.00     0.260 C 
HETATM    2  O   UNL     1      44.406 -16.983   1.538  1.00  0.00    -0.270 OA
HETATM    3  N   UNL     1      42.195 -16.442   2.060  1.00  0.00    -0.325 N 
HETATM    4  H   UNL     1      41.449 -16.680   2.702  1.00  0.00     0.169 HD
ENDROOT
BRANCH   1   5
HETATM    5  C   UNL     1      43.424 -17.982   3.529  1.00  0.00     0.342 C 
BRANCH   5   6
HETATM    6  N   UNL     1      42.120 -17.902   4.217  1.00  0.00     0.096 N 
HETATM    7  H   UNL     1      41.449 -17.527   3.542  1.00  0.00     0.314 HD
HETATM    8  H   UNL     1      42.182 -17.171   4.927  1.00  0.00     0.314 HD
ENDBRANCH   5   6
BRANCH   5   9
HETATM    9  C   UNL     1      43.767 -19.422   3.191  1.00  0.00    -0.016 A 
HETATM   10  C   UNL     1      44.533 -20.190   4.082  1.00  0.00     0.010 A 
HETATM   11  C   UNL     1      44.842 -21.521   3.790  1.00  0.00     0.001 A 
HETATM   12  C   UNL     1      44.383 -22.104   2.611  1.00  0.00     0.000 A 
HETATM   13  C   UNL     1      43.610 -21.358   1.723  1.00  0.00     0.001 A 
HETATM   14  C   UNL     1      43.300 -20.029   2.012  1.00  0.00     0.010 A 
ENDBRANCH   5   9
ENDBRANCH   1   5
BRANCH   3  15
HETATM   15  C   UNL     1      41.862 -15.535   1.033  1.00  0.00     0.035 A 
HETATM   16  C   UNL     1      41.909 -14.148   1.176  1.00  0.00     0.030 A 
HETATM   17  C   UNL     1      41.556 -13.312   0.112  1.00  0.00     0.016 A 
HETATM   18  C   UNL     1      41.158 -13.854  -1.121  1.00  0.00    -0.008 A 
HETATM   19  C   UNL     1      40.804 -13.065  -2.219  1.00  0.00     0.128 A 
HETATM   20  C   UNL     1      41.108 -15.250  -1.282  1.00  0.00    -0.021 A 
HETATM   21  N   UNL     1      40.426 -13.553  -3.423  1.00  0.00    -0.272 NA
HETATM   22  C   UNL     1      40.396 -14.896  -3.546  1.00  0.00     0.117 A 
HETATM   23  C   UNL     1      40.720 -15.772  -2.522  1.00  0.00     0.031 A 
HETATM   24  C   UNL     1      41.451 -16.076  -0.194  1.00  0.00     0.042 A 
ENDBRANCH   3  15
TORSDOF 4
ENDMDL
MODEL 3
REMARK VINA RESULT:      -7.4      1.729      7.411
REMARK  4 active torsions:
REMARK  status: ('A' for Active; 'I' for Inactive)
REMARK    1  A    between atoms: N_1  and  C_2 
REMARK    2  A    between atoms: C_2  and  C_3 
REMARK    3  A    between atoms: C_2  and  C_16 
REMARK       I    between atoms: C_3  and  N_5 
REMARK    4  A    between atoms: N_5  and  C_6 
ROOT
HETATM    1  C   UNL     1      42.261 -16.919   2.938  1.00  0.00     0.260 C 
HETATM    2  O   UNL     1      41.120 -17.252   3.259  1.00  0.00    -0.270 OA
HETATM    3  N   UNL     1      42.596 -16.037   1.918  1.00  0.00    -0.325 N 
HETATM    4  H   UNL     1      43.577 -15.798   1.829  1.00  0.00     0.169 HD
ENDROOT
BRANCH   1   5
HETATM    5  C   UNL     1      43.503 -17.453   3.711  1.00  0.00     0.342 C 
BRANCH   5   6
HETATM    6  N   UNL     1      43.294 -17.306   5.166  1.00  0.00     0.096 N 
HETATM    7  H   UNL     1      42.594 -18.001   5.438  1.00  0.00     0.314 HD
HETATM    8  H   UNL     1      42.823 -16.415   5.329  1.00  0.00     0.314 HD
ENDBRANCH   5   6
BRANCH   5   9
HETATM    9  C   UNL     1      43.818 -18.895   3.356  1.00  0.00    -0.016 A 
HETATM   10  C   UNL     1      44.519 -19.705   4.262  1.00  0.00     0.010 A 
HETATM   11  C   UNL     1      44.802 -21.038   3.954  1.00  0.00     0.001 A 
HETATM   12  C   UNL     1      44.380 -21.581   2.742  1.00  0.00     0.000 A 
HETATM   13  C   UNL     1      43.671 -20.793   1.838  1.00  0.00     0.001 A 
HETATM   14  C   UNL     1      43.388 -19.461   2.144  1.00  0.00     0.010 A 
ENDBRANCH   5   9
ENDBRANCH   1   5
BRANCH   3  15
HETATM   15  C   UNL     1      41.720 -15.401   1.015  1.00  0.00     0.035 A 
HETATM   16  C   UNL     1      40.881 -14.342   1.362  1.00  0.00     0.030 A 
HETATM   17  C   UNL     1      40.033 -13.766   0.411  1.00  0.00     0.016 A 
HETATM   18  C   UNL     1      40.020 -14.236  -0.911  1.00  0.00    -0.008 A 
HETATM   19  C   UNL     1      39.200 -13.691  -1.903  1.00  0.00     0.128 A 
HETATM   20  C   UNL     1      40.862 -15.301  -1.278  1.00  0.00    -0.021 A 
HETATM   21  N   UNL     1      39.169 -14.112  -3.189  1.00  0.00    -0.272 NA
HETATM   22  C   UNL     1      39.994 -15.130  -3.509  1.00  0.00     0.117 A 
HETATM   23  C   UNL     1      40.843 -15.749  -2.605  1.00  0.00     0.031 A 
HETATM   24  C   UNL     1      41.697 -15.880  -0.303  1.00  0.00     0.042 A 
ENDBRANCH   3  15
TORSDOF 4
ENDMDL
MODEL 4
REMARK VINA RESULT:      -7.4      1.608      2.386
REMARK  4 active torsions:
REMARK  status: ('A' for Active; 'I' for Inactive)
REMARK    1  A    between atoms: N_1  and  C_2 
REMARK    2  A    between atoms: C_2  and  C_3 
REMARK    3  A    between atoms: C_2  and  C_16 
REMARK       I    between atoms: C_3  and  N_5 
REMARK    4  A    between atoms: N_5  and  C_6 
ROOT
HETATM    1  C   UNL     1      41.336 -15.872   2.271  1.00  0.00     0.260 C 
HETATM    2  O   UNL     1      40.384 -16.618   2.502  1.00  0.00    -0.270 OA
HETATM    3  N   UNL     1      42.677 -16.183   2.452  1.00  0.00    -0.325 N 
HETATM    4  H   UNL     1      43.349 -15.493   2.138  1.00  0.00     0.169 HD
ENDROOT
BRANCH   1   5
HETATM    5  C   UNL     1      41.117 -14.446   1.685  1.00  0.00     0.342 C 
BRANCH   5   6
HETATM    6  N   UNL     1      42.370 -13.667   1.771  1.00  0.00     0.096 N 
HETATM    7  H   UNL     1      42.115 -12.726   2.079  1.00  0.00     0.314 HD
HETATM    8  H   UNL     1      42.718 -13.523   0.822  1.00  0.00     0.314 HD
ENDBRANCH   5   6
BRANCH   5   9
HETATM    9  C   UNL     1      40.609 -14.490   0.255  1.00  0.00    -0.016 A 
HETATM   10  C   UNL     1      41.306 -15.226  -0.716  1.00  0.00     0.010 A 
HETATM   11  C   UNL     1      40.841 -15.287  -2.032  1.00  0.00     0.001 A 
HETATM   12  C   UNL     1      39.670 -14.623  -2.392  1.00  0.00     0.000 A 
HETATM   13  C   UNL     1      38.960 -13.900  -1.436  1.00  0.00     0.001 A 
HETATM   14  C   UNL     1      39.423 -13.837  -0.121  1.00  0.00     0.010 A 
ENDBRANCH   5   9
ENDBRANCH   1   5
BRANCH   3  15
HETATM   15  C   UNL     1      43.215 -17.371   2.987  1.00  0.00     0.035 A 
HETATM   16  C   UNL     1      43.749 -17.473   4.272  1.00  0.00     0.030 A 
HETATM   17  C   UNL     1      44.272 -18.686   4.731  1.00  0.00     0.016 A 
HETATM   18  C   UNL     1      44.260 -19.824   3.909  1.00  0.00    -0.008 A 
HETATM   19  C   UNL     1      44.760 -21.063   4.320  1.00  0.00     0.128 A 
HETATM   20  C   UNL     1      43.722 -19.740   2.613  1.00  0.00    -0.021 A 
HETATM   21  N   UNL     1      44.755 -22.182   3.559  1.00  0.00    -0.272 NA
HETATM   22  C   UNL     1      44.226 -22.068   2.324  1.00  0.00     0.117 A 
HETATM   23  C   UNL     1      43.708 -20.889   1.812  1.00  0.00     0.031 A 
HETATM   24  C   UNL     1      43.215 -18.506   2.162  1.00  0.00     0.042 A 
ENDBRANCH   3  15
TORSDOF 4
ENDMDL
MODEL 5
REMARK VINA RESULT:      -7.3      1.697      2.707
REMARK  4 active torsions:
REMARK  status: ('A' for Active; 'I' for Inactive)
REMARK    1  A    between atoms: N_1  and  C_2 
REMARK    2  A    between atoms: C_2  and  C_3 
REMARK    3  A    between atoms: C_2  and  C_16 
REMARK       I    between atoms: C_3  and  N_5 
REMARK    4  A    between atoms: N_5  and  C_6 
ROOT
HETATM    1  C   UNL     1      41.312 -15.514   1.491  1.00  0.00     0.260 C 
HETATM    2  O   UNL     1      40.334 -16.207   1.770  1.00  0.00    -0.270 OA
HETATM    3  N   UNL     1      42.642 -15.891   1.622  1.00  0.00    -0.325 N 
HETATM    4  H   UNL     1      43.335 -15.240   1.271  1.00  0.00     0.169 HD
ENDROOT
BRANCH   1   5
HETATM    5  C   UNL     1      41.142 -14.085   0.894  1.00  0.00     0.342 C 
BRANCH   5   6
HETATM    6  N   UNL     1      42.052 -13.142   1.576  1.00  0.00     0.096 N 
HETATM    7  H   UNL     1      42.999 -13.355   1.254  1.00  0.00     0.314 HD
HETATM    8  H   UNL     1      42.075 -13.386   2.567  1.00  0.00     0.314 HD
ENDBRANCH   5   6
BRANCH   5   9
HETATM    9  C   UNL     1      41.373 -14.064  -0.606  1.00  0.00    -0.016 A 
HETATM   10  C   UNL     1      40.854 -15.091  -1.411  1.00  0.00     0.010 A 
HETATM   11  C   UNL     1      41.046 -15.076  -2.795  1.00  0.00     0.001 A 
HETATM   12  C   UNL     1      41.749 -14.032  -3.393  1.00  0.00     0.000 A 
HETATM   13  C   UNL     1      42.258 -12.999  -2.609  1.00  0.00     0.001 A 
HETATM   14  C   UNL     1      42.068 -13.012  -1.226  1.00  0.00     0.010 A 
ENDBRANCH   5   9
ENDBRANCH   1   5
BRANCH   3  15
HETATM   15  C   UNL     1      43.141 -17.099   2.151  1.00  0.00     0.035 A 
HETATM   16  C   UNL     1      43.565 -18.173   1.369  1.00  0.00     0.030 A 
HETATM   17  C   UNL     1      44.042 -19.344   1.968  1.00  0.00     0.016 A 
HETATM   18  C   UNL     1      44.111 -19.453   3.366  1.00  0.00    -0.008 A 
HETATM   19  C   UNL     1      44.588 -20.595   4.015  1.00  0.00     0.128 A 
HETATM   20  C   UNL     1      43.691 -18.378   4.168  1.00  0.00    -0.021 A 
HETATM   21  N   UNL     1      44.678 -20.731   5.359  1.00  0.00    -0.272 NA
HETATM   22  C   UNL     1      44.273 -19.679   6.099  1.00  0.00     0.117 A 
HETATM   23  C   UNL     1      43.778 -18.501   5.560  1.00  0.00     0.031 A 
HETATM   24  C   UNL     1      43.198 -17.214   3.548  1.00  0.00     0.042 A 
ENDBRANCH   3  15
TORSDOF 4
ENDMDL
MODEL 6
REMARK VINA RESULT:      -7.3      2.303      7.720
REMARK  4 active torsions:
REMARK  status: ('A' for Active; 'I' for Inactive)
REMARK    1  A    between atoms: N_1  and  C_2 
REMARK    2  A    between atoms: C_2  and  C_3 
REMARK    3  A    between atoms: C_2  and  C_16 
REMARK       I    between atoms: C_3  and  N_5 
REMARK    4  A    between atoms: N_5  and  C_6 
ROOT
HETATM    1  C   UNL     1      43.020 -17.081   2.701  1.00  0.00     0.260 C 
HETATM    2  O   UNL     1      43.946 -16.539   2.097  1.00  0.00    -0.270 OA
HETATM    3  N   UNL     1      41.668 -16.942   2.414  1.00  0.00    -0.325 N 
HETATM    4  H   UNL     1      41.029 -17.519   2.948  1.00  0.00     0.169 HD
ENDROOT
BRANCH   1   5
HETATM    5  C   UNL     1      43.291 -18.059   3.882  1.00  0.00     0.342 C 
BRANCH   5   6
HETATM    6  N   UNL     1      42.099 -18.145   4.751  1.00  0.00     0.096 N 
HETATM    7  H   UNL     1      41.445 -18.786   4.295  1.00  0.00     0.314 HD
HETATM    8  H   UNL     1      41.618 -17.245   4.717  1.00  0.00     0.314 HD
ENDBRANCH   5   6
BRANCH   5   9
HETATM    9  C   UNL     1      43.704 -19.437   3.397  1.00  0.00    -0.016 A 
HETATM   10  C   UNL     1      44.467 -20.275   4.226  1.00  0.00     0.010 A 
HETATM   11  C   UNL     1      44.840 -21.551   3.797  1.00  0.00     0.001 A 
HETATM   12  C   UNL     1      44.450 -22.010   2.540  1.00  0.00     0.000 A 
HETATM   13  C   UNL     1      43.681 -21.195   1.712  1.00  0.00     0.001 A 
HETATM   14  C   UNL     1      43.307 -19.919   2.138  1.00  0.00     0.010 A 
ENDBRANCH   5   9
ENDBRANCH   1   5
BRANCH   3  15
HETATM   15  C   UNL     1      41.082 -16.118   1.431  1.00  0.00     0.035 A 
HETATM   16  C   UNL     1      41.575 -15.987   0.133  1.00  0.00     0.030 A 
HETATM   17  C   UNL     1      40.943 -15.142  -0.786  1.00  0.00     0.016 A 
HETATM   18  C   UNL     1      39.796 -14.420  -0.419  1.00  0.00    -0.008 A 
HETATM   19  C   UNL     1      39.120 -13.571  -1.299  1.00  0.00     0.128 A 
HETATM   20  C   UNL     1      39.285 -14.544   0.885  1.00  0.00    -0.021 A 
HETATM   21  N   UNL     1      38.007 -12.869  -0.983  1.00  0.00    -0.272 NA
HETATM   22  C   UNL     1      37.539 -13.015   0.273  1.00  0.00     0.117 A 
HETATM   23  C   UNL     1      38.133 -13.824   1.229  1.00  0.00     0.031 A 
HETATM   24  C   UNL     1      39.944 -15.386   1.801  1.00  0.00     0.042 A 
ENDBRANCH   3  15
TORSDOF 4
ENDMDL
MODEL 7
REMARK VINA RESULT:      -7.3      3.412      7.649
REMARK  4 active torsions:
REMARK  status: ('A' for Active; 'I' for Inactive)
REMARK    1  A    between atoms: N_1  and  C_2 
REMARK    2  A    between atoms: C_2  and  C_3 
REMARK    3  A    between atoms: C_2  and  C_16 
REMARK       I    between atoms: C_3  and  N_5 
REMARK    4  A    between atoms: N_5  and  C_6 
ROOT
HETATM    1  C   UNL     1      43.028 -17.682   4.724  1.00  0.00     0.260 C 
HETATM    2  O   UNL     1      41.960 -18.096   5.175  1.00  0.00    -0.270 OA
HETATM    3  N   UNL     1      43.235 -16.445   4.128  1.00  0.00    -0.325 N 
HETATM    4  H   UNL     1      44.191 -16.214   3.882  1.00  0.00     0.169 HD
ENDROOT
BRANCH   1   5
HETATM    5  C   UNL     1      44.328 -18.534   4.821  1.00  0.00     0.342 C 
BRANCH   5   6
HETATM    6  N   UNL     1      44.562 -18.941   6.222  1.00  0.00     0.096 N 
HETATM    7  H   UNL     1      44.569 -18.086   6.784  1.00  0.00     0.314 HD
HETATM    8  H   UNL     1      45.521 -19.284   6.295  1.00  0.00     0.314 HD
ENDBRANCH   5   6
BRANCH   5   9
HETATM    9  C   UNL     1      44.282 -19.747   3.910  1.00  0.00    -0.016 A 
HETATM   10  C   UNL     1      44.759 -20.987   4.364  1.00  0.00     0.010 A 
HETATM   11  C   UNL     1      44.708 -22.114   3.541  1.00  0.00     0.001 A 
HETATM   12  C   UNL     1      44.174 -22.020   2.257  1.00  0.00     0.000 A 
HETATM   13  C   UNL     1      43.684 -20.800   1.797  1.00  0.00     0.001 A 
HETATM   14  C   UNL     1      43.734 -19.672   2.618  1.00  0.00     0.010 A 
ENDBRANCH   5   9
ENDBRANCH   1   5
BRANCH   3  15
HETATM   15  C   UNL     1      42.271 -15.451   3.862  1.00  0.00     0.035 A 
HETATM   16  C   UNL     1      42.222 -14.221   4.518  1.00  0.00     0.030 A 
HETATM   17  C   UNL     1      41.229 -13.287   4.204  1.00  0.00     0.016 A 
HETATM   18  C   UNL     1      40.272 -13.568   3.216  1.00  0.00    -0.008 A 
HETATM   19  C   UNL     1      39.265 -12.668   2.856  1.00  0.00     0.128 A 
HETATM   20  C   UNL     1      40.310 -14.802   2.543  1.00  0.00    -0.021 A 
HETATM   21  N   UNL     1      38.334 -12.901   1.902  1.00  0.00    -0.272 NA
HETATM   22  C   UNL     1      38.404 -14.091   1.271  1.00  0.00     0.117 A 
HETATM   23  C   UNL     1      39.354 -15.059   1.552  1.00  0.00     0.031 A 
HETATM   24  C   UNL     1      41.307 -15.736   2.884  1.00  0.00     0.042 A 
ENDBRANCH   3  15
TORSDOF 4
ENDMDL
MODEL 8
REMARK VINA RESULT:      -7.2      2.638      7.975
REMARK  4 active torsions:
REMARK  status: ('A' for Active; 'I' for Inactive)
REMARK    1  A    between atoms: N_1  and  C_2 
REMARK    2  A    between atoms: C_2  and  C_3 
REMARK    3  A    between atoms: C_2  and  C_16 
REMARK       I    between atoms: C_3  and  N_5 
REMARK    4  A    between atoms: N_5  and  C_6 
ROOT
HETATM    1  C   UNL     1      43.243 -17.849   3.933  1.00  0.00     0.260 C 
HETATM    2  O   UNL     1      42.065 -18.027   4.246  1.00  0.00    -0.270 OA
HETATM    3  N   UNL     1      43.701 -16.985   2.947  1.00  0.00    -0.325 N 
HETATM    4  H   UNL     1      44.706 -16.886   2.863  1.00  0.00     0.169 HD
ENDROOT
BRANCH   1   5
HETATM    5  C   UNL     1      44.395 -18.584   4.680  1.00  0.00     0.342 C 
BRANCH   5   6
HETATM    6  N   UNL     1      44.237 -18.418   6.140  1.00  0.00     0.096 N 
HETATM    7  H   UNL     1      44.182 -17.413   6.321  1.00  0.00     0.314 HD
HETATM    8  H   UNL     1      45.112 -18.696   6.586  1.00  0.00     0.314 HD
ENDBRANCH   5   6
BRANCH   5   9
HETATM    9  C   UNL     1      44.465 -20.054   4.311  1.00  0.00    -0.016 A 
HETATM   10  C   UNL     1      44.339 -20.449   2.969  1.00  0.00     0.010 A 
HETATM   11  C   UNL     1      44.417 -21.798   2.614  1.00  0.00     0.001 A 
HETATM   12  C   UNL     1      44.630 -22.768   3.591  1.00  0.00     0.000 A 
HETATM   13  C   UNL     1      44.770 -22.391   4.925  1.00  0.00     0.001 A 
HETATM   14  C   UNL     1      44.692 -21.044   5.282  1.00  0.00     0.010 A 
ENDBRANCH   5   9
ENDBRANCH   1   5
BRANCH   3  15
HETATM   15  C   UNL     1      42.926 -16.196   2.072  1.00  0.00     0.035 A 
HETATM   16  C   UNL     1      42.313 -16.687   0.920  1.00  0.00     0.030 A 
HETATM   17  C   UNL     1      41.565 -15.839   0.097  1.00  0.00     0.016 A 
HETATM   18  C   UNL     1      41.411 -14.482   0.422  1.00  0.00    -0.008 A 
HETATM   19  C   UNL     1      40.667 -13.594  -0.360  1.00  0.00     0.128 A 
HETATM   20  C   UNL     1      42.020 -13.972   1.581  1.00  0.00    -0.021 A 
HETATM   21  N   UNL     1      40.489 -12.284  -0.071  1.00  0.00    -0.272 NA
HETATM   22  C   UNL     1      41.081 -11.829   1.051  1.00  0.00     0.117 A 
HETATM   23  C   UNL     1      41.846 -12.619   1.895  1.00  0.00     0.031 A 
HETATM   24  C   UNL     1      42.784 -14.837   2.390  1.00  0.00     0.042 A 
ENDBRANCH   3  15
TORSDOF 4
ENDMDL
MODEL 9
REMARK VINA RESULT:      -7.2      1.876      2.172
REMARK  4 active torsions:
REMARK  status: ('A' for Active; 'I' for Inactive)
REMARK    1  A    between atoms: N_1  and  C_2 
REMARK    2  A    between atoms: C_2  and  C_3 
REMARK    3  A    between atoms: C_2  and  C_16 
REMARK       I    between atoms: C_3  and  N_5 
REMARK    4  A    between atoms: N_5  and  C_6 
ROOT
HETATM    1  C   UNL     1      41.157 -15.115   1.352  1.00  0.00     0.260 C 
HETATM    2  O   UNL     1      42.173 -14.451   1.565  1.00  0.00    -0.270 OA
HETATM    3  N   UNL     1      40.915 -16.403   1.810  1.00  0.00    -0.325 N 
HETATM    4  H   UNL     1      39.996 -16.786   1.621  1.00  0.00     0.169 HD
ENDROOT
BRANCH   1   5
HETATM    5  C   UNL     1      39.968 -14.527   0.537  1.00  0.00     0.342 C 
BRANCH   5   6
HETATM    6  N   UNL     1      39.479 -13.289   1.179  1.00  0.00     0.096 N 
HETATM    7  H   UNL     1      40.075 -12.526   0.849  1.00  0.00     0.314 HD
HETATM    8  H   UNL     1      39.690 -13.346   2.176  1.00  0.00     0.314 HD
ENDBRANCH   5   6
BRANCH   5   9
HETATM    9  C   UNL     1      40.343 -14.268  -0.911  1.00  0.00    -0.016 A 
HETATM   10  C   UNL     1      40.867 -15.307  -1.698  1.00  0.00     0.010 A 
HETATM   11  C   UNL     1      41.202 -15.086  -3.036  1.00  0.00     0.001 A 
HETATM   12  C   UNL     1      41.010 -13.830  -3.608  1.00  0.00     0.000 A 
HETATM   13  C   UNL     1      40.478 -12.794  -2.844  1.00  0.00     0.001 A 
HETATM   14  C   UNL     1      40.142 -13.011  -1.507  1.00  0.00     0.010 A 
ENDBRANCH   5   9
ENDBRANCH   1   5
BRANCH   3  15
HETATM   15  C   UNL     1      41.789 -17.228   2.548  1.00  0.00     0.035 A 
HETATM   16  C   UNL     1      42.167 -16.976   3.866  1.00  0.00     0.030 A 
HETATM   17  C   UNL     1      43.046 -17.838   4.531  1.00  0.00     0.016 A 
HETATM   18  C   UNL     1      43.554 -18.976   3.885  1.00  0.00    -0.008 A 
HETATM   19  C   UNL     1      44.427 -19.875   4.505  1.00  0.00     0.128 A 
HETATM   20  C   UNL     1      43.180 -19.245   2.557  1.00  0.00    -0.021 A 
HETATM   21  N   UNL     1      44.927 -20.986   3.917  1.00  0.00    -0.272 NA
HETATM   22  C   UNL     1      44.543 -21.218   2.645  1.00  0.00     0.117 A 
HETATM   23  C   UNL     1      43.688 -20.392   1.933  1.00  0.00     0.031 A 
HETATM   24  C   UNL     1      42.308 -18.358   1.898  1.00  0.00     0.042 A 
ENDBRANCH   3  15
TORSDOF 4
ENDMDL
MODEL 10
REMARK VINA RESULT:      -7.2      1.812      2.677
REMARK  4 active torsions:
REMARK  status: ('A' for Active; 'I' for Inactive)
REMARK    1  A    between atoms: N_1  and  C_2 
REMARK    2  A    between atoms: C_2  and  C_3 
REMARK    3  A    between atoms: C_2  and  C_16 
REMARK       I    between atoms: C_3  and  N_5 
REMARK    4  A    between atoms: N_5  and  C_6 
ROOT
HETATM    1  C   UNL     1      41.182 -15.441  -0.358  1.00  0.00     0.260 C 
HETATM    2  O   UNL     1      40.316 -15.087   0.443  1.00  0.00    -0.270 OA
HETATM    3  N   UNL     1      42.327 -16.165  -0.054  1.00  0.00    -0.325 N 
HETATM    4  H   UNL     1      42.903 -16.453  -0.836  1.00  0.00     0.169 HD
ENDROOT
BRANCH   1   5
HETATM    5  C   UNL     1      41.048 -15.127  -1.878  1.00  0.00     0.342 C 
BRANCH   5   6
HETATM    6  N   UNL     1      39.642 -15.281  -2.304  1.00  0.00     0.096 N 
HETATM    7  H   UNL     1      39.112 -15.577  -1.480  1.00  0.00     0.314 HD
HETATM    8  H   UNL     1      39.588 -16.088  -2.927  1.00  0.00     0.314 HD
ENDBRANCH   5   6
BRANCH   5   9
HETATM    9  C   UNL     1      41.564 -13.740  -2.219  1.00  0.00    -0.016 A 
HETATM   10  C   UNL     1      41.527 -13.283  -3.546  1.00  0.00     0.010 A 
HETATM   11  C   UNL     1      41.984 -12.004  -3.871  1.00  0.00     0.001 A 
HETATM   12  C   UNL     1      42.475 -11.162  -2.876  1.00  0.00     0.000 A 
HETATM   13  C   UNL     1      42.506 -11.596  -1.553  1.00  0.00     0.001 A 
HETATM   14  C   UNL     1      42.050 -12.874  -1.225  1.00  0.00     0.010 A 
ENDBRANCH   5   9
ENDBRANCH   1   5
BRANCH   3  15
HETATM   15  C   UNL     1      42.761 -16.584   1.221  1.00  0.00     0.035 A 
HETATM   16  C   UNL     1      42.810 -15.750   2.337  1.00  0.00     0.030 A 
HETATM   17  C   UNL     1      43.261 -16.237   3.569  1.00  0.00     0.016 A 
HETATM   18  C   UNL     1      43.661 -17.576   3.704  1.00  0.00    -0.008 A 
HETATM   19  C   UNL     1      44.109 -18.117   4.912  1.00  0.00     0.128 A 
HETATM   20  C   UNL     1      43.613 -18.431   2.588  1.00  0.00    -0.021 A 
HETATM   21  N   UNL     1      44.491 -19.404   5.080  1.00  0.00    -0.272 NA
HETATM   22  C   UNL     1      44.428 -20.198   3.992  1.00  0.00     0.117 A 
HETATM   23  C   UNL     1      44.005 -19.766   2.745  1.00  0.00     0.031 A 
HETATM   24  C   UNL     1      43.173 -17.919   1.352  1.00  0.00     0.042 A 
ENDBRANCH   3  15
TORSDOF 4
ENDMDL
