MODEL 1
REMARK VINA RESULT:     -10.4      0.000      0.000
REMARK  12 active torsions:
REMARK  status: ('A' for Active; 'I' for Inactive)
REMARK    1  A    between atoms: C_9  and  S_10 
REMARK    2  A    between atoms: S_10  and  C_11 
REMARK    3  A    between atoms: C_11  and  C_12 
REMARK       I    between atoms: C_12  and  N_13 
REMARK    4  A    between atoms: N_13  and  C_14 
REMARK    5  A    between atoms: C_14  and  C_15 
REMARK    6  A    between atoms: C_15  and  C_16 
REMARK    7  A    between atoms: C_19  and  S_20 
REMARK    8  A    between atoms: S_20  and  N_21 
REMARK    9  A    between atoms: N_27  and  C_28 
REMARK   10  A    between atoms: C_31  and  O_32 
REMARK   11  A    between atoms: O_32  and  C_33 
REMARK   12  A    between atoms: C_41  and  N_42 
ROOT
HETATM    1  C   UNL     1      37.374 -13.370   0.704  1.00  0.00     0.073 C 
HETATM    2  C   UNL     1      38.465 -12.842   1.566  1.00  0.00     0.068 A 
HETATM    3  N   UNL     1      38.329 -11.629   2.115  1.00  0.00    -0.177 NA
HETATM    4  N   UNL     1      39.448 -11.463   2.834  1.00  0.00    -0.260 N 
HETATM    5  H   UNL     1      39.569 -10.605   3.363  1.00  0.00     0.191 HD
HETATM    6  C   UNL     1      40.301 -12.524   2.743  1.00  0.00     0.162 A 
HETATM    7  C   UNL     1      39.701 -13.459   1.929  1.00  0.00     0.081 A 
HETATM    8  N   UNL     1      41.489 -12.628   3.332  1.00  0.00    -0.204 NA
HETATM    9  C   UNL     1      42.082 -13.819   3.093  1.00  0.00     0.177 A 
HETATM   10  N   UNL     1      41.553 -14.817   2.326  1.00  0.00    -0.276 N 
HETATM   11  C   UNL     1      40.367 -14.667   1.660  1.00  0.00     0.124 A 
ENDROOT
BRANCH   9  12
HETATM   12  S   UNL     1      43.646 -13.978   3.955  1.00  0.00    -0.082 SA
BRANCH  12  13
HETATM   13  C   UNL     1      43.014 -14.081   5.664  1.00  0.00     0.185 C 
BRANCH  13  14
HETATM   14  C   UNL     1      44.132 -14.199   6.686  1.00  0.00     0.227 C 
HETATM   15  N   UNL     1      44.426 -12.992   7.295  1.00  0.00    -0.360 N 
HETATM   16  H   UNL     1      43.762 -12.233   7.213  1.00  0.00     0.162 HD
HETATM   17  O   UNL     1      44.758 -15.232   6.895  1.00  0.00    -0.273 OA
BRANCH  15  18
HETATM   18  C   UNL     1      45.383 -12.896   8.389  1.00  0.00     0.127 C 
BRANCH  18  19
HETATM   19  C   UNL     1      45.292 -11.542   9.095  1.00  0.00     0.058 C 
BRANCH  19  20
HETATM   20  C   UNL     1      44.097 -11.469  10.011  1.00  0.00    -0.057 A 
HETATM   21  C   UNL     1      42.917 -10.833   9.597  1.00  0.00     0.009 A 
HETATM   22  C   UNL     1      41.829 -10.726  10.467  1.00  0.00     0.025 A 
HETATM   23  C   UNL     1      41.920 -11.262  11.754  1.00  0.00     0.074 A 
HETATM   24  C   UNL     1      43.090 -11.893  12.182  1.00  0.00     0.025 A 
HETATM   25  C   UNL     1      44.173 -11.997  11.309  1.00  0.00     0.009 A 
BRANCH  23  26
HETATM   26  S   UNL     1      40.572 -11.069  12.884  1.00  0.00     0.239 S 
HETATM   27  O   UNL     1      41.099 -10.827  14.208  1.00  0.00    -0.206 OA
HETATM   28  O   UNL     1      39.568 -10.225  12.283  1.00  0.00    -0.206 OA
BRANCH  26  29
HETATM   29  N   UNL     1      39.921 -12.615  12.920  1.00  0.00    -0.225 NA
HETATM   30  H   UNL     1      40.445 -13.226  12.291  1.00  0.00     0.136 HD
HETATM   31  H   UNL     1      39.892 -12.953  13.883  1.00  0.00     0.136 HD
ENDBRANCH  26  29
ENDBRANCH  23  26
ENDBRANCH  19  20
ENDBRANCH  18  19
ENDBRANCH  15  18
ENDBRANCH  13  14
ENDBRANCH  12  13
ENDBRANCH   9  12
BRANCH  10  32
HETATM   32  C   UNL     1      42.214 -16.100   2.249  1.00  0.00     0.043 A 
HETATM   33  C   UNL     1      43.250 -16.257   1.324  1.00  0.00     0.033 A 
HETATM   34  C   UNL     1      43.969 -17.451   1.311  1.00  0.00     0.039 A 
HETATM   35  C   UNL     1      43.654 -18.486   2.200  1.00  0.00     0.076 A 
HETATM   36  C   UNL     1      42.599 -18.321   3.107  1.00  0.00     0.039 A 
HETATM   37  C   UNL     1      41.887 -17.115   3.151  1.00  0.00     0.033 A 
BRANCH  35  38
HETATM   38  O   UNL     1      44.455 -19.599   2.073  1.00  0.00    -0.311 OA
BRANCH  38  39
HETATM   39  C   UNL     1      44.506 -20.512   3.094  1.00  0.00     0.076 A 
HETATM   40  C   UNL     1      44.451 -21.865   2.762  1.00  0.00     0.037 A 
HETATM   41  C   UNL     1      44.583 -22.828   3.762  1.00  0.00     0.003 A 
HETATM   42  C   UNL     1      44.775 -22.435   5.086  1.00  0.00     0.000 A 
HETATM   43  C   UNL     1      44.854 -21.080   5.412  1.00  0.00     0.003 A 
HETATM   44  C   UNL     1      44.735 -20.114   4.413  1.00  0.00     0.037 A 
ENDBRANCH  38  39
ENDBRANCH  35  38
ENDBRANCH  10  32
BRANCH  11  45
HETATM   45  N   UNL     1      39.855 -15.624   0.790  1.00  0.00    -0.384 N 
HETATM   46  H   UNL     1      40.138 -16.596   0.858  1.00  0.00     0.157 HD
HETATM   47  H   UNL     1      39.606 -15.334  -0.151  1.00  0.00     0.157 HD
ENDBRANCH  11  45
TORSDOF 12
ENDMDL
MODEL 2
REMARK VINA RESULT:     -10.3      2.821      6.158
REMARK  12 active torsions:
REMARK  status: ('A' for Active; 'I' for Inactive)
REMARK    1  A    between atoms: C_9  and  S_10 
REMARK    2  A    between atoms: S_10  and  C_11 
REMARK    3  A    between atoms: C_11  and  C_12 
REMARK       I    between atoms: C_12  and  N_13 
REMARK    4  A    between atoms: N_13  and  C_14 
REMARK    5  A    between atoms: C_14  and  C_15 
REMARK    6  A    between atoms: C_15  and  C_16 
REMARK    7  A    between atoms: C_19  and  S_20 
REMARK    8  A    between atoms: S_20  and  N_21 
REMARK    9  A    between atoms: N_27  and  C_28 
REMARK   10  A    between atoms: C_31  and  O_32 
REMARK   11  A    between atoms: O_32  and  C_33 
REMARK   12  A    between atoms: C_41  and  N_42 
ROOT
HETATM    1  C   UNL     1      44.501 -21.290   2.506  1.00  0.00     0.073 C 
HETATM    2  C   UNL     1      44.378 -20.368   3.666  1.00  0.00     0.068 A 
HETATM    3  N   UNL     1      45.015 -20.668   4.805  1.00  0.00    -0.177 NA
HETATM    4  N   UNL     1      44.726 -19.650   5.625  1.00  0.00    -0.260 N 
HETATM    5  H   UNL     1      45.116 -19.647   6.562  1.00  0.00     0.191 HD
HETATM    6  C   UNL     1      43.908 -18.719   5.051  1.00  0.00     0.162 A 
HETATM    7  C   UNL     1      43.656 -19.139   3.764  1.00  0.00     0.081 A 
HETATM    8  N   UNL     1      43.444 -17.617   5.633  1.00  0.00    -0.204 NA
HETATM    9  C   UNL     1      42.694 -16.867   4.795  1.00  0.00     0.177 A 
HETATM   10  N   UNL     1      42.415 -17.185   3.497  1.00  0.00    -0.276 N 
HETATM   11  C   UNL     1      42.832 -18.361   2.934  1.00  0.00     0.124 A 
ENDROOT
BRANCH   9  12
HETATM   12  S   UNL     1      42.140 -15.346   5.567  1.00  0.00    -0.082 SA
BRANCH  12  13
HETATM   13  C   UNL     1      43.736 -14.464   5.624  1.00  0.00     0.185 C 
BRANCH  13  14
HETATM   14  C   UNL     1      44.321 -14.422   7.026  1.00  0.00     0.227 C 
HETATM   15  N   UNL     1      44.921 -13.209   7.316  1.00  0.00    -0.360 N 
HETATM   16  H   UNL     1      44.720 -12.414   6.721  1.00  0.00     0.162 HD
HETATM   17  O   UNL     1      44.330 -15.380   7.790  1.00  0.00    -0.273 OA
BRANCH  15  18
HETATM   18  C   UNL     1      45.443 -12.907   8.641  1.00  0.00     0.127 C 
BRANCH  18  19
HETATM   19  C   UNL     1      45.200 -11.444   9.019  1.00  0.00     0.058 C 
BRANCH  19  20
HETATM   20  C   UNL     1      44.050 -11.300   9.982  1.00  0.00    -0.057 A 
HETATM   21  C   UNL     1      44.204 -11.638  11.335  1.00  0.00     0.009 A 
HETATM   22  C   UNL     1      43.122 -11.547  12.214  1.00  0.00     0.025 A 
HETATM   23  C   UNL     1      41.882 -11.112  11.739  1.00  0.00     0.074 A 
HETATM   24  C   UNL     1      41.712 -10.778  10.393  1.00  0.00     0.025 A 
HETATM   25  C   UNL     1      42.796 -10.870   9.520  1.00  0.00     0.009 A 
BRANCH  23  26
HETATM   26  S   UNL     1      40.490 -11.062  12.831  1.00  0.00     0.239 S 
HETATM   27  O   UNL     1      40.959 -10.823  14.177  1.00  0.00    -0.206 OA
HETATM   28  O   UNL     1      39.440 -10.281  12.225  1.00  0.00    -0.206 OA
BRANCH  26  29
HETATM   29  N   UNL     1      39.963 -12.656  12.800  1.00  0.00    -0.225 NA
HETATM   30  H   UNL     1      40.188 -13.076  11.897  1.00  0.00     0.136 HD
HETATM   31  H   UNL     1      40.358 -13.163  13.594  1.00  0.00     0.136 HD
ENDBRANCH  26  29
ENDBRANCH  23  26
ENDBRANCH  19  20
ENDBRANCH  18  19
ENDBRANCH  15  18
ENDBRANCH  13  14
ENDBRANCH  12  13
ENDBRANCH   9  12
BRANCH  10  32
HETATM   32  C   UNL     1      41.715 -16.242   2.654  1.00  0.00     0.043 A 
HETATM   33  C   UNL     1      42.468 -15.306   1.941  1.00  0.00     0.033 A 
HETATM   34  C   UNL     1      41.820 -14.460   1.042  1.00  0.00     0.039 A 
HETATM   35  C   UNL     1      40.433 -14.535   0.862  1.00  0.00     0.076 A 
HETATM   36  C   UNL     1      39.690 -15.465   1.601  1.00  0.00     0.039 A 
HETATM   37  C   UNL     1      40.332 -16.341   2.486  1.00  0.00     0.033 A 
BRANCH  35  38
HETATM   38  O   UNL     1      39.938 -13.643  -0.062  1.00  0.00    -0.311 OA
BRANCH  38  39
HETATM   39  C   UNL     1      39.534 -14.100  -1.290  1.00  0.00     0.076 A 
HETATM   40  C   UNL     1      40.450 -14.831  -2.046  1.00  0.00     0.037 A 
HETATM   41  C   UNL     1      40.055 -15.383  -3.264  1.00  0.00     0.003 A 
HETATM   42  C   UNL     1      38.747 -15.210  -3.716  1.00  0.00     0.000 A 
HETATM   43  C   UNL     1      37.826 -14.498  -2.944  1.00  0.00     0.003 A 
HETATM   44  C   UNL     1      38.214 -13.954  -1.720  1.00  0.00     0.037 A 
ENDBRANCH  38  39
ENDBRANCH  35  38
ENDBRANCH  10  32
BRANCH  11  45
HETATM   45  N   UNL     1      42.475 -18.759   1.650  1.00  0.00    -0.384 N 
HETATM   46  H   UNL     1      41.725 -18.295   1.149  1.00  0.00     0.157 HD
HETATM   47  H   UNL     1      42.592 -19.736   1.400  1.00  0.00     0.157 HD
ENDBRANCH  11  45
TORSDOF 12
ENDMDL
MODEL 3
REMARK VINA RESULT:      -9.6      4.482      7.356
REMARK  12 active torsions:
REMARK  status: ('A' for Active; 'I' for Inactive)
REMARK    1  A    between atoms: C_9  and  S_10 
REMARK    2  A    between atoms: S_10  and  C_11 
REMARK    3  A    between atoms: C_11  and  C_12 
REMARK       I    between atoms: C_12  and  N_13 
REMARK    4  A    between atoms: N_13  and  C_14 
REMARK    5  A    between atoms: C_14  and  C_15 
REMARK    6  A    between atoms: C_15  and  C_16 
REMARK    7  A    between atoms: C_19  and  S_20 
REMARK    8  A    between atoms: S_20  and  N_21 
REMARK    9  A    between atoms: N_27  and  C_28 
REMARK   10  A    between atoms: C_31  and  O_32 
REMARK   11  A    between atoms: O_32  and  C_33 
REMARK   12  A    between atoms: C_41  and  N_42 
ROOT
HETATM    1  C   UNL     1      38.141 -13.696  -2.064  1.00  0.00     0.073 C 
HETATM    2  C   UNL     1      38.166 -13.592  -0.581  1.00  0.00     0.068 A 
HETATM    3  N   UNL     1      37.257 -12.824   0.032  1.00  0.00    -0.177 NA
HETATM    4  N   UNL     1      37.533 -12.960   1.336  1.00  0.00    -0.260 N 
HETATM    5  H   UNL     1      36.955 -12.473   2.014  1.00  0.00     0.191 HD
HETATM    6  C   UNL     1      38.602 -13.776   1.572  1.00  0.00     0.162 A 
HETATM    7  C   UNL     1      39.050 -14.222   0.348  1.00  0.00     0.081 A 
HETATM    8  N   UNL     1      39.111 -14.076   2.763  1.00  0.00    -0.204 NA
HETATM    9  C   UNL     1      40.141 -14.947   2.680  1.00  0.00     0.177 A 
HETATM   10  N   UNL     1      40.636 -15.466   1.518  1.00  0.00    -0.276 N 
HETATM   11  C   UNL     1      40.155 -15.087   0.294  1.00  0.00     0.124 A 
ENDROOT
BRANCH   9  12
HETATM   12  S   UNL     1      40.768 -15.405   4.296  1.00  0.00    -0.082 SA
BRANCH  12  13
HETATM   13  C   UNL     1      40.599 -13.791   5.129  1.00  0.00     0.185 C 
BRANCH  13  14
HETATM   14  C   UNL     1      41.329 -12.682   4.389  1.00  0.00     0.227 C 
HETATM   15  N   UNL     1      40.476 -11.684   3.950  1.00  0.00    -0.360 N 
HETATM   16  H   UNL     1      39.543 -11.637   4.342  1.00  0.00     0.162 HD
HETATM   17  O   UNL     1      42.529 -12.703   4.140  1.00  0.00    -0.273 OA
BRANCH  15  18
HETATM   18  C   UNL     1      40.974 -10.469   3.322  1.00  0.00     0.127 C 
BRANCH  18  19
HETATM   19  C   UNL     1      40.074 -10.028   2.165  1.00  0.00     0.058 C 
BRANCH  19  20
HETATM   20  C   UNL     1      40.504 -10.642   0.857  1.00  0.00    -0.057 A 
HETATM   21  C   UNL     1      41.585 -11.533   0.807  1.00  0.00     0.009 A 
HETATM   22  C   UNL     1      42.010 -12.062  -0.414  1.00  0.00     0.025 A 
HETATM   23  C   UNL     1      41.347 -11.701  -1.590  1.00  0.00     0.074 A 
HETATM   24  C   UNL     1      40.273 -10.810  -1.556  1.00  0.00     0.025 A 
HETATM   25  C   UNL     1      39.852 -10.285  -0.334  1.00  0.00     0.009 A 
BRANCH  23  26
HETATM   26  S   UNL     1      41.923 -12.312  -3.147  1.00  0.00     0.239 S 
HETATM   27  O   UNL     1      40.802 -12.846  -3.886  1.00  0.00    -0.206 OA
HETATM   28  O   UNL     1      42.845 -11.361  -3.717  1.00  0.00    -0.206 OA
BRANCH  26  29
HETATM   29  N   UNL     1      42.846 -13.636  -2.684  1.00  0.00    -0.225 NA
HETATM   30  H   UNL     1      43.818 -13.493  -2.962  1.00  0.00     0.136 HD
HETATM   31  H   UNL     1      42.729 -13.802  -1.683  1.00  0.00     0.136 HD
ENDBRANCH  26  29
ENDBRANCH  23  26
ENDBRANCH  19  20
ENDBRANCH  18  19
ENDBRANCH  15  18
ENDBRANCH  13  14
ENDBRANCH  12  13
ENDBRANCH   9  12
BRANCH  10  32
HETATM   32  C   UNL     1      41.652 -16.493   1.557  1.00  0.00     0.043 A 
HETATM   33  C   UNL     1      42.992 -16.097   1.604  1.00  0.00     0.033 A 
HETATM   34  C   UNL     1      43.979 -17.070   1.750  1.00  0.00     0.039 A 
HETATM   35  C   UNL     1      43.640 -18.427   1.837  1.00  0.00     0.076 A 
HETATM   36  C   UNL     1      42.294 -18.808   1.767  1.00  0.00     0.039 A 
HETATM   37  C   UNL     1      41.290 -17.839   1.649  1.00  0.00     0.033 A 
BRANCH  35  38
HETATM   38  O   UNL     1      44.721 -19.267   1.987  1.00  0.00    -0.311 OA
BRANCH  38  39
HETATM   39  C   UNL     1      44.664 -20.279   2.909  1.00  0.00     0.076 A 
HETATM   40  C   UNL     1      44.692 -21.592   2.438  1.00  0.00     0.037 A 
HETATM   41  C   UNL     1      44.719 -22.651   3.345  1.00  0.00     0.003 A 
HETATM   42  C   UNL     1      44.724 -22.394   4.716  1.00  0.00     0.000 A 
HETATM   43  C   UNL     1      44.720 -21.078   5.183  1.00  0.00     0.003 A 
HETATM   44  C   UNL     1      44.706 -20.016   4.279  1.00  0.00     0.037 A 
ENDBRANCH  38  39
ENDBRANCH  35  38
ENDBRANCH  10  32
BRANCH  11  45
HETATM   45  N   UNL     1      40.707 -15.519  -0.908  1.00  0.00    -0.384 N 
HETATM   46  H   UNL     1      41.292 -16.347  -0.947  1.00  0.00     0.157 HD
HETATM   47  H   UNL     1      40.937 -14.821  -1.609  1.00  0.00     0.157 HD
ENDBRANCH  11  45
TORSDOF 12
ENDMDL
MODEL 4
REMARK VINA RESULT:      -9.6      4.575      7.344
REMARK  12 active torsions:
REMARK  status: ('A' for Active; 'I' for Inactive)
REMARK    1  A    between atoms: C_9  and  S_10 
REMARK    2  A    between atoms: S_10  and  C_11 
REMARK    3  A    between atoms: C_11  and  C_12 
REMARK       I    between atoms: C_12  and  N_13 
REMARK    4  A    between atoms: N_13  and  C_14 
REMARK    5  A    between atoms: C_14  and  C_15 
REMARK    6  A    between atoms: C_15  and  C_16 
REMARK    7  A    between atoms: C_19  and  S_20 
REMARK    8  A    between atoms: S_20  and  N_21 
REMARK    9  A    between atoms: N_27  and  C_28 
REMARK   10  A    between atoms: C_31  and  O_32 
REMARK   11  A    between atoms: O_32  and  C_33 
REMARK   12  A    between atoms: C_41  and  N_42 
ROOT
HETATM    1  C   UNL     1      39.799 -11.255   6.734  1.00  0.00     0.073 C 
HETATM    2  C   UNL     1      39.476 -11.762   5.373  1.00  0.00     0.068 A 
HETATM    3  N   UNL     1      38.711 -11.016   4.567  1.00  0.00    -0.177 NA
HETATM    4  N   UNL     1      38.630 -11.729   3.435  1.00  0.00    -0.260 N 
HETATM    5  H   UNL     1      38.101 -11.352   2.654  1.00  0.00     0.191 HD
HETATM    6  C   UNL     1      39.302 -12.915   3.503  1.00  0.00     0.162 A 
HETATM    7  C   UNL     1      39.881 -12.982   4.751  1.00  0.00     0.081 A 
HETATM    8  N   UNL     1      39.378 -13.829   2.541  1.00  0.00    -0.204 NA
HETATM    9  C   UNL     1      40.156 -14.880   2.886  1.00  0.00     0.177 A 
HETATM   10  N   UNL     1      40.794 -15.021   4.085  1.00  0.00    -0.276 N 
HETATM   11  C   UNL     1      40.643 -14.111   5.096  1.00  0.00     0.124 A 
ENDROOT
BRANCH   9  12
HETATM   12  S   UNL     1      40.313 -16.068   1.552  1.00  0.00    -0.082 SA
BRANCH  12  13
HETATM   13  C   UNL     1      41.594 -15.217   0.570  1.00  0.00     0.185 C 
BRANCH  13  14
HETATM   14  C   UNL     1      41.038 -14.627  -0.715  1.00  0.00     0.227 C 
HETATM   15  N   UNL     1      42.028 -14.322  -1.633  1.00  0.00    -0.360 N 
HETATM   16  H   UNL     1      42.950 -14.718  -1.500  1.00  0.00     0.162 HD
HETATM   17  O   UNL     1      39.852 -14.376  -0.892  1.00  0.00    -0.273 OA
BRANCH  15  18
HETATM   18  C   UNL     1      41.713 -13.856  -2.976  1.00  0.00     0.127 C 
BRANCH  18  19
HETATM   19  C   UNL     1      42.183 -12.416  -3.192  1.00  0.00     0.058 C 
BRANCH  19  20
HETATM   20  C   UNL     1      41.802 -11.525  -2.038  1.00  0.00    -0.057 A 
HETATM   21  C   UNL     1      42.743 -11.188  -1.054  1.00  0.00     0.009 A 
HETATM   22  C   UNL     1      42.373 -10.401   0.039  1.00  0.00     0.025 A 
HETATM   23  C   UNL     1      41.057  -9.944   0.146  1.00  0.00     0.074 A 
HETATM   24  C   UNL     1      40.108 -10.276  -0.823  1.00  0.00     0.025 A 
HETATM   25  C   UNL     1      40.483 -11.062  -1.912  1.00  0.00     0.009 A 
BRANCH  23  26
HETATM   26  S   UNL     1      40.564  -9.006   1.563  1.00  0.00     0.239 S 
HETATM   27  O   UNL     1      41.287  -7.755   1.572  1.00  0.00    -0.206 OA
HETATM   28  O   UNL     1      39.130  -9.074   1.701  1.00  0.00    -0.206 OA
BRANCH  26  29
HETATM   29  N   UNL     1      41.197  -9.916   2.823  1.00  0.00    -0.225 NA
HETATM   30  H   UNL     1      40.997  -9.459   3.714  1.00  0.00     0.136 HD
HETATM   31  H   UNL     1      40.842 -10.872   2.768  1.00  0.00     0.136 HD
ENDBRANCH  26  29
ENDBRANCH  23  26
ENDBRANCH  19  20
ENDBRANCH  18  19
ENDBRANCH  15  18
ENDBRANCH  13  14
ENDBRANCH  12  13
ENDBRANCH   9  12
BRANCH  10  32
HETATM   32  C   UNL     1      41.708 -16.120   4.294  1.00  0.00     0.043 A 
HETATM   33  C   UNL     1      43.048 -15.943   3.936  1.00  0.00     0.033 A 
HETATM   34  C   UNL     1      43.964 -16.952   4.229  1.00  0.00     0.039 A 
HETATM   35  C   UNL     1      43.552 -18.132   4.862  1.00  0.00     0.076 A 
HETATM   36  C   UNL     1      42.202 -18.302   5.194  1.00  0.00     0.039 A 
HETATM   37  C   UNL     1      41.276 -17.284   4.932  1.00  0.00     0.033 A 
BRANCH  35  38
HETATM   38  O   UNL     1      44.570 -19.031   5.092  1.00  0.00    -0.311 OA
BRANCH  38  39
HETATM   39  C   UNL     1      44.624 -20.188   4.360  1.00  0.00     0.076 A 
HETATM   40  C   UNL     1      44.750 -21.392   5.052  1.00  0.00     0.037 A 
HETATM   41  C   UNL     1      44.727 -22.598   4.352  1.00  0.00     0.003 A 
HETATM   42  C   UNL     1      44.571 -22.595   2.966  1.00  0.00     0.000 A 
HETATM   43  C   UNL     1      44.421 -21.389   2.279  1.00  0.00     0.003 A 
HETATM   44  C   UNL     1      44.431 -20.182   2.977  1.00  0.00     0.037 A 
ENDBRANCH  38  39
ENDBRANCH  35  38
ENDBRANCH  10  32
BRANCH  11  45
HETATM   45  N   UNL     1      41.195 -14.280   6.362  1.00  0.00    -0.384 N 
HETATM   46  H   UNL     1      41.973 -14.915   6.511  1.00  0.00     0.157 HD
HETATM   47  H   UNL     1      40.588 -14.179   7.169  1.00  0.00     0.157 HD
ENDBRANCH  11  45
TORSDOF 12
ENDMDL
MODEL 5
REMARK VINA RESULT:      -9.5      4.405      9.637
REMARK  12 active torsions:
REMARK  status: ('A' for Active; 'I' for Inactive)
REMARK    1  A    between atoms: C_9  and  S_10 
REMARK    2  A    between atoms: S_10  and  C_11 
REMARK    3  A    between atoms: C_11  and  C_12 
REMARK       I    between atoms: C_12  and  N_13 
REMARK    4  A    between atoms: N_13  and  C_14 
REMARK    5  A    between atoms: C_14  and  C_15 
REMARK    6  A    between atoms: C_15  and  C_16 
REMARK    7  A    between atoms: C_19  and  S_20 
REMARK    8  A    between atoms: S_20  and  N_21 
REMARK    9  A    between atoms: N_27  and  C_28 
REMARK   10  A    between atoms: C_31  and  O_32 
REMARK   11  A    between atoms: O_32  and  C_33 
REMARK   12  A    between atoms: C_41  and  N_42 
ROOT
HETATM    1  C   UNL     1      43.648 -20.985   7.750  1.00  0.00     0.073 C 
HETATM    2  C   UNL     1      43.954 -20.612   6.343  1.00  0.00     0.068 A 
HETATM    3  N   UNL     1      44.482 -21.532   5.527  1.00  0.00    -0.177 NA
HETATM    4  N   UNL     1      44.614 -20.899   4.354  1.00  0.00    -0.260 N 
HETATM    5  H   UNL     1      44.988 -21.408   3.559  1.00  0.00     0.191 HD
HETATM    6  C   UNL     1      44.206 -19.597   4.403  1.00  0.00     0.162 A 
HETATM    7  C   UNL     1      43.758 -19.360   5.684  1.00  0.00     0.081 A 
HETATM    8  N   UNL     1      44.241 -18.726   3.399  1.00  0.00    -0.204 NA
HETATM    9  C   UNL     1      43.725 -17.523   3.739  1.00  0.00     0.177 A 
HETATM   10  N   UNL     1      43.230 -17.204   4.971  1.00  0.00    -0.276 N 
HETATM   11  C   UNL     1      43.274 -18.084   6.019  1.00  0.00     0.124 A 
ENDROOT
BRANCH   9  12
HETATM   12  S   UNL     1      43.705 -16.383   2.356  1.00  0.00    -0.082 SA
BRANCH  12  13
HETATM   13  C   UNL     1      42.688 -17.364   1.201  1.00  0.00     0.185 C 
BRANCH  13  14
HETATM   14  C   UNL     1      41.423 -16.631   0.782  1.00  0.00     0.227 C 
HETATM   15  N   UNL     1      40.511 -16.512   1.816  1.00  0.00    -0.360 N 
HETATM   16  H   UNL     1      40.827 -16.677   2.763  1.00  0.00     0.162 HD
HETATM   17  O   UNL     1      41.201 -16.255  -0.363  1.00  0.00    -0.273 OA
BRANCH  15  18
HETATM   18  C   UNL     1      39.282 -15.745   1.670  1.00  0.00     0.127 C 
BRANCH  18  19
HETATM   19  C   UNL     1      39.351 -14.426   2.442  1.00  0.00     0.058 C 
BRANCH  19  20
HETATM   20  C   UNL     1      40.073 -13.358   1.660  1.00  0.00    -0.057 A 
HETATM   21  C   UNL     1      41.424 -13.080   1.910  1.00  0.00     0.009 A 
HETATM   22  C   UNL     1      42.076 -12.057   1.215  1.00  0.00     0.025 A 
HETATM   23  C   UNL     1      41.372 -11.313   0.264  1.00  0.00     0.074 A 
HETATM   24  C   UNL     1      40.025 -11.575   0.009  1.00  0.00     0.025 A 
HETATM   25  C   UNL     1      39.380 -12.597   0.705  1.00  0.00     0.009 A 
BRANCH  23  26
HETATM   26  S   UNL     1      42.172  -9.972  -0.568  1.00  0.00     0.239 S 
HETATM   27  O   UNL     1      41.567  -9.799  -1.869  1.00  0.00    -0.206 OA
HETATM   28  O   UNL     1      42.348  -8.879   0.356  1.00  0.00    -0.206 OA
BRANCH  26  29
HETATM   29  N   UNL     1      43.704 -10.596  -0.849  1.00  0.00    -0.225 NA
HETATM   30  H   UNL     1      43.654 -11.614  -0.922  1.00  0.00     0.136 HD
HETATM   31  H   UNL     1      44.112 -10.149  -1.672  1.00  0.00     0.136 HD
ENDBRANCH  26  29
ENDBRANCH  23  26
ENDBRANCH  19  20
ENDBRANCH  18  19
ENDBRANCH  15  18
ENDBRANCH  13  14
ENDBRANCH  12  13
ENDBRANCH   9  12
BRANCH  10  32
HETATM   32  C   UNL     1      42.580 -15.931   5.184  1.00  0.00     0.043 A 
HETATM   33  C   UNL     1      41.186 -15.907   5.273  1.00  0.00     0.033 A 
HETATM   34  C   UNL     1      40.549 -14.706   5.584  1.00  0.00     0.039 A 
HETATM   35  C   UNL     1      41.291 -13.536   5.793  1.00  0.00     0.076 A 
HETATM   36  C   UNL     1      42.686 -13.574   5.678  1.00  0.00     0.039 A 
HETATM   37  C   UNL     1      43.341 -14.779   5.395  1.00  0.00     0.033 A 
BRANCH  35  38
HETATM   38  O   UNL     1      40.525 -12.434   6.099  1.00  0.00    -0.311 OA
BRANCH  38  39
HETATM   39  C   UNL     1      40.151 -11.575   5.098  1.00  0.00     0.076 A 
HETATM   40  C   UNL     1      38.818 -11.592   4.689  1.00  0.00     0.037 A 
HETATM   41  C   UNL     1      38.377 -10.679   3.732  1.00  0.00     0.003 A 
HETATM   42  C   UNL     1      39.268  -9.749   3.193  1.00  0.00     0.000 A 
HETATM   43  C   UNL     1      40.596  -9.720   3.623  1.00  0.00     0.003 A 
HETATM   44  C   UNL     1      41.037 -10.623   4.589  1.00  0.00     0.037 A 
ENDBRANCH  38  39
ENDBRANCH  35  38
ENDBRANCH  10  32
BRANCH  11  45
HETATM   45  N   UNL     1      42.875 -17.752   7.309  1.00  0.00    -0.384 N 
HETATM   46  H   UNL     1      42.812 -18.459   8.035  1.00  0.00     0.157 HD
HETATM   47  H   UNL     1      42.221 -16.984   7.428  1.00  0.00     0.157 HD
ENDBRANCH  11  45
TORSDOF 12
ENDMDL
MODEL 6
REMARK VINA RESULT:      -9.4      4.639      7.877
REMARK  12 active torsions:
REMARK  status: ('A' for Active; 'I' for Inactive)
REMARK    1  A    between atoms: C_9  and  S_10 
REMARK    2  A    between atoms: S_10  and  C_11 
REMARK    3  A    between atoms: C_11  and  C_12 
REMARK       I    between atoms: C_12  and  N_13 
REMARK    4  A    between atoms: N_13  and  C_14 
REMARK    5  A    between atoms: C_14  and  C_15 
REMARK    6  A    between atoms: C_15  and  C_16 
REMARK    7  A    between atoms: C_19  and  S_20 
REMARK    8  A    between atoms: S_20  and  N_21 
REMARK    9  A    between atoms: N_27  and  C_28 
REMARK   10  A    between atoms: C_31  and  O_32 
REMARK   11  A    between atoms: O_32  and  C_33 
REMARK   12  A    between atoms: C_41  and  N_42 
ROOT
HETATM    1  C   UNL     1      39.461 -11.458   6.941  1.00  0.00     0.073 C 
HETATM    2  C   UNL     1      39.230 -11.859   5.528  1.00  0.00     0.068 A 
HETATM    3  N   UNL     1      38.483 -11.073   4.744  1.00  0.00    -0.177 NA
HETATM    4  N   UNL     1      38.487 -11.690   3.555  1.00  0.00    -0.260 N 
HETATM    5  H   UNL     1      37.988 -11.267   2.779  1.00  0.00     0.191 HD
HETATM    6  C   UNL     1      39.198 -12.856   3.563  1.00  0.00     0.162 A 
HETATM    7  C   UNL     1      39.712 -13.009   4.831  1.00  0.00     0.081 A 
HETATM    8  N   UNL     1      39.358 -13.684   2.534  1.00  0.00    -0.204 NA
HETATM    9  C   UNL     1      40.154 -14.734   2.835  1.00  0.00     0.177 A 
HETATM   10  N   UNL     1      40.732 -14.954   4.053  1.00  0.00    -0.276 N 
HETATM   11  C   UNL     1      40.495 -14.138   5.125  1.00  0.00     0.124 A 
ENDROOT
BRANCH   9  12
HETATM   12  S   UNL     1      40.426 -15.800   1.420  1.00  0.00    -0.082 SA
BRANCH  12  13
HETATM   13  C   UNL     1      41.932 -15.010   0.760  1.00  0.00     0.185 C 
BRANCH  13  14
HETATM   14  C   UNL     1      41.700 -14.372  -0.600  1.00  0.00     0.227 C 
HETATM   15  N   UNL     1      41.274 -15.285  -1.550  1.00  0.00    -0.360 N 
HETATM   16  H   UNL     1      40.929 -16.184  -1.238  1.00  0.00     0.162 HD
HETATM   17  O   UNL     1      41.936 -13.196  -0.851  1.00  0.00    -0.273 OA
BRANCH  15  18
HETATM   18  C   UNL     1      40.880 -14.872  -2.889  1.00  0.00     0.127 C 
BRANCH  18  19
HETATM   19  C   UNL     1      39.358 -14.804  -3.029  1.00  0.00     0.058 C 
BRANCH  19  20
HETATM   20  C   UNL     1      38.771 -13.683  -2.209  1.00  0.00    -0.057 A 
HETATM   21  C   UNL     1      38.974 -12.345  -2.578  1.00  0.00     0.009 A 
HETATM   22  C   UNL     1      38.469 -11.309  -1.789  1.00  0.00     0.025 A 
HETATM   23  C   UNL     1      37.753 -11.614  -0.627  1.00  0.00     0.074 A 
HETATM   24  C   UNL     1      37.549 -12.940  -0.244  1.00  0.00     0.025 A 
HETATM   25  C   UNL     1      38.055 -13.971  -1.036  1.00  0.00     0.009 A 
BRANCH  23  26
HETATM   26  S   UNL     1      37.171 -10.306   0.414  1.00  0.00     0.239 S 
HETATM   27  O   UNL     1      38.279  -9.792   1.186  1.00  0.00    -0.206 OA
HETATM   28  O   UNL     1      36.293  -9.451  -0.346  1.00  0.00    -0.206 OA
BRANCH  26  29
HETATM   29  N   UNL     1      36.193 -11.132   1.499  1.00  0.00    -0.225 NA
HETATM   30  H   UNL     1      35.744 -11.920   1.030  1.00  0.00     0.136 HD
HETATM   31  H   UNL     1      36.741 -11.405   2.316  1.00  0.00     0.136 HD
ENDBRANCH  26  29
ENDBRANCH  23  26
ENDBRANCH  19  20
ENDBRANCH  18  19
ENDBRANCH  15  18
ENDBRANCH  13  14
ENDBRANCH  12  13
ENDBRANCH   9  12
BRANCH  10  32
HETATM   32  C   UNL     1      41.674 -16.037   4.222  1.00  0.00     0.043 A 
HETATM   33  C   UNL     1      43.032 -15.769   4.033  1.00  0.00     0.033 A 
HETATM   34  C   UNL     1      43.963 -16.773   4.296  1.00  0.00     0.039 A 
HETATM   35  C   UNL     1      43.547 -18.038   4.732  1.00  0.00     0.076 A 
HETATM   36  C   UNL     1      42.181 -18.297   4.896  1.00  0.00     0.039 A 
HETATM   37  C   UNL     1      41.236 -17.288   4.663  1.00  0.00     0.033 A 
BRANCH  35  38
HETATM   38  O   UNL     1      44.579 -18.921   4.958  1.00  0.00    -0.311 OA
BRANCH  38  39
HETATM   39  C   UNL     1      44.530 -20.171   4.398  1.00  0.00     0.076 A 
HETATM   40  C   UNL     1      44.398 -20.260   3.012  1.00  0.00     0.037 A 
HETATM   41  C   UNL     1      44.425 -21.509   2.394  1.00  0.00     0.003 A 
HETATM   42  C   UNL     1      44.592 -22.662   3.161  1.00  0.00     0.000 A 
HETATM   43  C   UNL     1      44.748 -22.568   4.545  1.00  0.00     0.003 A 
HETATM   44  C   UNL     1      44.733 -21.319   5.166  1.00  0.00     0.037 A 
ENDBRANCH  38  39
ENDBRANCH  35  38
ENDBRANCH  10  32
BRANCH  11  45
HETATM   45  N   UNL     1      40.985 -14.395   6.401  1.00  0.00    -0.384 N 
HETATM   46  H   UNL     1      41.198 -13.638   7.042  1.00  0.00     0.157 HD
HETATM   47  H   UNL     1      41.559 -15.222   6.538  1.00  0.00     0.157 HD
ENDBRANCH  11  45
TORSDOF 12
ENDMDL
MODEL 7
REMARK VINA RESULT:      -9.4      4.671      8.451
REMARK  12 active torsions:
REMARK  status: ('A' for Active; 'I' for Inactive)
REMARK    1  A    between atoms: C_9  and  S_10 
REMARK    2  A    between atoms: S_10  and  C_11 
REMARK    3  A    between atoms: C_11  and  C_12 
REMARK       I    between atoms: C_12  and  N_13 
REMARK    4  A    between atoms: N_13  and  C_14 
REMARK    5  A    between atoms: C_14  and  C_15 
REMARK    6  A    between atoms: C_15  and  C_16 
REMARK    7  A    between atoms: C_19  and  S_20 
REMARK    8  A    between atoms: S_20  and  N_21 
REMARK    9  A    between atoms: N_27  and  C_28 
REMARK   10  A    between atoms: C_31  and  O_32 
REMARK   11  A    between atoms: O_32  and  C_33 
REMARK   12  A    between atoms: C_41  and  N_42 
ROOT
HETATM    1  C   UNL     1      39.658 -10.533   6.900  1.00  0.00     0.073 C 
HETATM    2  C   UNL     1      39.217 -10.946   5.542  1.00  0.00     0.068 A 
HETATM    3  N   UNL     1      38.387 -10.148   4.858  1.00  0.00    -0.177 NA
HETATM    4  N   UNL     1      38.205 -10.781   3.691  1.00  0.00    -0.260 N 
HETATM    5  H   UNL     1      37.612 -10.353   2.987  1.00  0.00     0.191 HD
HETATM    6  C   UNL     1      38.876 -11.968   3.619  1.00  0.00     0.162 A 
HETATM    7  C   UNL     1      39.561 -12.120   4.804  1.00  0.00     0.081 A 
HETATM    8  N   UNL     1      38.864 -12.814   2.593  1.00  0.00    -0.204 NA
HETATM    9  C   UNL     1      39.665 -13.884   2.796  1.00  0.00     0.177 A 
HETATM   10  N   UNL     1      40.404 -14.106   3.923  1.00  0.00    -0.276 N 
HETATM   11  C   UNL     1      40.346 -13.268   5.003  1.00  0.00     0.124 A 
ENDROOT
BRANCH   9  12
HETATM   12  S   UNL     1      39.701 -14.977   1.376  1.00  0.00    -0.082 SA
BRANCH  12  13
HETATM   13  C   UNL     1      38.324 -14.248   0.427  1.00  0.00     0.185 C 
BRANCH  13  14
HETATM   14  C   UNL     1      38.780 -13.682  -0.908  1.00  0.00     0.227 C 
HETATM   15  N   UNL     1      39.406 -14.628  -1.701  1.00  0.00    -0.360 N 
HETATM   16  H   UNL     1      39.296 -15.607  -1.466  1.00  0.00     0.162 HD
HETATM   17  O   UNL     1      38.676 -12.501  -1.219  1.00  0.00    -0.273 OA
BRANCH  15  18
HETATM   18  C   UNL     1      39.818 -14.335  -3.067  1.00  0.00     0.127 C 
BRANCH  18  19
HETATM   19  C   UNL     1      41.342 -14.327  -3.202  1.00  0.00     0.058 C 
BRANCH  19  20
HETATM   20  C   UNL     1      41.935 -13.011  -2.764  1.00  0.00    -0.057 A 
HETATM   21  C   UNL     1      42.371 -12.827  -1.444  1.00  0.00     0.009 A 
HETATM   22  C   UNL     1      42.875 -11.591  -1.032  1.00  0.00     0.025 A 
HETATM   23  C   UNL     1      42.948 -10.537  -1.946  1.00  0.00     0.074 A 
HETATM   24  C   UNL     1      42.512 -10.704  -3.262  1.00  0.00     0.025 A 
HETATM   25  C   UNL     1      42.010 -11.940  -3.668  1.00  0.00     0.009 A 
BRANCH  23  26
HETATM   26  S   UNL     1      43.520  -8.949  -1.412  1.00  0.00     0.239 S 
HETATM   27  O   UNL     1      44.964  -8.965  -1.357  1.00  0.00    -0.206 OA
HETATM   28  O   UNL     1      42.783  -7.922  -2.106  1.00  0.00    -0.206 OA
BRANCH  26  29
HETATM   29  N   UNL     1      42.995  -8.905   0.181  1.00  0.00    -0.225 NA
HETATM   30  H   UNL     1      43.799  -8.921   0.810  1.00  0.00     0.136 HD
HETATM   31  H   UNL     1      42.386  -8.097   0.320  1.00  0.00     0.136 HD
ENDBRANCH  26  29
ENDBRANCH  23  26
ENDBRANCH  19  20
ENDBRANCH  18  19
ENDBRANCH  15  18
ENDBRANCH  13  14
ENDBRANCH  12  13
ENDBRANCH   9  12
BRANCH  10  32
HETATM   32  C   UNL     1      41.329 -15.215   3.976  1.00  0.00     0.043 A 
HETATM   33  C   UNL     1      42.632 -15.013   3.509  1.00  0.00     0.033 A 
HETATM   34  C   UNL     1      43.566 -16.037   3.651  1.00  0.00     0.039 A 
HETATM   35  C   UNL     1      43.208 -17.257   4.241  1.00  0.00     0.076 A 
HETATM   36  C   UNL     1      41.893 -17.450   4.683  1.00  0.00     0.039 A 
HETATM   37  C   UNL     1      40.951 -16.419   4.573  1.00  0.00     0.033 A 
BRANCH  35  38
HETATM   38  O   UNL     1      44.238 -18.167   4.318  1.00  0.00    -0.311 OA
BRANCH  38  39
HETATM   39  C   UNL     1      44.124 -19.370   3.671  1.00  0.00     0.076 A 
HETATM   40  C   UNL     1      43.534 -19.377   2.408  1.00  0.00     0.037 A 
HETATM   41  C   UNL     1      43.471 -20.565   1.680  1.00  0.00     0.003 A 
HETATM   42  C   UNL     1      44.005 -21.737   2.215  1.00  0.00     0.000 A 
HETATM   43  C   UNL     1      44.617 -21.721   3.470  1.00  0.00     0.003 A 
HETATM   44  C   UNL     1      44.692 -20.533   4.195  1.00  0.00     0.037 A 
ENDBRANCH  38  39
ENDBRANCH  35  38
ENDBRANCH  10  32
BRANCH  11  45
HETATM   45  N   UNL     1      41.005 -13.523   6.201  1.00  0.00    -0.384 N 
HETATM   46  H   UNL     1      40.530 -13.416   7.092  1.00  0.00     0.157 HD
HETATM   47  H   UNL     1      42.005 -13.351   6.246  1.00  0.00     0.157 HD
ENDBRANCH  11  45
TORSDOF 12
ENDMDL
MODEL 8
REMARK VINA RESULT:      -9.4      4.868      9.670
REMARK  12 active torsions:
REMARK  status: ('A' for Active; 'I' for Inactive)
REMARK    1  A    between atoms: C_9  and  S_10 
REMARK    2  A    between atoms: S_10  and  C_11 
REMARK    3  A    between atoms: C_11  and  C_12 
REMARK       I    between atoms: C_12  and  N_13 
REMARK    4  A    between atoms: N_13  and  C_14 
REMARK    5  A    between atoms: C_14  and  C_15 
REMARK    6  A    between atoms: C_15  and  C_16 
REMARK    7  A    between atoms: C_19  and  S_20 
REMARK    8  A    between atoms: S_20  and  N_21 
REMARK    9  A    between atoms: N_27  and  C_28 
REMARK   10  A    between atoms: C_31  and  O_32 
REMARK   11  A    between atoms: O_32  and  C_33 
REMARK   12  A    between atoms: C_41  and  N_42 
ROOT
HETATM    1  C   UNL     1      39.718 -11.238   6.750  1.00  0.00     0.073 C 
HETATM    2  C   UNL     1      39.357 -11.766   5.408  1.00  0.00     0.068 A 
HETATM    3  N   UNL     1      38.541 -11.049   4.625  1.00  0.00    -0.177 NA
HETATM    4  N   UNL     1      38.435 -11.773   3.504  1.00  0.00    -0.260 N 
HETATM    5  H   UNL     1      37.867 -11.419   2.741  1.00  0.00     0.191 HD
HETATM    6  C   UNL     1      39.143 -12.939   3.554  1.00  0.00     0.162 A 
HETATM    7  C   UNL     1      39.772 -12.980   4.779  1.00  0.00     0.081 A 
HETATM    8  N   UNL     1      39.207 -13.860   2.597  1.00  0.00    -0.204 NA
HETATM    9  C   UNL     1      40.027 -14.885   2.919  1.00  0.00     0.177 A 
HETATM   10  N   UNL     1      40.715 -14.998   4.094  1.00  0.00    -0.276 N 
HETATM   11  C   UNL     1      40.578 -14.084   5.103  1.00  0.00     0.124 A 
ENDROOT
BRANCH   9  12
HETATM   12  S   UNL     1      40.166 -16.080   1.590  1.00  0.00    -0.082 SA
BRANCH  12  13
HETATM   13  C   UNL     1      41.465 -15.256   0.609  1.00  0.00     0.185 C 
BRANCH  13  14
HETATM   14  C   UNL     1      40.894 -14.481  -0.568  1.00  0.00     0.227 C 
HETATM   15  N   UNL     1      40.423 -13.232  -0.203  1.00  0.00    -0.360 N 
HETATM   16  H   UNL     1      40.702 -12.851   0.693  1.00  0.00     0.162 HD
HETATM   17  O   UNL     1      40.790 -14.939  -1.700  1.00  0.00    -0.273 OA
BRANCH  15  18
HETATM   18  C   UNL     1      39.941 -12.275  -1.189  1.00  0.00     0.127 C 
BRANCH  18  19
HETATM   19  C   UNL     1      38.463 -11.944  -0.972  1.00  0.00     0.058 C 
BRANCH  19  20
HETATM   20  C   UNL     1      37.635 -12.256  -2.192  1.00  0.00    -0.057 A 
HETATM   21  C   UNL     1      36.545 -11.447  -2.543  1.00  0.00     0.009 A 
HETATM   22  C   UNL     1      35.752 -11.768  -3.648  1.00  0.00     0.025 A 
HETATM   23  C   UNL     1      36.054 -12.901  -4.407  1.00  0.00     0.074 A 
HETATM   24  C   UNL     1      37.133 -13.720  -4.066  1.00  0.00     0.025 A 
HETATM   25  C   UNL     1      37.921 -13.394  -2.963  1.00  0.00     0.009 A 
BRANCH  23  26
HETATM   26  S   UNL     1      35.013 -13.352  -5.765  1.00  0.00     0.239 S 
HETATM   27  O   UNL     1      34.998 -14.792  -5.886  1.00  0.00    -0.206 OA
HETATM   28  O   UNL     1      33.805 -12.565  -5.717  1.00  0.00    -0.206 OA
BRANCH  26  29
HETATM   29  N   UNL     1      35.887 -12.785  -7.080  1.00  0.00    -0.225 NA
HETATM   30  H   UNL     1      36.770 -13.293  -7.154  1.00  0.00     0.136 HD
HETATM   31  H   UNL     1      35.314 -12.842  -7.924  1.00  0.00     0.136 HD
ENDBRANCH  26  29
ENDBRANCH  23  26
ENDBRANCH  19  20
ENDBRANCH  18  19
ENDBRANCH  15  18
ENDBRANCH  13  14
ENDBRANCH  12  13
ENDBRANCH   9  12
BRANCH  10  32
HETATM   32  C   UNL     1      41.667 -16.069   4.276  1.00  0.00     0.043 A 
HETATM   33  C   UNL     1      42.986 -15.860   3.863  1.00  0.00     0.033 A 
HETATM   34  C   UNL     1      43.941 -16.840   4.128  1.00  0.00     0.039 A 
HETATM   35  C   UNL     1      43.587 -18.025   4.786  1.00  0.00     0.076 A 
HETATM   36  C   UNL     1      42.257 -18.228   5.174  1.00  0.00     0.039 A 
HETATM   37  C   UNL     1      41.293 -17.239   4.940  1.00  0.00     0.033 A 
BRANCH  35  38
HETATM   38  O   UNL     1      44.638 -18.893   4.983  1.00  0.00    -0.311 OA
BRANCH  38  39
HETATM   39  C   UNL     1      44.576 -20.155   4.453  1.00  0.00     0.076 A 
HETATM   40  C   UNL     1      44.472 -20.276   3.068  1.00  0.00     0.037 A 
HETATM   41  C   UNL     1      44.488 -21.541   2.481  1.00  0.00     0.003 A 
HETATM   42  C   UNL     1      44.617 -22.677   3.279  1.00  0.00     0.000 A 
HETATM   43  C   UNL     1      44.746 -22.551   4.664  1.00  0.00     0.003 A 
HETATM   44  C   UNL     1      44.742 -21.287   5.253  1.00  0.00     0.037 A 
ENDBRANCH  38  39
ENDBRANCH  35  38
ENDBRANCH  10  32
BRANCH  11  45
HETATM   45  N   UNL     1      41.183 -14.227   6.347  1.00  0.00    -0.384 N 
HETATM   46  H   UNL     1      41.324 -15.145   6.757  1.00  0.00     0.157 HD
HETATM   47  H   UNL     1      41.057 -13.487   7.031  1.00  0.00     0.157 HD
ENDBRANCH  11  45
TORSDOF 12
ENDMDL
MODEL 9
REMARK VINA RESULT:      -9.3      2.162      2.737
REMARK  12 active torsions:
REMARK  status: ('A' for Active; 'I' for Inactive)
REMARK    1  A    between atoms: C_9  and  S_10 
REMARK    2  A    between atoms: S_10  and  C_11 
REMARK    3  A    between atoms: C_11  and  C_12 
REMARK       I    between atoms: C_12  and  N_13 
REMARK    4  A    between atoms: N_13  and  C_14 
REMARK    5  A    between atoms: C_14  and  C_15 
REMARK    6  A    between atoms: C_15  and  C_16 
REMARK    7  A    between atoms: C_19  and  S_20 
REMARK    8  A    between atoms: S_20  and  N_21 
REMARK    9  A    between atoms: N_27  and  C_28 
REMARK   10  A    between atoms: C_31  and  O_32 
REMARK   11  A    between atoms: O_32  and  C_33 
REMARK   12  A    between atoms: C_41  and  N_42 
ROOT
HETATM    1  C   UNL     1      39.049 -14.031  -2.988  1.00  0.00     0.073 C 
HETATM    2  C   UNL     1      39.221 -13.540  -1.595  1.00  0.00     0.068 A 
HETATM    3  N   UNL     1      38.555 -12.446  -1.205  1.00  0.00    -0.177 NA
HETATM    4  N   UNL     1      38.903 -12.286   0.079  1.00  0.00    -0.260 N 
HETATM    5  H   UNL     1      38.505 -11.513   0.604  1.00  0.00     0.191 HD
HETATM    6  C   UNL     1      39.786 -13.232   0.513  1.00  0.00     0.162 A 
HETATM    7  C   UNL     1      40.022 -14.083  -0.544  1.00  0.00     0.081 A 
HETATM    8  N   UNL     1      40.317 -13.309   1.730  1.00  0.00    -0.204 NA
HETATM    9  C   UNL     1      41.123 -14.385   1.875  1.00  0.00     0.177 A 
HETATM   10  N   UNL     1      41.393 -15.298   0.896  1.00  0.00    -0.276 N 
HETATM   11  C   UNL     1      40.904 -15.163  -0.375  1.00  0.00     0.124 A 
ENDROOT
BRANCH   9  12
HETATM   12  S   UNL     1      41.769 -14.523   3.542  1.00  0.00    -0.082 SA
BRANCH  12  13
HETATM   13  C   UNL     1      40.189 -14.631   4.446  1.00  0.00     0.185 C 
BRANCH  13  14
HETATM   14  C   UNL     1      39.958 -13.431   5.350  1.00  0.00     0.227 C 
HETATM   15  N   UNL     1      40.409 -12.249   4.790  1.00  0.00    -0.360 N 
HETATM   16  H   UNL     1      40.609 -12.228   3.797  1.00  0.00     0.162 HD
HETATM   17  O   UNL     1      39.494 -13.509   6.481  1.00  0.00    -0.273 OA
BRANCH  15  18
HETATM   18  C   UNL     1      40.185 -10.961   5.430  1.00  0.00     0.127 C 
BRANCH  18  19
HETATM   19  C   UNL     1      41.385 -10.544   6.284  1.00  0.00     0.058 C 
BRANCH  19  20
HETATM   20  C   UNL     1      41.082 -10.642   7.758  1.00  0.00    -0.057 A 
HETATM   21  C   UNL     1      39.758 -10.630   8.218  1.00  0.00     0.009 A 
HETATM   22  C   UNL     1      39.485 -10.673   9.587  1.00  0.00     0.025 A 
HETATM   23  C   UNL     1      40.541 -10.733  10.500  1.00  0.00     0.074 A 
HETATM   24  C   UNL     1      41.865 -10.739  10.056  1.00  0.00     0.025 A 
HETATM   25  C   UNL     1      42.132 -10.697   8.688  1.00  0.00     0.009 A 
BRANCH  23  26
HETATM   26  S   UNL     1      40.205 -10.717  12.237  1.00  0.00     0.239 S 
HETATM   27  O   UNL     1      41.438 -10.481  12.952  1.00  0.00    -0.206 OA
HETATM   28  O   UNL     1      39.008  -9.948  12.480  1.00  0.00    -0.206 OA
BRANCH  26  29
HETATM   29  N   UNL     1      39.797 -12.318  12.530  1.00  0.00    -0.225 NA
HETATM   30  H   UNL     1      40.005 -12.555  13.501  1.00  0.00     0.136 HD
HETATM   31  H   UNL     1      38.822 -12.477  12.272  1.00  0.00     0.136 HD
ENDBRANCH  26  29
ENDBRANCH  23  26
ENDBRANCH  19  20
ENDBRANCH  18  19
ENDBRANCH  15  18
ENDBRANCH  13  14
ENDBRANCH  12  13
ENDBRANCH   9  12
BRANCH  10  32
HETATM   32  C   UNL     1      42.161 -16.483   1.203  1.00  0.00     0.043 A 
HETATM   33  C   UNL     1      43.555 -16.379   1.232  1.00  0.00     0.033 A 
HETATM   34  C   UNL     1      44.307 -17.483   1.630  1.00  0.00     0.039 A 
HETATM   35  C   UNL     1      43.681 -18.685   1.985  1.00  0.00     0.076 A 
HETATM   36  C   UNL     1      42.285 -18.779   1.930  1.00  0.00     0.039 A 
HETATM   37  C   UNL     1      41.515 -17.669   1.560  1.00  0.00     0.033 A 
BRANCH  35  38
HETATM   38  O   UNL     1      44.553 -19.681   2.363  1.00  0.00    -0.311 OA
BRANCH  38  39
HETATM   39  C   UNL     1      44.424 -20.256   3.600  1.00  0.00     0.076 A 
HETATM   40  C   UNL     1      44.680 -21.622   3.715  1.00  0.00     0.037 A 
HETATM   41  C   UNL     1      44.639 -22.230   4.969  1.00  0.00     0.003 A 
HETATM   42  C   UNL     1      44.352 -21.469   6.103  1.00  0.00     0.000 A 
HETATM   43  C   UNL     1      44.120 -20.097   5.987  1.00  0.00     0.003 A 
HETATM   44  C   UNL     1      44.172 -19.483   4.736  1.00  0.00     0.037 A 
ENDBRANCH  38  39
ENDBRANCH  35  38
ENDBRANCH  10  32
BRANCH  11  45
HETATM   45  N   UNL     1      41.246 -16.018  -1.417  1.00  0.00    -0.384 N 
HETATM   46  H   UNL     1      41.195 -17.025  -1.305  1.00  0.00     0.157 HD
HETATM   47  H   UNL     1      41.958 -15.714  -2.075  1.00  0.00     0.157 HD
ENDBRANCH  11  45
TORSDOF 12
ENDMDL
MODEL 10
REMARK VINA RESULT:      -9.2      2.291      3.095
REMARK  12 active torsions:
REMARK  status: ('A' for Active; 'I' for Inactive)
REMARK    1  A    between atoms: C_9  and  S_10 
REMARK    2  A    between atoms: S_10  and  C_11 
REMARK    3  A    between atoms: C_11  and  C_12 
REMARK       I    between atoms: C_12  and  N_13 
REMARK    4  A    between atoms: N_13  and  C_14 
REMARK    5  A    between atoms: C_14  and  C_15 
REMARK    6  A    between atoms: C_15  and  C_16 
REMARK    7  A    between atoms: C_19  and  S_20 
REMARK    8  A    between atoms: S_20  and  N_21 
REMARK    9  A    between atoms: N_27  and  C_28 
REMARK   10  A    between atoms: C_31  and  O_32 
REMARK   11  A    between atoms: O_32  and  C_33 
REMARK   12  A    between atoms: C_41  and  N_42 
ROOT
HETATM    1  C   UNL     1      39.562 -14.974  -3.337  1.00  0.00     0.073 C 
HETATM    2  C   UNL     1      39.331 -14.186  -2.097  1.00  0.00     0.068 A 
HETATM    3  N   UNL     1      38.490 -13.146  -2.135  1.00  0.00    -0.177 NA
HETATM    4  N   UNL     1      38.487 -12.675  -0.881  1.00  0.00    -0.260 N 
HETATM    5  H   UNL     1      37.899 -11.878  -0.656  1.00  0.00     0.191 HD
HETATM    6  C   UNL     1      39.316 -13.371  -0.049  1.00  0.00     0.162 A 
HETATM    7  C   UNL     1      39.888 -14.377  -0.795  1.00  0.00     0.081 A 
HETATM    8  N   UNL     1      39.527 -13.118   1.239  1.00  0.00    -0.204 NA
HETATM    9  C   UNL     1      40.367 -14.010   1.811  1.00  0.00     0.177 A 
HETATM   10  N   UNL     1      40.959 -15.055   1.161  1.00  0.00    -0.276 N 
HETATM   11  C   UNL     1      40.796 -15.258  -0.183  1.00  0.00     0.124 A 
ENDROOT
BRANCH   9  12
HETATM   12  S   UNL     1      40.583 -13.704   3.564  1.00  0.00    -0.082 SA
BRANCH  12  13
HETATM   13  C   UNL     1      41.195 -11.988   3.475  1.00  0.00     0.185 C 
BRANCH  13  14
HETATM   14  C   UNL     1      41.476 -11.404   4.851  1.00  0.00     0.227 C 
HETATM   15  N   UNL     1      41.408 -10.022   4.866  1.00  0.00    -0.360 N 
HETATM   16  H   UNL     1      40.961  -9.550   4.089  1.00  0.00     0.162 HD
HETATM   17  O   UNL     1      41.802 -12.076   5.822  1.00  0.00    -0.273 OA
BRANCH  15  18
HETATM   18  C   UNL     1      41.527  -9.261   6.101  1.00  0.00     0.127 C 
BRANCH  18  19
HETATM   19  C   UNL     1      40.230  -9.303   6.912  1.00  0.00     0.058 C 
BRANCH  19  20
HETATM   20  C   UNL     1      40.478  -9.705   8.343  1.00  0.00    -0.057 A 
HETATM   21  C   UNL     1      41.772 -10.022   8.783  1.00  0.00     0.009 A 
HETATM   22  C   UNL     1      41.990 -10.439  10.098  1.00  0.00     0.025 A 
HETATM   23  C   UNL     1      40.909 -10.535  10.979  1.00  0.00     0.074 A 
HETATM   24  C   UNL     1      39.615 -10.229  10.554  1.00  0.00     0.025 A 
HETATM   25  C   UNL     1      39.403  -9.812   9.240  1.00  0.00     0.009 A 
BRANCH  23  26
HETATM   26  S   UNL     1      41.167 -11.131  12.625  1.00  0.00     0.239 S 
HETATM   27  O   UNL     1      42.429 -11.833  12.678  1.00  0.00    -0.206 OA
HETATM   28  O   UNL     1      40.818 -10.093  13.564  1.00  0.00    -0.206 OA
BRANCH  26  29
HETATM   29  N   UNL     1      39.976 -12.305  12.764  1.00  0.00    -0.225 NA
HETATM   30  H   UNL     1      39.057 -11.885  12.617  1.00  0.00     0.136 HD
HETATM   31  H   UNL     1      40.177 -13.075  12.124  1.00  0.00     0.136 HD
ENDBRANCH  26  29
ENDBRANCH  23  26
ENDBRANCH  19  20
ENDBRANCH  18  19
ENDBRANCH  15  18
ENDBRANCH  13  14
ENDBRANCH  12  13
ENDBRANCH   9  12
BRANCH  10  32
HETATM   32  C   UNL     1      41.732 -16.025   1.903  1.00  0.00     0.043 A 
HETATM   33  C   UNL     1      43.124 -15.897   1.909  1.00  0.00     0.033 A 
HETATM   34  C   UNL     1      43.878 -16.758   2.705  1.00  0.00     0.039 A 
HETATM   35  C   UNL     1      43.256 -17.746   3.479  1.00  0.00     0.076 A 
HETATM   36  C   UNL     1      41.862 -17.875   3.444  1.00  0.00     0.039 A 
HETATM   37  C   UNL     1      41.090 -16.998   2.672  1.00  0.00     0.033 A 
BRANCH  35  38
HETATM   38  O   UNL     1      44.130 -18.513   4.216  1.00  0.00    -0.311 OA
BRANCH  38  39
HETATM   39  C   UNL     1      44.333 -19.823   3.869  1.00  0.00     0.076 A 
HETATM   40  C   UNL     1      44.682 -20.719   4.880  1.00  0.00     0.037 A 
HETATM   41  C   UNL     1      44.819 -22.075   4.585  1.00  0.00     0.003 A 
HETATM   42  C   UNL     1      44.599 -22.531   3.285  1.00  0.00     0.000 A 
HETATM   43  C   UNL     1      44.227 -21.635   2.281  1.00  0.00     0.003 A 
HETATM   44  C   UNL     1      44.077 -20.280   2.575  1.00  0.00     0.037 A 
ENDBRANCH  38  39
ENDBRANCH  35  38
ENDBRANCH  10  32
BRANCH  11  45
HETATM   45  N   UNL     1      41.467 -16.249  -0.890  1.00  0.00    -0.384 N 
HETATM   46  H   UNL     1      41.528 -17.197  -0.531  1.00  0.00     0.157 HD
HETATM   47  H   UNL     1      42.257 -15.977  -1.467  1.00  0.00     0.157 HD
ENDBRANCH  11  45
TORSDOF 12
ENDMDL
