MODEL 1
REMARK VINA RESULT:      -9.5      0.000      0.000
REMARK  8 active torsions:
REMARK  status: ('A' for Active; 'I' for Inactive)
REMARK    1  A    between atoms: C_3  and  S_4 
REMARK    2  A    between atoms: S_4  and  N_5 
REMARK    3  A    between atoms: N_5  and  C_6 
REMARK    4  A    between atoms: C_6  and  C_7 
REMARK    5  A    between atoms: C_20  and  C_21 
REMARK    6  A    between atoms: C_25  and  N_26 
REMARK    7  A    between atoms: N_26  and  C_27 
REMARK    8  A    between atoms: C_27  and  C_28 
ROOT
HETATM    1  C   UNL     1      45.311 -21.433   4.763  1.00  0.00     0.050 C 
HETATM    2  C   UNL     1      44.504 -20.349   4.103  1.00  0.00    -0.039 A 
HETATM    3  C   UNL     1      43.869 -19.305   4.794  1.00  0.00     0.081 A 
HETATM    4  C   UNL     1      43.091 -18.359   4.096  1.00  0.00     0.039 A 
HETATM    5  C   UNL     1      42.987 -18.375   2.695  1.00  0.00    -0.003 A 
HETATM    6  C   UNL     1      43.655 -19.403   2.014  1.00  0.00     0.014 A 
HETATM    7  C   UNL     1      44.377 -20.383   2.704  1.00  0.00     0.009 A 
ENDROOT
BRANCH   5   8
HETATM    8  C   UNL     1      42.297 -17.282   1.980  1.00  0.00     0.098 C 
HETATM    9  N   UNL     1      41.377 -17.736   1.105  1.00  0.00    -0.172 NA
HETATM   10  N   UNL     1      40.593 -16.875   0.485  1.00  0.00    -0.266 N 
HETATM   11  H   UNL     1      39.954 -17.246  -0.213  1.00  0.00     0.190 HD
HETATM   12  C   UNL     1      40.585 -15.552   0.723  1.00  0.00     0.108 C 
HETATM   13  C   UNL     1      41.619 -15.022   1.546  1.00  0.00     0.016 A 
HETATM   14  C   UNL     1      42.506 -15.911   2.191  1.00  0.00     0.009 A 
HETATM   15  C   UNL     1      41.805 -13.630   1.744  1.00  0.00     0.016 A 
HETATM   16  C   UNL     1      43.549 -15.377   2.990  1.00  0.00     0.015 A 
HETATM   17  C   UNL     1      43.703 -14.003   3.171  1.00  0.00     0.001 A 
HETATM   18  C   UNL     1      42.828 -13.129   2.550  1.00  0.00     0.001 A 
BRANCH  12  19
HETATM   19  N   UNL     1      39.654 -14.705   0.107  1.00  0.00    -0.273 NA
HETATM   20  H   UNL     1      38.702 -14.966   0.371  1.00  0.00     0.129 HD
BRANCH  19  21
HETATM   21  C   UNL     1      39.700 -14.372  -1.318  1.00  0.00     0.132 C 
BRANCH  21  22
HETATM   22  C   UNL     1      40.695 -13.276  -1.600  1.00  0.00    -0.045 A 
HETATM   23  C   UNL     1      40.412 -11.947  -1.248  1.00  0.00     0.008 A 
HETATM   24  C   UNL     1      41.340 -10.937  -1.501  1.00  0.00     0.001 A 
HETATM   25  C   UNL     1      42.567 -11.242  -2.089  1.00  0.00     0.000 A 
HETATM   26  C   UNL     1      42.870 -12.560  -2.420  1.00  0.00     0.001 A 
HETATM   27  C   UNL     1      41.944 -13.572  -2.173  1.00  0.00     0.008 A 
ENDBRANCH  21  22
ENDBRANCH  19  21
ENDBRANCH  12  19
ENDBRANCH   5   8
BRANCH   3  28
HETATM   28  S   UNL     1      44.012 -19.064   6.567  1.00  0.00     0.242 S 
HETATM   29  O   UNL     1      43.608 -20.298   7.207  1.00  0.00    -0.206 OA
HETATM   30  O   UNL     1      45.276 -18.435   6.861  1.00  0.00    -0.206 OA
BRANCH  28  31
HETATM   31  N   UNL     1      42.800 -17.905   6.840  1.00  0.00    -0.208 NA
HETATM   32  H   UNL     1      42.120 -18.249   7.521  1.00  0.00     0.140 HD
BRANCH  31  33
HETATM   33  C   UNL     1      43.305 -16.566   7.184  1.00  0.00     0.182 C 
BRANCH  33  34
HETATM   34  C   UNL     1      42.453 -15.538   6.525  1.00  0.00     0.119 A 
HETATM   35  N   UNL     1      41.357 -15.754   5.820  1.00  0.00    -0.232 NA
HETATM   36  C   UNL     1      40.892 -14.504   5.479  1.00  0.00     0.085 A 
HETATM   37  C   UNL     1      41.736 -13.510   5.962  1.00  0.00     0.062 A 
HETATM   38  C   UNL     1      39.745 -14.135   4.760  1.00  0.00     0.034 A 
HETATM   39  N   UNL     1      42.730 -14.195   6.611  1.00  0.00    -0.342 N 
HETATM   40  C   UNL     1      41.508 -12.147   5.767  1.00  0.00     0.032 A 
HETATM   41  H   UNL     1      43.528 -13.786   7.080  1.00  0.00     0.167 HD
HETATM   42  C   UNL     1      40.357 -11.799   5.051  1.00  0.00     0.002 A 
HETATM   43  C   UNL     1      39.487 -12.774   4.556  1.00  0.00     0.002 A 
ENDBRANCH  33  34
ENDBRANCH  31  33
ENDBRANCH  28  31
ENDBRANCH   3  28
TORSDOF 8
ENDMDL
MODEL 2
REMARK VINA RESULT:      -9.3      4.673      8.116
REMARK  8 active torsions:
REMARK  status: ('A' for Active; 'I' for Inactive)
REMARK    1  A    between atoms: C_3  and  S_4 
REMARK    2  A    between atoms: S_4  and  N_5 
REMARK    3  A    between atoms: N_5  and  C_6 
REMARK    4  A    between atoms: C_6  and  C_7 
REMARK    5  A    between atoms: C_20  and  C_21 
REMARK    6  A    between atoms: C_25  and  N_26 
REMARK    7  A    between atoms: N_26  and  C_27 
REMARK    8  A    between atoms: C_27  and  C_28 
ROOT
HETATM    1  C   UNL     1      38.886  -9.154   5.602  1.00  0.00     0.050 C 
HETATM    2  C   UNL     1      39.625 -10.403   5.211  1.00  0.00    -0.039 A 
HETATM    3  C   UNL     1      40.682 -10.960   5.949  1.00  0.00     0.081 A 
HETATM    4  C   UNL     1      41.350 -12.109   5.480  1.00  0.00     0.039 A 
HETATM    5  C   UNL     1      40.940 -12.780   4.316  1.00  0.00    -0.003 A 
HETATM    6  C   UNL     1      39.861 -12.234   3.606  1.00  0.00     0.014 A 
HETATM    7  C   UNL     1      39.233 -11.057   4.031  1.00  0.00     0.009 A 
ENDROOT
BRANCH   5   8
HETATM    8  C   UNL     1      41.556 -14.068   3.934  1.00  0.00     0.098 C 
HETATM    9  N   UNL     1      42.298 -13.975   2.812  1.00  0.00    -0.172 NA
HETATM   10  N   UNL     1      43.010 -15.013   2.419  1.00  0.00    -0.266 N 
HETATM   11  H   UNL     1      43.507 -14.928   1.536  1.00  0.00     0.190 HD
HETATM   12  C   UNL     1      43.120 -16.160   3.110  1.00  0.00     0.108 C 
HETATM   13  C   UNL     1      42.261 -16.341   4.231  1.00  0.00     0.016 A 
HETATM   14  C   UNL     1      41.451 -15.266   4.655  1.00  0.00     0.009 A 
HETATM   15  C   UNL     1      42.178 -17.564   4.944  1.00  0.00     0.016 A 
HETATM   16  C   UNL     1      40.579 -15.460   5.758  1.00  0.00     0.015 A 
HETATM   17  C   UNL     1      40.524 -16.672   6.443  1.00  0.00     0.001 A 
HETATM   18  C   UNL     1      41.326 -17.725   6.038  1.00  0.00     0.001 A 
BRANCH  12  19
HETATM   19  N   UNL     1      43.977 -17.186   2.690  1.00  0.00    -0.273 NA
HETATM   20  H   UNL     1      44.864 -16.799   2.360  1.00  0.00     0.129 HD
BRANCH  19  21
HETATM   21  C   UNL     1      43.549 -18.271   1.806  1.00  0.00     0.132 C 
BRANCH  21  22
HETATM   22  C   UNL     1      43.900 -19.622   2.376  1.00  0.00    -0.045 A 
HETATM   23  C   UNL     1      43.664 -20.791   1.637  1.00  0.00     0.008 A 
HETATM   24  C   UNL     1      44.000 -22.039   2.163  1.00  0.00     0.001 A 
HETATM   25  C   UNL     1      44.592 -22.133   3.422  1.00  0.00     0.000 A 
HETATM   26  C   UNL     1      44.855 -20.979   4.155  1.00  0.00     0.001 A 
HETATM   27  C   UNL     1      44.516 -19.730   3.634  1.00  0.00     0.008 A 
ENDBRANCH  21  22
ENDBRANCH  19  21
ENDBRANCH  12  19
ENDBRANCH   5   8
BRANCH   3  28
HETATM   28  S   UNL     1      41.240 -10.303   7.524  1.00  0.00     0.242 S 
HETATM   29  O   UNL     1      42.071  -9.151   7.244  1.00  0.00    -0.206 OA
HETATM   30  O   UNL     1      40.121 -10.229   8.432  1.00  0.00    -0.206 OA
BRANCH  28  31
HETATM   31  N   UNL     1      42.244 -11.561   8.067  1.00  0.00    -0.208 NA
HETATM   32  H   UNL     1      42.432 -12.222   7.310  1.00  0.00     0.140 HD
BRANCH  31  33
HETATM   33  C   UNL     1      43.477 -11.110   8.733  1.00  0.00     0.182 C 
BRANCH  33  34
HETATM   34  C   UNL     1      43.188 -10.850  10.171  1.00  0.00     0.119 A 
HETATM   35  N   UNL     1      43.915 -10.129  11.005  1.00  0.00    -0.232 NA
HETATM   36  C   UNL     1      43.214 -10.125  12.189  1.00  0.00     0.085 A 
HETATM   37  C   UNL     1      42.052 -10.883  12.081  1.00  0.00     0.062 A 
HETATM   38  C   UNL     1      43.503  -9.489  13.405  1.00  0.00     0.034 A 
HETATM   39  N   UNL     1      42.067 -11.346  10.791  1.00  0.00    -0.342 N 
HETATM   40  C   UNL     1      41.146 -11.053  13.129  1.00  0.00     0.032 A 
HETATM   41  H   UNL     1      41.371 -11.942  10.363  1.00  0.00     0.167 HD
HETATM   42  C   UNL     1      41.450 -10.408  14.333  1.00  0.00     0.002 A 
HETATM   43  C   UNL     1      42.607  -9.637  14.472  1.00  0.00     0.002 A 
ENDBRANCH  33  34
ENDBRANCH  31  33
ENDBRANCH  28  31
ENDBRANCH   3  28
TORSDOF 8
ENDMDL
MODEL 3
REMARK VINA RESULT:      -8.9      4.099      7.722
REMARK  8 active torsions:
REMARK  status: ('A' for Active; 'I' for Inactive)
REMARK    1  A    between atoms: C_3  and  S_4 
REMARK    2  A    between atoms: S_4  and  N_5 
REMARK    3  A    between atoms: N_5  and  C_6 
REMARK    4  A    between atoms: C_6  and  C_7 
REMARK    5  A    between atoms: C_20  and  C_21 
REMARK    6  A    between atoms: C_25  and  N_26 
REMARK    7  A    between atoms: N_26  and  C_27 
REMARK    8  A    between atoms: C_27  and  C_28 
ROOT
HETATM    1  C   UNL     1      38.201 -11.444   1.771  1.00  0.00     0.050 C 
HETATM    2  C   UNL     1      39.056 -12.429   2.519  1.00  0.00    -0.039 A 
HETATM    3  C   UNL     1      39.727 -12.143   3.718  1.00  0.00     0.081 A 
HETATM    4  C   UNL     1      40.547 -13.116   4.325  1.00  0.00     0.039 A 
HETATM    5  C   UNL     1      40.661 -14.416   3.806  1.00  0.00    -0.003 A 
HETATM    6  C   UNL     1      39.959 -14.700   2.626  1.00  0.00     0.014 A 
HETATM    7  C   UNL     1      39.193 -13.721   1.983  1.00  0.00     0.009 A 
ENDROOT
BRANCH   5   8
HETATM    8  C   UNL     1      41.401 -15.459   4.547  1.00  0.00     0.098 C 
HETATM    9  N   UNL     1      40.922 -16.698   4.313  1.00  0.00    -0.172 NA
HETATM   10  N   UNL     1      41.560 -17.742   4.806  1.00  0.00    -0.266 N 
HETATM   11  H   UNL     1      41.137 -18.655   4.662  1.00  0.00     0.190 HD
HETATM   12  C   UNL     1      42.724 -17.671   5.474  1.00  0.00     0.108 C 
HETATM   13  C   UNL     1      43.196 -16.380   5.845  1.00  0.00     0.016 A 
HETATM   14  C   UNL     1      42.513 -15.238   5.372  1.00  0.00     0.009 A 
HETATM   15  C   UNL     1      44.326 -16.186   6.678  1.00  0.00     0.016 A 
HETATM   16  C   UNL     1      42.973 -13.954   5.765  1.00  0.00     0.015 A 
HETATM   17  C   UNL     1      44.092 -13.796   6.581  1.00  0.00     0.001 A 
HETATM   18  C   UNL     1      44.771 -14.912   7.036  1.00  0.00     0.001 A 
BRANCH  12  19
HETATM   19  N   UNL     1      43.404 -18.826   5.880  1.00  0.00    -0.273 NA
HETATM   20  H   UNL     1      43.484 -18.857   6.898  1.00  0.00     0.129 HD
BRANCH  19  21
HETATM   21  C   UNL     1      44.660 -19.269   5.270  1.00  0.00     0.132 C 
BRANCH  21  22
HETATM   22  C   UNL     1      44.414 -20.187   4.099  1.00  0.00    -0.045 A 
HETATM   23  C   UNL     1      43.862 -19.692   2.908  1.00  0.00     0.008 A 
HETATM   24  C   UNL     1      43.646 -20.542   1.823  1.00  0.00     0.001 A 
HETATM   25  C   UNL     1      43.995 -21.889   1.908  1.00  0.00     0.000 A 
HETATM   26  C   UNL     1      44.567 -22.388   3.075  1.00  0.00     0.001 A 
HETATM   27  C   UNL     1      44.781 -21.542   4.164  1.00  0.00     0.008 A 
ENDBRANCH  21  22
ENDBRANCH  19  21
ENDBRANCH  12  19
ENDBRANCH   5   8
BRANCH   3  28
HETATM   28  S   UNL     1      39.580 -10.576   4.582  1.00  0.00     0.242 S 
HETATM   29  O   UNL     1      40.135  -9.553   3.723  1.00  0.00    -0.206 OA
HETATM   30  O   UNL     1      38.254 -10.462   5.138  1.00  0.00    -0.206 OA
BRANCH  28  31
HETATM   31  N   UNL     1      40.649 -10.815   5.880  1.00  0.00    -0.208 NA
HETATM   32  H   UNL     1      41.419 -10.143   5.840  1.00  0.00     0.140 HD
BRANCH  31  33
HETATM   33  C   UNL     1      40.004 -10.845   7.203  1.00  0.00     0.182 C 
BRANCH  33  34
HETATM   34  C   UNL     1      41.042 -10.675   8.257  1.00  0.00     0.119 A 
HETATM   35  N   UNL     1      40.897 -10.059   9.416  1.00  0.00    -0.232 NA
HETATM   36  C   UNL     1      42.099 -10.221  10.067  1.00  0.00     0.085 A 
HETATM   37  C   UNL     1      43.001 -10.925   9.276  1.00  0.00     0.062 A 
HETATM   38  C   UNL     1      42.496  -9.800  11.344  1.00  0.00     0.034 A 
HETATM   39  N   UNL     1      42.309 -11.189   8.123  1.00  0.00    -0.342 N 
HETATM   40  C   UNL     1      44.299 -11.238   9.684  1.00  0.00     0.032 A 
HETATM   41  H   UNL     1      42.663 -11.684   7.315  1.00  0.00     0.167 HD
HETATM   42  C   UNL     1      44.675 -10.812  10.963  1.00  0.00     0.002 A 
HETATM   43  C   UNL     1      43.790 -10.105  11.782  1.00  0.00     0.002 A 
ENDBRANCH  33  34
ENDBRANCH  31  33
ENDBRANCH  28  31
ENDBRANCH   3  28
TORSDOF 8
ENDMDL
MODEL 4
REMARK VINA RESULT:      -8.9      1.706      2.653
REMARK  8 active torsions:
REMARK  status: ('A' for Active; 'I' for Inactive)
REMARK    1  A    between atoms: C_3  and  S_4 
REMARK    2  A    between atoms: S_4  and  N_5 
REMARK    3  A    between atoms: N_5  and  C_6 
REMARK    4  A    between atoms: C_6  and  C_7 
REMARK    5  A    between atoms: C_20  and  C_21 
REMARK    6  A    between atoms: C_25  and  N_26 
REMARK    7  A    between atoms: N_26  and  C_27 
REMARK    8  A    between atoms: C_27  and  C_28 
ROOT
HETATM    1  C   UNL     1      44.558 -20.221   2.762  1.00  0.00     0.050 C 
HETATM    2  C   UNL     1      43.928 -18.858   2.697  1.00  0.00    -0.039 A 
HETATM    3  C   UNL     1      43.666 -18.054   3.818  1.00  0.00     0.081 A 
HETATM    4  C   UNL     1      43.027 -16.807   3.666  1.00  0.00     0.039 A 
HETATM    5  C   UNL     1      42.704 -16.290   2.400  1.00  0.00    -0.003 A 
HETATM    6  C   UNL     1      43.002 -17.087   1.286  1.00  0.00     0.014 A 
HETATM    7  C   UNL     1      43.578 -18.355   1.433  1.00  0.00     0.009 A 
ENDROOT
BRANCH   5   8
HETATM    8  C   UNL     1      42.179 -14.915   2.261  1.00  0.00     0.098 C 
HETATM    9  N   UNL     1      43.136 -13.978   2.414  1.00  0.00    -0.172 NA
HETATM   10  N   UNL     1      42.843 -12.712   2.192  1.00  0.00    -0.266 N 
HETATM   11  H   UNL     1      43.570 -12.027   2.377  1.00  0.00     0.190 HD
HETATM   12  C   UNL     1      41.654 -12.279   1.737  1.00  0.00     0.108 C 
HETATM   13  C   UNL     1      40.586 -13.219   1.680  1.00  0.00     0.016 A 
HETATM   14  C   UNL     1      40.853 -14.577   1.954  1.00  0.00     0.009 A 
HETATM   15  C   UNL     1      39.254 -12.849   1.364  1.00  0.00     0.016 A 
HETATM   16  C   UNL     1      39.780 -15.506   1.920  1.00  0.00     0.015 A 
HETATM   17  C   UNL     1      38.482 -15.113   1.599  1.00  0.00     0.001 A 
HETATM   18  C   UNL     1      38.219 -13.783   1.318  1.00  0.00     0.001 A 
BRANCH  12  19
HETATM   19  N   UNL     1      41.441 -10.931   1.422  1.00  0.00    -0.273 NA
HETATM   20  H   UNL     1      40.447 -10.701   1.482  1.00  0.00     0.129 HD
BRANCH  19  21
HETATM   21  C   UNL     1      42.029 -10.284   0.248  1.00  0.00     0.132 C 
BRANCH  21  22
HETATM   22  C   UNL     1      41.861 -11.125  -0.992  1.00  0.00    -0.045 A 
HETATM   23  C   UNL     1      42.942 -11.853  -1.511  1.00  0.00     0.008 A 
HETATM   24  C   UNL     1      42.780 -12.639  -2.653  1.00  0.00     0.001 A 
HETATM   25  C   UNL     1      41.537 -12.722  -3.277  1.00  0.00     0.000 A 
HETATM   26  C   UNL     1      40.450 -12.024  -2.757  1.00  0.00     0.001 A 
HETATM   27  C   UNL     1      40.608 -11.234  -1.619  1.00  0.00     0.008 A 
ENDBRANCH  21  22
ENDBRANCH  19  21
ENDBRANCH  12  19
ENDBRANCH   5   8
BRANCH   3  28
HETATM   28  S   UNL     1      44.138 -18.508   5.490  1.00  0.00     0.242 S 
HETATM   29  O   UNL     1      43.155 -19.452   5.977  1.00  0.00    -0.206 OA
HETATM   30  O   UNL     1      45.550 -18.797   5.524  1.00  0.00    -0.206 OA
BRANCH  28  31
HETATM   31  N   UNL     1      43.907 -17.036   6.306  1.00  0.00    -0.208 NA
HETATM   32  H   UNL     1      44.109 -16.247   5.688  1.00  0.00     0.140 HD
BRANCH  31  33
HETATM   33  C   UNL     1      42.598 -16.905   6.968  1.00  0.00     0.182 C 
BRANCH  33  34
HETATM   34  C   UNL     1      41.896 -15.708   6.428  1.00  0.00     0.119 A 
HETATM   35  N   UNL     1      40.625 -15.629   6.079  1.00  0.00    -0.232 NA
HETATM   36  C   UNL     1      40.431 -14.317   5.709  1.00  0.00     0.085 A 
HETATM   37  C   UNL     1      41.613 -13.592   5.810  1.00  0.00     0.062 A 
HETATM   38  C   UNL     1      39.265 -13.665   5.281  1.00  0.00     0.034 A 
HETATM   39  N   UNL     1      42.534 -14.504   6.254  1.00  0.00    -0.342 N 
HETATM   40  C   UNL     1      41.710 -12.234   5.500  1.00  0.00     0.032 A 
HETATM   41  H   UNL     1      43.514 -14.324   6.434  1.00  0.00     0.167 HD
HETATM   42  C   UNL     1      40.536 -11.601   5.078  1.00  0.00     0.002 A 
HETATM   43  C   UNL     1      39.331 -12.302   4.971  1.00  0.00     0.002 A 
ENDBRANCH  33  34
ENDBRANCH  31  33
ENDBRANCH  28  31
ENDBRANCH   3  28
TORSDOF 8
ENDMDL
MODEL 5
REMARK VINA RESULT:      -8.8      4.429      9.723
REMARK  8 active torsions:
REMARK  status: ('A' for Active; 'I' for Inactive)
REMARK    1  A    between atoms: C_3  and  S_4 
REMARK    2  A    between atoms: S_4  and  N_5 
REMARK    3  A    between atoms: N_5  and  C_6 
REMARK    4  A    between atoms: C_6  and  C_7 
REMARK    5  A    between atoms: C_20  and  C_21 
REMARK    6  A    between atoms: C_25  and  N_26 
REMARK    7  A    between atoms: N_26  and  C_27 
REMARK    8  A    between atoms: C_27  and  C_28 
ROOT
HETATM    1  C   UNL     1      40.896 -13.708   1.764  1.00  0.00     0.050 C 
HETATM    2  C   UNL     1      40.670 -13.213   3.165  1.00  0.00    -0.039 A 
HETATM    3  C   UNL     1      41.510 -13.504   4.252  1.00  0.00     0.081 A 
HETATM    4  C   UNL     1      41.192 -13.035   5.542  1.00  0.00     0.039 A 
HETATM    5  C   UNL     1      40.084 -12.205   5.777  1.00  0.00    -0.003 A 
HETATM    6  C   UNL     1      39.272 -11.893   4.677  1.00  0.00     0.014 A 
HETATM    7  C   UNL     1      39.544 -12.406   3.404  1.00  0.00     0.009 A 
ENDROOT
BRANCH   5   8
HETATM    8  C   UNL     1      39.865 -11.601   7.108  1.00  0.00     0.098 C 
HETATM    9  N   UNL     1      39.211 -12.427   7.949  1.00  0.00    -0.172 NA
HETATM   10  N   UNL     1      39.055 -12.074   9.211  1.00  0.00    -0.266 N 
HETATM   11  H   UNL     1      38.503 -12.691   9.801  1.00  0.00     0.190 HD
HETATM   12  C   UNL     1      39.579 -10.963   9.756  1.00  0.00     0.108 C 
HETATM   13  C   UNL     1      40.169 -10.011   8.877  1.00  0.00     0.016 A 
HETATM   14  C   UNL     1      40.313 -10.335   7.511  1.00  0.00     0.009 A 
HETATM   15  C   UNL     1      40.617  -8.738   9.314  1.00  0.00     0.016 A 
HETATM   16  C   UNL     1      40.880  -9.372   6.636  1.00  0.00     0.015 A 
HETATM   17  C   UNL     1      41.317  -8.132   7.096  1.00  0.00     0.001 A 
HETATM   18  C   UNL     1      41.188  -7.815   8.437  1.00  0.00     0.001 A 
BRANCH  12  19
HETATM   19  N   UNL     1      39.464 -10.699  11.127  1.00  0.00    -0.273 NA
HETATM   20  H   UNL     1      39.594  -9.703  11.313  1.00  0.00     0.129 HD
BRANCH  19  21
HETATM   21  C   UNL     1      40.152 -11.489  12.151  1.00  0.00     0.132 C 
BRANCH  21  22
HETATM   22  C   UNL     1      41.330 -10.745  12.726  1.00  0.00    -0.045 A 
HETATM   23  C   UNL     1      41.298 -10.270  14.046  1.00  0.00     0.008 A 
HETATM   24  C   UNL     1      42.394  -9.591  14.579  1.00  0.00     0.001 A 
HETATM   25  C   UNL     1      43.539  -9.394  13.809  1.00  0.00     0.000 A 
HETATM   26  C   UNL     1      43.593  -9.882  12.506  1.00  0.00     0.001 A 
HETATM   27  C   UNL     1      42.498 -10.557  11.968  1.00  0.00     0.008 A 
ENDBRANCH  21  22
ENDBRANCH  19  21
ENDBRANCH  12  19
ENDBRANCH   5   8
BRANCH   3  28
HETATM   28  S   UNL     1      43.036 -14.438   4.097  1.00  0.00     0.242 S 
HETATM   29  O   UNL     1      43.809 -13.834   3.034  1.00  0.00    -0.206 OA
HETATM   30  O   UNL     1      43.592 -14.660   5.410  1.00  0.00    -0.206 OA
BRANCH  28  31
HETATM   31  N   UNL     1      42.450 -15.933   3.543  1.00  0.00    -0.208 NA
HETATM   32  H   UNL     1      41.455 -15.867   3.316  1.00  0.00     0.140 HD
BRANCH  31  33
HETATM   33  C   UNL     1      43.234 -16.525   2.446  1.00  0.00     0.182 C 
BRANCH  33  34
HETATM   34  C   UNL     1      43.662 -17.896   2.837  1.00  0.00     0.119 A 
HETATM   35  N   UNL     1      44.030 -18.296   4.040  1.00  0.00    -0.232 NA
HETATM   36  C   UNL     1      44.267 -19.647   3.918  1.00  0.00     0.085 A 
HETATM   37  C   UNL     1      44.065 -20.070   2.609  1.00  0.00     0.062 A 
HETATM   38  C   UNL     1      44.651 -20.585   4.887  1.00  0.00     0.034 A 
HETATM   39  N   UNL     1      43.696 -18.935   1.937  1.00  0.00    -0.342 N 
HETATM   40  C   UNL     1      44.230 -21.394   2.196  1.00  0.00     0.032 A 
HETATM   41  H   UNL     1      43.477 -18.869   0.952  1.00  0.00     0.167 HD
HETATM   42  C   UNL     1      44.611 -22.315   3.178  1.00  0.00     0.002 A 
HETATM   43  C   UNL     1      44.818 -21.921   4.503  1.00  0.00     0.002 A 
ENDBRANCH  33  34
ENDBRANCH  31  33
ENDBRANCH  28  31
ENDBRANCH   3  28
TORSDOF 8
ENDMDL
MODEL 6
REMARK VINA RESULT:      -8.7      4.975      8.385
REMARK  8 active torsions:
REMARK  status: ('A' for Active; 'I' for Inactive)
REMARK    1  A    between atoms: C_3  and  S_4 
REMARK    2  A    between atoms: S_4  and  N_5 
REMARK    3  A    between atoms: N_5  and  C_6 
REMARK    4  A    between atoms: C_6  and  C_7 
REMARK    5  A    between atoms: C_20  and  C_21 
REMARK    6  A    between atoms: C_25  and  N_26 
REMARK    7  A    between atoms: N_26  and  C_27 
REMARK    8  A    between atoms: C_27  and  C_28 
ROOT
HETATM    1  C   UNL     1      38.290  -8.916   4.751  1.00  0.00     0.050 C 
HETATM    2  C   UNL     1      38.989 -10.246   4.803  1.00  0.00    -0.039 A 
HETATM    3  C   UNL     1      39.670 -10.737   5.929  1.00  0.00     0.081 A 
HETATM    4  C   UNL     1      40.340 -11.976   5.871  1.00  0.00     0.039 A 
HETATM    5  C   UNL     1      40.288 -12.793   4.730  1.00  0.00    -0.003 A 
HETATM    6  C   UNL     1      39.576 -12.307   3.624  1.00  0.00     0.014 A 
HETATM    7  C   UNL     1      38.962 -11.049   3.651  1.00  0.00     0.009 A 
ENDROOT
BRANCH   5   8
HETATM    8  C   UNL     1      40.866 -14.153   4.752  1.00  0.00     0.098 C 
HETATM    9  N   UNL     1      40.120 -15.043   4.066  1.00  0.00    -0.172 NA
HETATM   10  N   UNL     1      40.575 -16.269   3.891  1.00  0.00    -0.266 N 
HETATM   11  H   UNL     1      39.960 -16.930   3.424  1.00  0.00     0.190 HD
HETATM   12  C   UNL     1      41.789 -16.689   4.286  1.00  0.00     0.108 C 
HETATM   13  C   UNL     1      42.552 -15.820   5.116  1.00  0.00     0.016 A 
HETATM   14  C   UNL     1      42.076 -14.514   5.362  1.00  0.00     0.009 A 
HETATM   15  C   UNL     1      43.776 -16.210   5.717  1.00  0.00     0.016 A 
HETATM   16  C   UNL     1      42.828 -13.659   6.209  1.00  0.00     0.015 A 
HETATM   17  C   UNL     1      44.031 -14.070   6.781  1.00  0.00     0.001 A 
HETATM   18  C   UNL     1      44.507 -15.346   6.532  1.00  0.00     0.001 A 
BRANCH  12  19
HETATM   19  N   UNL     1      42.253 -17.974   3.977  1.00  0.00    -0.273 NA
HETATM   20  H   UNL     1      42.549 -18.463   4.824  1.00  0.00     0.129 HD
BRANCH  19  21
HETATM   21  C   UNL     1      43.200 -18.241   2.893  1.00  0.00     0.132 C 
BRANCH  21  22
HETATM   22  C   UNL     1      43.683 -19.669   2.918  1.00  0.00    -0.045 A 
HETATM   23  C   UNL     1      43.458 -20.517   1.822  1.00  0.00     0.008 A 
HETATM   24  C   UNL     1      43.916 -21.835   1.844  1.00  0.00     0.001 A 
HETATM   25  C   UNL     1      44.617 -22.316   2.949  1.00  0.00     0.000 A 
HETATM   26  C   UNL     1      44.868 -21.477   4.032  1.00  0.00     0.001 A 
HETATM   27  C   UNL     1      44.409 -20.161   4.016  1.00  0.00     0.008 A 
ENDBRANCH  21  22
ENDBRANCH  19  21
ENDBRANCH  12  19
ENDBRANCH   5   8
BRANCH   3  28
HETATM   28  S   UNL     1      39.718  -9.880   7.506  1.00  0.00     0.242 S 
HETATM   29  O   UNL     1      40.626  -8.762   7.364  1.00  0.00    -0.206 OA
HETATM   30  O   UNL     1      38.372  -9.707   7.994  1.00  0.00    -0.206 OA
BRANCH  28  31
HETATM   31  N   UNL     1      40.462 -11.046   8.491  1.00  0.00    -0.208 NA
HETATM   32  H   UNL     1      41.434 -10.790   8.679  1.00  0.00     0.140 HD
BRANCH  31  33
HETATM   33  C   UNL     1      39.721 -11.365   9.723  1.00  0.00     0.182 C 
BRANCH  33  34
HETATM   34  C   UNL     1      40.476 -10.844  10.895  1.00  0.00     0.119 A 
HETATM   35  N   UNL     1      40.029 -10.721  12.132  1.00  0.00    -0.232 NA
HETATM   36  C   UNL     1      41.101 -10.264  12.863  1.00  0.00     0.085 A 
HETATM   37  C   UNL     1      42.215 -10.080  12.050  1.00  0.00     0.062 A 
HETATM   38  C   UNL     1      41.205  -9.988  14.234  1.00  0.00     0.034 A 
HETATM   39  N   UNL     1      41.787 -10.441  10.800  1.00  0.00    -0.342 N 
HETATM   40  C   UNL     1      43.446  -9.625  12.526  1.00  0.00     0.032 A 
HETATM   41  H   UNL     1      42.338 -10.424   9.952  1.00  0.00     0.167 HD
HETATM   42  C   UNL     1      43.531  -9.359  13.897  1.00  0.00     0.002 A 
HETATM   43  C   UNL     1      42.430  -9.537  14.740  1.00  0.00     0.002 A 
ENDBRANCH  33  34
ENDBRANCH  31  33
ENDBRANCH  28  31
ENDBRANCH   3  28
TORSDOF 8
ENDMDL
MODEL 7
REMARK VINA RESULT:      -8.6      4.618      8.292
REMARK  8 active torsions:
REMARK  status: ('A' for Active; 'I' for Inactive)
REMARK    1  A    between atoms: C_3  and  S_4 
REMARK    2  A    between atoms: S_4  and  N_5 
REMARK    3  A    between atoms: N_5  and  C_6 
REMARK    4  A    between atoms: C_6  and  C_7 
REMARK    5  A    between atoms: C_20  and  C_21 
REMARK    6  A    between atoms: C_25  and  N_26 
REMARK    7  A    between atoms: N_26  and  C_27 
REMARK    8  A    between atoms: C_27  and  C_28 
ROOT
HETATM    1  C   UNL     1      39.766  -8.840   3.788  1.00  0.00     0.050 C 
HETATM    2  C   UNL     1      40.365 -10.210   3.945  1.00  0.00    -0.039 A 
HETATM    3  C   UNL     1      40.606 -10.829   5.182  1.00  0.00     0.081 A 
HETATM    4  C   UNL     1      41.218 -12.098   5.235  1.00  0.00     0.039 A 
HETATM    5  C   UNL     1      41.532 -12.818   4.070  1.00  0.00    -0.003 A 
HETATM    6  C   UNL     1      41.254 -12.203   2.841  1.00  0.00     0.014 A 
HETATM    7  C   UNL     1      40.706 -10.916   2.780  1.00  0.00     0.009 A 
ENDROOT
BRANCH   5   8
HETATM    8  C   UNL     1      42.026 -14.208   4.156  1.00  0.00     0.098 C 
HETATM    9  N   UNL     1      42.796 -14.418   5.242  1.00  0.00    -0.172 NA
HETATM   10  N   UNL     1      43.205 -15.641   5.519  1.00  0.00    -0.266 N 
HETATM   11  H   UNL     1      43.834 -15.753   6.309  1.00  0.00     0.190 HD
HETATM   12  C   UNL     1      42.839 -16.736   4.829  1.00  0.00     0.108 C 
HETATM   13  C   UNL     1      42.129 -16.542   3.610  1.00  0.00     0.016 A 
HETATM   14  C   UNL     1      41.713 -15.240   3.258  1.00  0.00     0.009 A 
HETATM   15  C   UNL     1      41.823 -17.605   2.723  1.00  0.00     0.016 A 
HETATM   16  C   UNL     1      41.027 -15.049   2.031  1.00  0.00     0.015 A 
HETATM   17  C   UNL     1      40.735 -16.115   1.182  1.00  0.00     0.001 A 
HETATM   18  C   UNL     1      41.131 -17.395   1.530  1.00  0.00     0.001 A 
BRANCH  12  19
HETATM   19  N   UNL     1      43.224 -18.019   5.239  1.00  0.00    -0.273 NA
HETATM   20  H   UNL     1      42.918 -18.196   6.197  1.00  0.00     0.129 HD
BRANCH  19  21
HETATM   21  C   UNL     1      44.575 -18.546   5.043  1.00  0.00     0.132 C 
BRANCH  21  22
HETATM   22  C   UNL     1      44.553 -19.881   4.342  1.00  0.00    -0.045 A 
HETATM   23  C   UNL     1      44.815 -21.063   5.051  1.00  0.00     0.008 A 
HETATM   24  C   UNL     1      44.784 -22.298   4.402  1.00  0.00     0.001 A 
HETATM   25  C   UNL     1      44.473 -22.368   3.045  1.00  0.00     0.000 A 
HETATM   26  C   UNL     1      44.186 -21.205   2.335  1.00  0.00     0.001 A 
HETATM   27  C   UNL     1      44.221 -19.969   2.980  1.00  0.00     0.008 A 
ENDBRANCH  21  22
ENDBRANCH  19  21
ENDBRANCH  12  19
ENDBRANCH   5   8
BRANCH   3  28
HETATM   28  S   UNL     1      40.142 -10.104   6.757  1.00  0.00     0.242 S 
HETATM   29  O   UNL     1      41.114  -9.077   7.066  1.00  0.00    -0.206 OA
HETATM   30  O   UNL     1      38.725  -9.832   6.756  1.00  0.00    -0.206 OA
BRANCH  28  31
HETATM   31  N   UNL     1      40.401 -11.412   7.810  1.00  0.00    -0.208 NA
HETATM   32  H   UNL     1      41.398 -11.524   8.004  1.00  0.00     0.140 HD
BRANCH  31  33
HETATM   33  C   UNL     1      39.594 -11.371   9.041  1.00  0.00     0.182 C 
BRANCH  33  34
HETATM   34  C   UNL     1      40.476 -11.028  10.191  1.00  0.00     0.119 A 
HETATM   35  N   UNL     1      41.683 -10.495  10.130  1.00  0.00    -0.232 NA
HETATM   36  C   UNL     1      42.062 -10.303  11.439  1.00  0.00     0.085 A 
HETATM   37  C   UNL     1      41.079 -10.755  12.313  1.00  0.00     0.062 A 
HETATM   38  C   UNL     1      43.235  -9.741  11.964  1.00  0.00     0.034 A 
HETATM   39  N   UNL     1      40.086 -11.225  11.494  1.00  0.00    -0.342 N 
HETATM   40  C   UNL     1      41.194 -10.683  13.702  1.00  0.00     0.032 A 
HETATM   41  H   UNL     1      39.213 -11.639  11.792  1.00  0.00     0.167 HD
HETATM   42  C   UNL     1      42.370 -10.115  14.206  1.00  0.00     0.002 A 
HETATM   43  C   UNL     1      43.375  -9.650  13.354  1.00  0.00     0.002 A 
ENDBRANCH  33  34
ENDBRANCH  31  33
ENDBRANCH  28  31
ENDBRANCH   3  28
TORSDOF 8
ENDMDL
MODEL 8
REMARK VINA RESULT:      -8.2      3.389      6.616
REMARK  8 active torsions:
REMARK  status: ('A' for Active; 'I' for Inactive)
REMARK    1  A    between atoms: C_3  and  S_4 
REMARK    2  A    between atoms: S_4  and  N_5 
REMARK    3  A    between atoms: N_5  and  C_6 
REMARK    4  A    between atoms: C_6  and  C_7 
REMARK    5  A    between atoms: C_20  and  C_21 
REMARK    6  A    between atoms: C_25  and  N_26 
REMARK    7  A    between atoms: N_26  and  C_27 
REMARK    8  A    between atoms: C_27  and  C_28 
ROOT
HETATM    1  C   UNL     1      42.248  -9.864  11.451  1.00  0.00     0.050 C 
HETATM    2  C   UNL     1      42.025 -10.160   9.994  1.00  0.00    -0.039 A 
HETATM    3  C   UNL     1      42.924 -10.874   9.186  1.00  0.00     0.081 A 
HETATM    4  C   UNL     1      42.654 -11.061   7.816  1.00  0.00     0.039 A 
HETATM    5  C   UNL     1      41.457 -10.619   7.229  1.00  0.00    -0.003 A 
HETATM    6  C   UNL     1      40.551  -9.938   8.055  1.00  0.00     0.014 A 
HETATM    7  C   UNL     1      40.840  -9.691   9.402  1.00  0.00     0.009 A 
ENDROOT
BRANCH   5   8
HETATM    8  C   UNL     1      41.131 -10.967   5.830  1.00  0.00     0.098 C 
HETATM    9  N   UNL     1      41.350  -9.946   4.978  1.00  0.00    -0.172 NA
HETATM   10  N   UNL     1      41.224 -10.147   3.681  1.00  0.00    -0.266 N 
HETATM   11  H   UNL     1      41.336  -9.341   3.072  1.00  0.00     0.190 HD
HETATM   12  C   UNL     1      40.964 -11.342   3.122  1.00  0.00     0.108 C 
HETATM   13  C   UNL     1      40.608 -12.413   3.989  1.00  0.00     0.016 A 
HETATM   14  C   UNL     1      40.688 -12.222   5.385  1.00  0.00     0.009 A 
HETATM   15  C   UNL     1      40.167 -13.673   3.511  1.00  0.00     0.016 A 
HETATM   16  C   UNL     1      40.309 -13.285   6.245  1.00  0.00     0.015 A 
HETATM   17  C   UNL     1      39.885 -14.515   5.745  1.00  0.00     0.001 A 
HETATM   18  C   UNL     1      39.816 -14.710   4.376  1.00  0.00     0.001 A 
BRANCH  12  19
HETATM   19  N   UNL     1      40.948 -11.509   1.732  1.00  0.00    -0.273 NA
HETATM   20  H   UNL     1      40.090 -11.979   1.437  1.00  0.00     0.129 HD
BRANCH  19  21
HETATM   21  C   UNL     1      42.087 -12.037   0.978  1.00  0.00     0.132 C 
BRANCH  21  22
HETATM   22  C   UNL     1      41.688 -13.212   0.122  1.00  0.00    -0.045 A 
HETATM   23  C   UNL     1      41.324 -13.025  -1.221  1.00  0.00     0.008 A 
HETATM   24  C   UNL     1      40.966 -14.116  -2.013  1.00  0.00     0.001 A 
HETATM   25  C   UNL     1      40.985 -15.405  -1.482  1.00  0.00     0.000 A 
HETATM   26  C   UNL     1      41.368 -15.606  -0.159  1.00  0.00     0.001 A 
HETATM   27  C   UNL     1      41.723 -14.518   0.638  1.00  0.00     0.008 A 
ENDBRANCH  21  22
ENDBRANCH  19  21
ENDBRANCH  12  19
ENDBRANCH   5   8
BRANCH   3  28
HETATM   28  S   UNL     1      44.434 -11.620   9.809  1.00  0.00     0.242 S 
HETATM   29  O   UNL     1      45.546 -10.898   9.230  1.00  0.00    -0.206 OA
HETATM   30  O   UNL     1      44.315 -11.815  11.233  1.00  0.00    -0.206 OA
BRANCH  28  31
HETATM   31  N   UNL     1      44.364 -13.155   9.085  1.00  0.00    -0.208 NA
HETATM   32  H   UNL     1      43.394 -13.466   8.995  1.00  0.00     0.140 HD
BRANCH  31  33
HETATM   33  C   UNL     1      45.103 -13.264   7.817  1.00  0.00     0.182 C 
BRANCH  33  34
HETATM   34  C   UNL     1      44.383 -14.200   6.910  1.00  0.00     0.119 A 
HETATM   35  N   UNL     1      44.269 -14.097   5.598  1.00  0.00    -0.232 NA
HETATM   36  C   UNL     1      43.580 -15.222   5.205  1.00  0.00     0.085 A 
HETATM   37  C   UNL     1      43.244 -16.009   6.301  1.00  0.00     0.062 A 
HETATM   38  C   UNL     1      43.207 -15.647   3.921  1.00  0.00     0.034 A 
HETATM   39  N   UNL     1      43.753 -15.328   7.376  1.00  0.00    -0.342 N 
HETATM   40  C   UNL     1      42.544 -17.212   6.198  1.00  0.00     0.032 A 
HETATM   41  H   UNL     1      43.687 -15.609   8.346  1.00  0.00     0.167 HD
HETATM   42  C   UNL     1      42.184 -17.621   4.908  1.00  0.00     0.002 A 
HETATM   43  C   UNL     1      42.510 -16.854   3.787  1.00  0.00     0.002 A 
ENDBRANCH  33  34
ENDBRANCH  31  33
ENDBRANCH  28  31
ENDBRANCH   3  28
TORSDOF 8
ENDMDL
MODEL 9
REMARK VINA RESULT:      -8.1      2.016      4.334
REMARK  8 active torsions:
REMARK  status: ('A' for Active; 'I' for Inactive)
REMARK    1  A    between atoms: C_3  and  S_4 
REMARK    2  A    between atoms: S_4  and  N_5 
REMARK    3  A    between atoms: N_5  and  C_6 
REMARK    4  A    between atoms: C_6  and  C_7 
REMARK    5  A    between atoms: C_20  and  C_21 
REMARK    6  A    between atoms: C_25  and  N_26 
REMARK    7  A    between atoms: N_26  and  C_27 
REMARK    8  A    between atoms: C_27  and  C_28 
ROOT
HETATM    1  C   UNL     1      44.991 -17.713   7.403  1.00  0.00     0.050 C 
HETATM    2  C   UNL     1      44.350 -16.703   6.492  1.00  0.00    -0.039 A 
HETATM    3  C   UNL     1      43.726 -17.020   5.275  1.00  0.00     0.081 A 
HETATM    4  C   UNL     1      43.194 -16.000   4.461  1.00  0.00     0.039 A 
HETATM    5  C   UNL     1      43.196 -14.654   4.864  1.00  0.00    -0.003 A 
HETATM    6  C   UNL     1      43.792 -14.355   6.098  1.00  0.00     0.014 A 
HETATM    7  C   UNL     1      44.379 -15.354   6.883  1.00  0.00     0.009 A 
ENDROOT
BRANCH   5   8
HETATM    8  C   UNL     1      42.493 -13.629   4.065  1.00  0.00     0.098 C 
HETATM    9  N   UNL     1      43.137 -13.336   2.917  1.00  0.00    -0.172 NA
HETATM   10  N   UNL     1      42.566 -12.531   2.042  1.00  0.00    -0.266 N 
HETATM   11  H   UNL     1      43.105 -12.283   1.217  1.00  0.00     0.190 HD
HETATM   12  C   UNL     1      41.325 -12.029   2.173  1.00  0.00     0.108 C 
HETATM   13  C   UNL     1      40.665 -12.216   3.420  1.00  0.00     0.016 A 
HETATM   14  C   UNL     1      41.267 -13.035   4.399  1.00  0.00     0.009 A 
HETATM   15  C   UNL     1      39.423 -11.606   3.730  1.00  0.00     0.016 A 
HETATM   16  C   UNL     1      40.616 -13.198   5.650  1.00  0.00     0.015 A 
HETATM   17  C   UNL     1      39.392 -12.590   5.922  1.00  0.00     0.001 A 
HETATM   18  C   UNL     1      38.793 -11.796   4.960  1.00  0.00     0.001 A 
BRANCH  12  19
HETATM   19  N   UNL     1      40.737 -11.265   1.157  1.00  0.00    -0.273 NA
HETATM   20  H   UNL     1      40.033 -11.813   0.659  1.00  0.00     0.129 HD
BRANCH  19  21
HETATM   21  C   UNL     1      41.515 -10.472   0.204  1.00  0.00     0.132 C 
BRANCH  21  22
HETATM   22  C   UNL     1      41.601 -11.149  -1.141  1.00  0.00    -0.045 A 
HETATM   23  C   UNL     1      42.694 -11.970  -1.456  1.00  0.00     0.008 A 
HETATM   24  C   UNL     1      42.766 -12.604  -2.698  1.00  0.00     0.001 A 
HETATM   25  C   UNL     1      41.741 -12.440  -3.628  1.00  0.00     0.000 A 
HETATM   26  C   UNL     1      40.639 -11.648  -3.318  1.00  0.00     0.001 A 
HETATM   27  C   UNL     1      40.566 -11.010  -2.080  1.00  0.00     0.008 A 
ENDBRANCH  21  22
ENDBRANCH  19  21
ENDBRANCH  12  19
ENDBRANCH   5   8
BRANCH   3  28
HETATM   28  S   UNL     1      43.521 -18.701   4.679  1.00  0.00     0.242 S 
HETATM   29  O   UNL     1      44.638 -18.992   3.807  1.00  0.00    -0.206 OA
HETATM   30  O   UNL     1      43.179 -19.560   5.787  1.00  0.00    -0.206 OA
BRANCH  28  31
HETATM   31  N   UNL     1      42.127 -18.541   3.720  1.00  0.00    -0.208 NA
HETATM   32  H   UNL     1      41.521 -17.806   4.088  1.00  0.00     0.140 HD
BRANCH  31  33
HETATM   33  C   UNL     1      42.394 -18.376   2.282  1.00  0.00     0.182 C 
BRANCH  33  34
HETATM   34  C   UNL     1      41.583 -17.241   1.762  1.00  0.00     0.119 A 
HETATM   35  N   UNL     1      41.789 -16.571   0.642  1.00  0.00    -0.232 NA
HETATM   36  C   UNL     1      40.750 -15.672   0.561  1.00  0.00     0.085 A 
HETATM   37  C   UNL     1      39.912 -15.779   1.666  1.00  0.00     0.062 A 
HETATM   38  C   UNL     1      40.449 -14.731  -0.435  1.00  0.00     0.034 A 
HETATM   39  N   UNL     1      40.473 -16.774   2.423  1.00  0.00    -0.342 N 
HETATM   40  C   UNL     1      38.775 -14.990   1.847  1.00  0.00     0.032 A 
HETATM   41  H   UNL     1      40.128 -17.115   3.311  1.00  0.00     0.167 HD
HETATM   42  C   UNL     1      38.489 -14.060   0.841  1.00  0.00     0.002 A 
HETATM   43  C   UNL     1      39.309 -13.931  -0.283  1.00  0.00     0.002 A 
ENDBRANCH  33  34
ENDBRANCH  31  33
ENDBRANCH  28  31
ENDBRANCH   3  28
TORSDOF 8
ENDMDL
MODEL 10
REMARK VINA RESULT:      -8.1      4.123      7.733
REMARK  8 active torsions:
REMARK  status: ('A' for Active; 'I' for Inactive)
REMARK    1  A    between atoms: C_3  and  S_4 
REMARK    2  A    between atoms: S_4  and  N_5 
REMARK    3  A    between atoms: N_5  and  C_6 
REMARK    4  A    between atoms: C_6  and  C_7 
REMARK    5  A    between atoms: C_20  and  C_21 
REMARK    6  A    between atoms: C_25  and  N_26 
REMARK    7  A    between atoms: N_26  and  C_27 
REMARK    8  A    between atoms: C_27  and  C_28 
ROOT
HETATM    1  C   UNL     1      37.599  -9.660   2.501  1.00  0.00     0.050 C 
HETATM    2  C   UNL     1      38.280 -11.000   2.526  1.00  0.00    -0.039 A 
HETATM    3  C   UNL     1      39.188 -11.407   3.516  1.00  0.00     0.081 A 
HETATM    4  C   UNL     1      39.817 -12.665   3.431  1.00  0.00     0.039 A 
HETATM    5  C   UNL     1      39.505 -13.582   2.413  1.00  0.00    -0.003 A 
HETATM    6  C   UNL     1      38.571 -13.177   1.449  1.00  0.00     0.014 A 
HETATM    7  C   UNL     1      37.989 -11.904   1.490  1.00  0.00     0.009 A 
ENDROOT
BRANCH   5   8
HETATM    8  C   UNL     1      40.061 -14.951   2.438  1.00  0.00     0.098 C 
HETATM    9  N   UNL     1      40.153 -15.495   1.207  1.00  0.00    -0.172 NA
HETATM   10  N   UNL     1      40.747 -16.663   1.059  1.00  0.00    -0.266 N 
HETATM   11  H   UNL     1      40.744 -17.071   0.128  1.00  0.00     0.190 HD
HETATM   12  C   UNL     1      41.353 -17.335   2.053  1.00  0.00     0.108 C 
HETATM   13  C   UNL     1      41.172 -16.856   3.381  1.00  0.00     0.016 A 
HETATM   14  C   UNL     1      40.503 -15.630   3.583  1.00  0.00     0.009 A 
HETATM   15  C   UNL     1      41.633 -17.562   4.521  1.00  0.00     0.016 A 
HETATM   16  C   UNL     1      40.304 -15.169   4.910  1.00  0.00     0.015 A 
HETATM   17  C   UNL     1      40.774 -15.883   6.011  1.00  0.00     0.001 A 
HETATM   18  C   UNL     1      41.442 -17.079   5.816  1.00  0.00     0.001 A 
BRANCH  12  19
HETATM   19  N   UNL     1      42.057 -18.521   1.808  1.00  0.00    -0.273 NA
HETATM   20  H   UNL     1      41.639 -19.299   2.321  1.00  0.00     0.129 HD
BRANCH  19  21
HETATM   21  C   UNL     1      43.517 -18.610   1.874  1.00  0.00     0.132 C 
BRANCH  21  22
HETATM   22  C   UNL     1      43.964 -19.847   2.611  1.00  0.00    -0.045 A 
HETATM   23  C   UNL     1      43.913 -21.104   1.990  1.00  0.00     0.008 A 
HETATM   24  C   UNL     1      44.337 -22.246   2.671  1.00  0.00     0.001 A 
HETATM   25  C   UNL     1      44.834 -22.144   3.969  1.00  0.00     0.000 A 
HETATM   26  C   UNL     1      44.913 -20.899   4.588  1.00  0.00     0.001 A 
HETATM   27  C   UNL     1      44.486 -19.756   3.912  1.00  0.00     0.008 A 
ENDBRANCH  21  22
ENDBRANCH  19  21
ENDBRANCH  12  19
ENDBRANCH   5   8
BRANCH   3  28
HETATM   28  S   UNL     1      39.594 -10.410   4.953  1.00  0.00     0.242 S 
HETATM   29  O   UNL     1      40.701  -9.552   4.589  1.00  0.00    -0.206 OA
HETATM   30  O   UNL     1      38.379  -9.881   5.522  1.00  0.00    -0.206 OA
BRANCH  28  31
HETATM   31  N   UNL     1      40.173 -11.597   6.022  1.00  0.00    -0.208 NA
HETATM   32  H   UNL     1      39.934 -12.532   5.684  1.00  0.00     0.140 HD
BRANCH  31  33
HETATM   33  C   UNL     1      41.602 -11.472   6.354  1.00  0.00     0.182 C 
BRANCH  33  34
HETATM   34  C   UNL     1      41.739 -11.092   7.787  1.00  0.00     0.119 A 
HETATM   35  N   UNL     1      40.784 -10.641   8.580  1.00  0.00    -0.232 NA
HETATM   36  C   UNL     1      41.374 -10.497   9.815  1.00  0.00     0.085 A 
HETATM   37  C   UNL     1      42.721 -10.841   9.765  1.00  0.00     0.062 A 
HETATM   38  C   UNL     1      40.820 -10.083  11.035  1.00  0.00     0.034 A 
HETATM   39  N   UNL     1      42.932 -11.201   8.460  1.00  0.00    -0.342 N 
HETATM   40  C   UNL     1      43.567 -10.793  10.874  1.00  0.00     0.032 A 
HETATM   41  H   UNL     1      43.810 -11.504   8.059  1.00  0.00     0.167 HD
HETATM   42  C   UNL     1      42.995 -10.380  12.083  1.00  0.00     0.002 A 
HETATM   43  C   UNL     1      41.645 -10.032  12.166  1.00  0.00     0.002 A 
ENDBRANCH  33  34
ENDBRANCH  31  33
ENDBRANCH  28  31
ENDBRANCH   3  28
TORSDOF 8
ENDMDL
