MODEL 1
REMARK VINA RESULT:      -9.7      0.000      0.000
REMARK  4 active torsions:
REMARK  status: ('A' for Active; 'I' for Inactive)
REMARK    1  A    between atoms: C_6  and  C_7 
REMARK    2  A    between atoms: C_10  and  N_11 
REMARK       I    between atoms: N_11  and  C_12 
REMARK    3  A    between atoms: C_24  and  C_25 
REMARK       I    between atoms: C_25  and  N_26 
REMARK    4  A    between atoms: N_26  and  C_27 
ROOT
HETATM    1  C   UNL     1      43.259 -17.359   0.963  1.00  0.00     0.070 C 
HETATM    2  C   UNL     1      42.817 -16.400   2.040  1.00  0.00     0.037 C 
HETATM    3  N   UNL     1      42.469 -15.128   1.594  1.00  0.00    -0.193 N 
HETATM    4  C   UNL     1      41.671 -14.300   2.299  1.00  0.00     0.709 A 
HETATM    5  N   UNL     1      41.407 -14.592   3.613  1.00  0.00    -0.165 N 
HETATM    6  C   UNL     1      42.049 -15.707   4.324  1.00  0.00     0.182 C 
HETATM    7  N   UNL     1      41.031 -13.231   1.901  1.00  0.00    -0.062 NA
HETATM    8  C   UNL     1      40.271 -12.850   2.986  1.00  0.00     0.103 A 
HETATM    9  C   UNL     1      40.475 -13.698   4.074  1.00  0.00     0.082 A 
HETATM   10  C   UNL     1      39.365 -11.784   3.107  1.00  0.00     0.034 A 
HETATM   11  C   UNL     1      38.687 -11.611   4.319  1.00  0.00     0.002 A 
HETATM   12  C   UNL     1      38.906 -12.477   5.392  1.00  0.00     0.002 A 
HETATM   13  C   UNL     1      39.809 -13.541   5.294  1.00  0.00     0.032 A 
HETATM   14  C   UNL     1      42.648 -16.715   3.350  1.00  0.00     0.061 C 
HETATM   15  H   UNL     1      42.510 -14.962   0.592  1.00  0.00     0.184 HD
ENDROOT
BRANCH   6  16
HETATM   16  C   UNL     1      43.068 -15.132   5.308  1.00  0.00    -0.030 A 
HETATM   17  C   UNL     1      43.128 -15.618   6.622  1.00  0.00     0.012 A 
HETATM   18  C   UNL     1      43.925 -14.986   7.587  1.00  0.00     0.030 A 
HETATM   19  C   UNL     1      44.687 -13.867   7.257  1.00  0.00     0.034 A 
HETATM   20  C   UNL     1      44.690 -13.423   5.930  1.00  0.00     0.030 A 
HETATM   21  C   UNL     1      43.889 -14.045   4.966  1.00  0.00     0.012 A 
BRANCH  19  22
HETATM   22  N   UNL     1      45.434 -13.112   8.186  1.00  0.00    -0.328 N 
HETATM   23  C   UNL     1      45.057 -11.938   8.814  1.00  0.00     0.218 C 
HETATM   24  C   UNL     1      46.170 -11.358   9.650  1.00  0.00     0.117 C 
HETATM   25  O   UNL     1      43.964 -11.385   8.753  1.00  0.00    -0.274 OA
HETATM   26  H   UNL     1      46.378 -13.434   8.358  1.00  0.00     0.169 HD
ENDBRANCH  19  22
ENDBRANCH   6  16
BRANCH  14  27
HETATM   27  C   UNL     1      42.818 -18.083   3.917  1.00  0.00     0.256 C 
HETATM   28  N   UNL     1      44.006 -18.693   3.581  1.00  0.00    -0.323 N 
HETATM   29  H   UNL     1      44.694 -18.130   3.100  1.00  0.00     0.169 HD
HETATM   30  O   UNL     1      41.932 -18.536   4.631  1.00  0.00    -0.267 OA
BRANCH  28  31
HETATM   31  C   UNL     1      44.331 -20.058   3.741  1.00  0.00     0.035 A 
HETATM   32  C   UNL     1      44.712 -20.633   4.956  1.00  0.00     0.029 A 
HETATM   33  C   UNL     1      44.953 -22.008   5.049  1.00  0.00     0.002 A 
HETATM   34  C   UNL     1      44.812 -22.822   3.928  1.00  0.00     0.000 A 
HETATM   35  C   UNL     1      44.439 -22.260   2.710  1.00  0.00     0.002 A 
HETATM   36  C   UNL     1      44.204 -20.885   2.617  1.00  0.00     0.029 A 
ENDBRANCH  28  31
ENDBRANCH  14  27
TORSDOF 4
ENDMDL
MODEL 2
REMARK VINA RESULT:      -9.5      3.126      6.064
REMARK  4 active torsions:
REMARK  status: ('A' for Active; 'I' for Inactive)
REMARK    1  A    between atoms: C_6  and  C_7 
REMARK    2  A    between atoms: C_10  and  N_11 
REMARK       I    between atoms: N_11  and  C_12 
REMARK    3  A    between atoms: C_24  and  C_25 
REMARK       I    between atoms: C_25  and  N_26 
REMARK    4  A    between atoms: N_26  and  C_27 
ROOT
HETATM    1  C   UNL     1      40.745 -16.763   6.662  1.00  0.00     0.070 C 
HETATM    2  C   UNL     1      40.642 -15.502   5.842  1.00  0.00     0.037 C 
HETATM    3  N   UNL     1      39.729 -14.561   6.312  1.00  0.00    -0.193 N 
HETATM    4  C   UNL     1      39.799 -13.253   5.991  1.00  0.00     0.709 A 
HETATM    5  N   UNL     1      40.618 -12.864   4.962  1.00  0.00    -0.165 N 
HETATM    6  C   UNL     1      41.339 -13.824   4.114  1.00  0.00     0.182 C 
HETATM    7  N   UNL     1      39.220 -12.229   6.564  1.00  0.00    -0.062 NA
HETATM    8  C   UNL     1      39.736 -11.126   5.919  1.00  0.00     0.103 A 
HETATM    9  C   UNL     1      40.631 -11.493   4.916  1.00  0.00     0.082 A 
HETATM   10  C   UNL     1      39.486  -9.764   6.151  1.00  0.00     0.034 A 
HETATM   11  C   UNL     1      40.155  -8.814   5.369  1.00  0.00     0.002 A 
HETATM   12  C   UNL     1      41.051  -9.209   4.374  1.00  0.00     0.002 A 
HETATM   13  C   UNL     1      41.308 -10.561   4.122  1.00  0.00     0.032 A 
HETATM   14  C   UNL     1      41.424 -15.195   4.775  1.00  0.00     0.061 C 
HETATM   15  H   UNL     1      39.238 -14.785   7.173  1.00  0.00     0.184 HD
ENDROOT
BRANCH   6  16
HETATM   16  C   UNL     1      40.671 -13.852   2.738  1.00  0.00    -0.030 A 
HETATM   17  C   UNL     1      39.375 -14.370   2.596  1.00  0.00     0.012 A 
HETATM   18  C   UNL     1      38.815 -14.570   1.327  1.00  0.00     0.030 A 
HETATM   19  C   UNL     1      39.531 -14.245   0.176  1.00  0.00     0.034 A 
HETATM   20  C   UNL     1      40.793 -13.658   0.313  1.00  0.00     0.030 A 
HETATM   21  C   UNL     1      41.359 -13.465   1.577  1.00  0.00     0.012 A 
BRANCH  19  22
HETATM   22  N   UNL     1      39.085 -14.508  -1.137  1.00  0.00    -0.328 N 
HETATM   23  C   UNL     1      38.110 -13.830  -1.846  1.00  0.00     0.218 C 
HETATM   24  C   UNL     1      37.822 -14.479  -3.178  1.00  0.00     0.117 C 
HETATM   25  O   UNL     1      37.519 -12.813  -1.503  1.00  0.00    -0.274 OA
HETATM   26  H   UNL     1      39.478 -15.329  -1.579  1.00  0.00     0.169 HD
ENDBRANCH  19  22
ENDBRANCH   6  16
BRANCH  14  27
HETATM   27  C   UNL     1      42.551 -16.039   4.284  1.00  0.00     0.256 C 
HETATM   28  N   UNL     1      42.165 -17.256   3.769  1.00  0.00    -0.323 N 
HETATM   29  H   UNL     1      41.174 -17.415   3.653  1.00  0.00     0.169 HD
HETATM   30  O   UNL     1      43.690 -15.594   4.354  1.00  0.00    -0.267 OA
BRANCH  28  31
HETATM   31  C   UNL     1      43.003 -18.356   3.480  1.00  0.00     0.035 A 
HETATM   32  C   UNL     1      43.896 -18.919   4.395  1.00  0.00     0.029 A 
HETATM   33  C   UNL     1      44.645 -20.051   4.055  1.00  0.00     0.002 A 
HETATM   34  C   UNL     1      44.507 -20.632   2.798  1.00  0.00     0.000 A 
HETATM   35  C   UNL     1      43.625 -20.076   1.875  1.00  0.00     0.002 A 
HETATM   36  C   UNL     1      42.881 -18.942   2.213  1.00  0.00     0.029 A 
ENDBRANCH  28  31
ENDBRANCH  14  27
TORSDOF 4
ENDMDL
MODEL 3
REMARK VINA RESULT:      -9.5      2.382      3.128
REMARK  4 active torsions:
REMARK  status: ('A' for Active; 'I' for Inactive)
REMARK    1  A    between atoms: C_6  and  C_7 
REMARK    2  A    between atoms: C_10  and  N_11 
REMARK       I    between atoms: N_11  and  C_12 
REMARK    3  A    between atoms: C_24  and  C_25 
REMARK       I    between atoms: C_25  and  N_26 
REMARK    4  A    between atoms: N_26  and  C_27 
ROOT
HETATM    1  C   UNL     1      44.260 -17.620   1.410  1.00  0.00     0.070 C 
HETATM    2  C   UNL     1      43.100 -16.684   1.632  1.00  0.00     0.037 C 
HETATM    3  N   UNL     1      42.855 -15.787   0.595  1.00  0.00    -0.193 N 
HETATM    4  C   UNL     1      41.659 -15.192   0.412  1.00  0.00     0.709 A 
HETATM    5  N   UNL     1      40.729 -15.247   1.418  1.00  0.00    -0.165 N 
HETATM    6  C   UNL     1      41.018 -15.828   2.737  1.00  0.00     0.182 C 
HETATM    7  N   UNL     1      41.193 -14.578  -0.646  1.00  0.00    -0.062 NA
HETATM    8  C   UNL     1      39.885 -14.279  -0.334  1.00  0.00     0.103 A 
HETATM    9  C   UNL     1      39.558 -14.703   0.954  1.00  0.00     0.082 A 
HETATM   10  C   UNL     1      38.906 -13.650  -1.118  1.00  0.00     0.034 A 
HETATM   11  C   UNL     1      37.624 -13.474  -0.582  1.00  0.00     0.002 A 
HETATM   12  C   UNL     1      37.322 -13.911   0.709  1.00  0.00     0.002 A 
HETATM   13  C   UNL     1      38.286 -14.534   1.509  1.00  0.00     0.032 A 
HETATM   14  C   UNL     1      42.251 -16.723   2.691  1.00  0.00     0.061 C 
HETATM   15  H   UNL     1      43.449 -15.858  -0.227  1.00  0.00     0.184 HD
ENDROOT
BRANCH   6  16
HETATM   16  C   UNL     1      41.129 -14.691   3.754  1.00  0.00    -0.030 A 
HETATM   17  C   UNL     1      42.267 -13.872   3.771  1.00  0.00     0.012 A 
HETATM   18  C   UNL     1      42.471 -12.944   4.801  1.00  0.00     0.030 A 
HETATM   19  C   UNL     1      41.538 -12.806   5.828  1.00  0.00     0.034 A 
HETATM   20  C   UNL     1      40.365 -13.567   5.775  1.00  0.00     0.030 A 
HETATM   21  C   UNL     1      40.162 -14.500   4.754  1.00  0.00     0.012 A 
BRANCH  19  22
HETATM   22  N   UNL     1      41.713 -11.974   6.954  1.00  0.00    -0.328 N 
HETATM   23  C   UNL     1      41.557 -10.600   7.017  1.00  0.00     0.218 C 
HETATM   24  C   UNL     1      41.950 -10.046   8.364  1.00  0.00     0.117 C 
HETATM   25  O   UNL     1      41.144  -9.861   6.131  1.00  0.00    -0.274 OA
HETATM   26  H   UNL     1      42.057 -12.429   7.788  1.00  0.00     0.169 HD
ENDBRANCH  19  22
ENDBRANCH   6  16
BRANCH  14  27
HETATM   27  C   UNL     1      42.302 -17.745   3.775  1.00  0.00     0.256 C 
HETATM   28  N   UNL     1      43.563 -18.234   4.034  1.00  0.00    -0.323 N 
HETATM   29  H   UNL     1      44.338 -17.781   3.571  1.00  0.00     0.169 HD
HETATM   30  O   UNL     1      41.262 -18.046   4.347  1.00  0.00    -0.267 OA
BRANCH  28  31
HETATM   31  C   UNL     1      43.886 -19.377   4.800  1.00  0.00     0.035 A 
HETATM   32  C   UNL     1      43.529 -19.545   6.140  1.00  0.00     0.029 A 
HETATM   33  C   UNL     1      43.827 -20.736   6.812  1.00  0.00     0.002 A 
HETATM   34  C   UNL     1      44.482 -21.770   6.150  1.00  0.00     0.000 A 
HETATM   35  C   UNL     1      44.849 -21.612   4.816  1.00  0.00     0.002 A 
HETATM   36  C   UNL     1      44.555 -20.420   4.146  1.00  0.00     0.029 A 
ENDBRANCH  28  31
ENDBRANCH  14  27
TORSDOF 4
ENDMDL
MODEL 4
REMARK VINA RESULT:      -8.8      4.455      7.818
REMARK  4 active torsions:
REMARK  status: ('A' for Active; 'I' for Inactive)
REMARK    1  A    between atoms: C_6  and  C_7 
REMARK    2  A    between atoms: C_10  and  N_11 
REMARK       I    between atoms: N_11  and  C_12 
REMARK    3  A    between atoms: C_24  and  C_25 
REMARK       I    between atoms: C_25  and  N_26 
REMARK    4  A    between atoms: N_26  and  C_27 
ROOT
HETATM    1  C   UNL     1      39.863 -14.029   4.528  1.00  0.00     0.070 C 
HETATM    2  C   UNL     1      40.168 -13.604   3.114  1.00  0.00     0.037 C 
HETATM    3  N   UNL     1      40.103 -12.233   2.879  1.00  0.00    -0.193 N 
HETATM    4  C   UNL     1      40.736 -11.638   1.847  1.00  0.00     0.709 A 
HETATM    5  N   UNL     1      41.237 -12.418   0.837  1.00  0.00    -0.165 N 
HETATM    6  C   UNL     1      41.015 -13.870   0.768  1.00  0.00     0.182 C 
HETATM    7  N   UNL     1      41.010 -10.372   1.665  1.00  0.00    -0.062 NA
HETATM    8  C   UNL     1      41.776 -10.338   0.520  1.00  0.00     0.103 A 
HETATM    9  C   UNL     1      41.950 -11.614  -0.016  1.00  0.00     0.082 A 
HETATM   10  C   UNL     1      42.372  -9.239  -0.119  1.00  0.00     0.034 A 
HETATM   11  C   UNL     1      43.132  -9.462  -1.274  1.00  0.00     0.002 A 
HETATM   12  C   UNL     1      43.293 -10.750  -1.787  1.00  0.00     0.002 A 
HETATM   13  C   UNL     1      42.702 -11.858  -1.169  1.00  0.00     0.032 A 
HETATM   14  C   UNL     1      40.585 -14.430   2.119  1.00  0.00     0.061 C 
HETATM   15  H   UNL     1      39.889 -11.638   3.675  1.00  0.00     0.184 HD
ENDROOT
BRANCH   6  16
HETATM   16  C   UNL     1      40.017 -14.155  -0.355  1.00  0.00    -0.030 A 
HETATM   17  C   UNL     1      40.467 -14.656  -1.585  1.00  0.00     0.012 A 
HETATM   18  C   UNL     1      39.600 -14.754  -2.682  1.00  0.00     0.030 A 
HETATM   19  C   UNL     1      38.265 -14.367  -2.570  1.00  0.00     0.034 A 
HETATM   20  C   UNL     1      37.793 -13.937  -1.325  1.00  0.00     0.030 A 
HETATM   21  C   UNL     1      38.656 -13.829  -0.230  1.00  0.00     0.012 A 
BRANCH  19  22
HETATM   22  N   UNL     1      37.354 -14.336  -3.647  1.00  0.00    -0.328 N 
HETATM   23  C   UNL     1      36.724 -13.227  -4.184  1.00  0.00     0.218 C 
HETATM   24  C   UNL     1      35.725 -13.604  -5.250  1.00  0.00     0.117 C 
HETATM   25  O   UNL     1      36.914 -12.053  -3.889  1.00  0.00    -0.274 OA
HETATM   26  H   UNL     1      37.083 -15.236  -4.020  1.00  0.00     0.169 HD
ENDBRANCH  19  22
ENDBRANCH   6  16
BRANCH  14  27
HETATM   27  C   UNL     1      40.862 -15.884   2.292  1.00  0.00     0.256 C 
HETATM   28  N   UNL     1      42.123 -16.169   2.764  1.00  0.00    -0.323 N 
HETATM   29  H   UNL     1      42.691 -15.389   3.065  1.00  0.00     0.169 HD
HETATM   30  O   UNL     1      39.972 -16.685   2.032  1.00  0.00    -0.267 OA
BRANCH  28  31
HETATM   31  C   UNL     1      42.756 -17.432   2.776  1.00  0.00     0.035 A 
HETATM   32  C   UNL     1      43.130 -18.129   1.624  1.00  0.00     0.029 A 
HETATM   33  C   UNL     1      43.814 -19.346   1.719  1.00  0.00     0.002 A 
HETATM   34  C   UNL     1      44.133 -19.876   2.966  1.00  0.00     0.000 A 
HETATM   35  C   UNL     1      43.761 -19.194   4.121  1.00  0.00     0.002 A 
HETATM   36  C   UNL     1      43.073 -17.980   4.026  1.00  0.00     0.029 A 
ENDBRANCH  28  31
ENDBRANCH  14  27
TORSDOF 4
ENDMDL
MODEL 5
REMARK VINA RESULT:      -8.7      3.393      6.824
REMARK  4 active torsions:
REMARK  status: ('A' for Active; 'I' for Inactive)
REMARK    1  A    between atoms: C_6  and  C_7 
REMARK    2  A    between atoms: C_10  and  N_11 
REMARK       I    between atoms: N_11  and  C_12 
REMARK    3  A    between atoms: C_24  and  C_25 
REMARK       I    between atoms: C_25  and  N_26 
REMARK    4  A    between atoms: N_26  and  C_27 
ROOT
HETATM    1  C   UNL     1      40.497 -15.611   6.131  1.00  0.00     0.070 C 
HETATM    2  C   UNL     1      40.312 -14.586   5.041  1.00  0.00     0.037 C 
HETATM    3  N   UNL     1      39.417 -13.561   5.338  1.00  0.00    -0.193 N 
HETATM    4  C   UNL     1      39.439 -12.368   4.708  1.00  0.00     0.709 A 
HETATM    5  N   UNL     1      40.174 -12.238   3.557  1.00  0.00    -0.165 N 
HETATM    6  C   UNL     1      40.849 -13.374   2.913  1.00  0.00     0.182 C 
HETATM    7  N   UNL     1      38.883 -11.237   5.059  1.00  0.00    -0.062 NA
HETATM    8  C   UNL     1      39.329 -10.322   4.131  1.00  0.00     0.103 A 
HETATM    9  C   UNL     1      40.157 -10.920   3.181  1.00  0.00     0.082 A 
HETATM   10  C   UNL     1      39.071  -8.944   4.046  1.00  0.00     0.034 A 
HETATM   11  C   UNL     1      39.663  -8.210   3.010  1.00  0.00     0.002 A 
HETATM   12  C   UNL     1      40.492  -8.833   2.075  1.00  0.00     0.002 A 
HETATM   13  C   UNL     1      40.756 -10.206   2.138  1.00  0.00     0.032 A 
HETATM   14  C   UNL     1      41.008 -14.545   3.876  1.00  0.00     0.061 C 
HETATM   15  H   UNL     1      38.994 -13.570   6.262  1.00  0.00     0.184 HD
ENDROOT
BRANCH   6  16
HETATM   16  C   UNL     1      40.084 -13.734   1.639  1.00  0.00    -0.030 A 
HETATM   17  C   UNL     1      40.715 -13.645   0.390  1.00  0.00     0.012 A 
HETATM   18  C   UNL     1      39.986 -13.795  -0.798  1.00  0.00     0.030 A 
HETATM   19  C   UNL     1      38.616 -14.050  -0.763  1.00  0.00     0.034 A 
HETATM   20  C   UNL     1      37.995 -14.215   0.481  1.00  0.00     0.030 A 
HETATM   21  C   UNL     1      38.717 -14.057   1.668  1.00  0.00     0.012 A 
BRANCH  19  22
HETATM   22  N   UNL     1      37.790 -14.112  -1.905  1.00  0.00    -0.328 N 
HETATM   23  C   UNL     1      38.068 -14.731  -3.111  1.00  0.00     0.218 C 
HETATM   24  C   UNL     1      36.992 -14.481  -4.138  1.00  0.00     0.117 C 
HETATM   25  O   UNL     1      39.043 -15.424  -3.379  1.00  0.00    -0.274 OA
HETATM   26  H   UNL     1      36.928 -13.585  -1.855  1.00  0.00     0.169 HD
ENDBRANCH  19  22
ENDBRANCH   6  16
BRANCH  14  27
HETATM   27  C   UNL     1      42.112 -15.481   3.521  1.00  0.00     0.256 C 
HETATM   28  N   UNL     1      41.704 -16.773   3.278  1.00  0.00    -0.323 N 
HETATM   29  H   UNL     1      40.709 -16.943   3.237  1.00  0.00     0.169 HD
HETATM   30  O   UNL     1      43.254 -15.042   3.452  1.00  0.00    -0.267 OA
BRANCH  28  31
HETATM   31  C   UNL     1      42.529 -17.917   3.183  1.00  0.00     0.035 A 
HETATM   32  C   UNL     1      42.785 -18.598   1.990  1.00  0.00     0.029 A 
HETATM   33  C   UNL     1      43.667 -19.684   1.967  1.00  0.00     0.002 A 
HETATM   34  C   UNL     1      44.304 -20.096   3.134  1.00  0.00     0.000 A 
HETATM   35  C   UNL     1      44.052 -19.429   4.329  1.00  0.00     0.002 A 
HETATM   36  C   UNL     1      43.166 -18.348   4.354  1.00  0.00     0.029 A 
ENDBRANCH  28  31
ENDBRANCH  14  27
TORSDOF 4
ENDMDL
MODEL 6
REMARK VINA RESULT:      -8.4      2.831      4.091
REMARK  4 active torsions:
REMARK  status: ('A' for Active; 'I' for Inactive)
REMARK    1  A    between atoms: C_6  and  C_7 
REMARK    2  A    between atoms: C_10  and  N_11 
REMARK       I    between atoms: N_11  and  C_12 
REMARK    3  A    between atoms: C_24  and  C_25 
REMARK       I    between atoms: C_25  and  N_26 
REMARK    4  A    between atoms: N_26  and  C_27 
ROOT
HETATM    1  C   UNL     1      43.883 -17.291   1.775  1.00  0.00     0.070 C 
HETATM    2  C   UNL     1      42.768 -16.277   1.820  1.00  0.00     0.037 C 
HETATM    3  N   UNL     1      42.598 -15.531   0.656  1.00  0.00    -0.193 N 
HETATM    4  C   UNL     1      41.440 -14.912   0.349  1.00  0.00     0.709 A 
HETATM    5  N   UNL     1      40.482 -14.774   1.321  1.00  0.00    -0.165 N 
HETATM    6  C   UNL     1      40.706 -15.170   2.720  1.00  0.00     0.182 C 
HETATM    7  N   UNL     1      41.035 -14.438  -0.801  1.00  0.00    -0.062 NA
HETATM    8  C   UNL     1      39.737 -14.033  -0.579  1.00  0.00     0.103 A 
HETATM    9  C   UNL     1      39.355 -14.248   0.745  1.00  0.00     0.082 A 
HETATM   10  C   UNL     1      38.812 -13.478  -1.478  1.00  0.00     0.034 A 
HETATM   11  C   UNL     1      37.528 -13.164  -1.017  1.00  0.00     0.002 A 
HETATM   12  C   UNL     1      37.170 -13.393   0.313  1.00  0.00     0.002 A 
HETATM   13  C   UNL     1      38.078 -13.939   1.227  1.00  0.00     0.032 A 
HETATM   14  C   UNL     1      41.891 -16.121   2.845  1.00  0.00     0.061 C 
HETATM   15  H   UNL     1      43.209 -15.750  -0.126  1.00  0.00     0.184 HD
ENDROOT
BRANCH   6  16
HETATM   16  C   UNL     1      40.851 -13.903   3.564  1.00  0.00    -0.030 A 
HETATM   17  C   UNL     1      39.937 -13.636   4.593  1.00  0.00     0.012 A 
HETATM   18  C   UNL     1      39.942 -12.402   5.258  1.00  0.00     0.030 A 
HETATM   19  C   UNL     1      40.866 -11.416   4.918  1.00  0.00     0.034 A 
HETATM   20  C   UNL     1      41.829 -11.705   3.944  1.00  0.00     0.030 A 
HETATM   21  C   UNL     1      41.821 -12.931   3.272  1.00  0.00     0.012 A 
BRANCH  19  22
HETATM   22  N   UNL     1      40.876 -10.114   5.463  1.00  0.00    -0.328 N 
HETATM   23  C   UNL     1      41.467  -9.701   6.644  1.00  0.00     0.218 C 
HETATM   24  C   UNL     1      41.161  -8.257   6.956  1.00  0.00     0.117 C 
HETATM   25  O   UNL     1      42.176 -10.367   7.389  1.00  0.00    -0.274 OA
HETATM   26  H   UNL     1      40.329  -9.425   4.965  1.00  0.00     0.169 HD
ENDBRANCH  19  22
ENDBRANCH   6  16
BRANCH  14  27
HETATM   27  C   UNL     1      41.860 -16.975   4.066  1.00  0.00     0.256 C 
HETATM   28  N   UNL     1      42.797 -16.639   5.017  1.00  0.00    -0.323 N 
HETATM   29  H   UNL     1      43.324 -15.790   4.866  1.00  0.00     0.169 HD
HETATM   30  O   UNL     1      41.020 -17.864   4.138  1.00  0.00    -0.267 OA
BRANCH  28  31
HETATM   31  C   UNL     1      43.181 -17.412   6.136  1.00  0.00     0.035 A 
HETATM   32  C   UNL     1      43.642 -18.728   6.054  1.00  0.00     0.029 A 
HETATM   33  C   UNL     1      44.068 -19.406   7.202  1.00  0.00     0.002 A 
HETATM   34  C   UNL     1      44.038 -18.773   8.442  1.00  0.00     0.000 A 
HETATM   35  C   UNL     1      43.574 -17.464   8.536  1.00  0.00     0.002 A 
HETATM   36  C   UNL     1      43.145 -16.789   7.390  1.00  0.00     0.029 A 
ENDBRANCH  28  31
ENDBRANCH  14  27
TORSDOF 4
ENDMDL
MODEL 7
REMARK VINA RESULT:      -8.4      3.266      6.555
REMARK  4 active torsions:
REMARK  status: ('A' for Active; 'I' for Inactive)
REMARK    1  A    between atoms: C_6  and  C_7 
REMARK    2  A    between atoms: C_10  and  N_11 
REMARK       I    between atoms: N_11  and  C_12 
REMARK    3  A    between atoms: C_24  and  C_25 
REMARK       I    between atoms: C_25  and  N_26 
REMARK    4  A    between atoms: N_26  and  C_27 
ROOT
HETATM    1  C   UNL     1      40.444 -15.928   6.325  1.00  0.00     0.070 C 
HETATM    2  C   UNL     1      40.418 -14.496   5.856  1.00  0.00     0.037 C 
HETATM    3  N   UNL     1      39.617 -13.640   6.609  1.00  0.00    -0.193 N 
HETATM    4  C   UNL     1      39.791 -12.302   6.623  1.00  0.00     0.709 A 
HETATM    5  N   UNL     1      40.592 -11.726   5.671  1.00  0.00    -0.165 N 
HETATM    6  C   UNL     1      41.181 -12.489   4.560  1.00  0.00     0.182 C 
HETATM    7  N   UNL     1      39.335 -11.418   7.473  1.00  0.00    -0.062 NA
HETATM    8  C   UNL     1      39.917 -10.229   7.092  1.00  0.00     0.103 A 
HETATM    9  C   UNL     1      40.727 -10.395   5.968  1.00  0.00     0.082 A 
HETATM   10  C   UNL     1      39.804  -8.957   7.674  1.00  0.00     0.034 A 
HETATM   11  C   UNL     1      40.519  -7.892   7.111  1.00  0.00     0.002 A 
HETATM   12  C   UNL     1      41.326  -8.086   5.989  1.00  0.00     0.002 A 
HETATM   13  C   UNL     1      41.447  -9.344   5.389  1.00  0.00     0.032 A 
HETATM   14  C   UNL     1      41.172 -13.986   4.849  1.00  0.00     0.061 C 
HETATM   15  H   UNL     1      39.149 -14.038   7.419  1.00  0.00     0.184 HD
ENDROOT
BRANCH   6  16
HETATM   16  C   UNL     1      40.448 -12.113   3.272  1.00  0.00    -0.030 A 
HETATM   17  C   UNL     1      39.051 -12.204   3.206  1.00  0.00     0.012 A 
HETATM   18  C   UNL     1      38.375 -12.038   1.989  1.00  0.00     0.030 A 
HETATM   19  C   UNL     1      39.079 -11.767   0.817  1.00  0.00     0.034 A 
HETATM   20  C   UNL     1      40.467 -11.601   0.890  1.00  0.00     0.030 A 
HETATM   21  C   UNL     1      41.145 -11.774   2.101  1.00  0.00     0.012 A 
BRANCH  19  22
HETATM   22  N   UNL     1      38.491 -11.689  -0.463  1.00  0.00    -0.328 N 
HETATM   23  C   UNL     1      38.115 -12.739  -1.282  1.00  0.00     0.218 C 
HETATM   24  C   UNL     1      37.631 -12.262  -2.630  1.00  0.00     0.117 C 
HETATM   25  O   UNL     1      38.134 -13.934  -1.009  1.00  0.00    -0.274 OA
HETATM   26  H   UNL     1      38.398 -10.758  -0.848  1.00  0.00     0.169 HD
ENDBRANCH  19  22
ENDBRANCH   6  16
BRANCH  14  27
HETATM   27  C   UNL     1      42.193 -14.759   4.086  1.00  0.00     0.256 C 
HETATM   28  N   UNL     1      41.675 -15.772   3.310  1.00  0.00    -0.323 N 
HETATM   29  H   UNL     1      40.669 -15.821   3.228  1.00  0.00     0.169 HD
HETATM   30  O   UNL     1      43.370 -14.434   4.185  1.00  0.00    -0.267 OA
BRANCH  28  31
HETATM   31  C   UNL     1      42.395 -16.822   2.698  1.00  0.00     0.035 A 
HETATM   32  C   UNL     1      43.073 -16.699   1.482  1.00  0.00     0.029 A 
HETATM   33  C   UNL     1      43.821 -17.766   0.974  1.00  0.00     0.002 A 
HETATM   34  C   UNL     1      43.900 -18.965   1.676  1.00  0.00     0.000 A 
HETATM   35  C   UNL     1      43.224 -19.102   2.885  1.00  0.00     0.002 A 
HETATM   36  C   UNL     1      42.473 -18.037   3.391  1.00  0.00     0.029 A 
ENDBRANCH  28  31
ENDBRANCH  14  27
TORSDOF 4
ENDMDL
MODEL 8
REMARK VINA RESULT:      -8.2      5.166      9.328
REMARK  4 active torsions:
REMARK  status: ('A' for Active; 'I' for Inactive)
REMARK    1  A    between atoms: C_6  and  C_7 
REMARK    2  A    between atoms: C_10  and  N_11 
REMARK       I    between atoms: N_11  and  C_12 
REMARK    3  A    between atoms: C_24  and  C_25 
REMARK       I    between atoms: C_25  and  N_26 
REMARK    4  A    between atoms: N_26  and  C_27 
ROOT
HETATM    1  C   UNL     1      40.838 -15.909  -3.165  1.00  0.00     0.070 C 
HETATM    2  C   UNL     1      40.852 -15.281  -1.794  1.00  0.00     0.037 C 
HETATM    3  N   UNL     1      41.013 -16.172  -0.735  1.00  0.00    -0.193 N 
HETATM    4  C   UNL     1      41.468 -15.792   0.476  1.00  0.00     0.709 A 
HETATM    5  N   UNL     1      41.522 -14.455   0.776  1.00  0.00    -0.165 N 
HETATM    6  C   UNL     1      40.995 -13.417  -0.123  1.00  0.00     0.182 C 
HETATM    7  N   UNL     1      41.942 -16.527   1.450  1.00  0.00    -0.062 NA
HETATM    8  C   UNL     1      42.378 -15.623   2.394  1.00  0.00     0.103 A 
HETATM    9  C   UNL     1      42.142 -14.309   1.990  1.00  0.00     0.082 A 
HETATM   10  C   UNL     1      43.003 -15.859   3.628  1.00  0.00     0.034 A 
HETATM   11  C   UNL     1      43.378 -14.763   4.415  1.00  0.00     0.002 A 
HETATM   12  C   UNL     1      43.134 -13.457   3.985  1.00  0.00     0.002 A 
HETATM   13  C   UNL     1      42.506 -13.200   2.761  1.00  0.00     0.032 A 
HETATM   14  C   UNL     1      40.820 -13.948  -1.541  1.00  0.00     0.061 C 
HETATM   15  H   UNL     1      41.137 -17.153  -0.972  1.00  0.00     0.184 HD
ENDROOT
BRANCH   6  16
HETATM   16  C   UNL     1      39.706 -12.861   0.482  1.00  0.00    -0.030 A 
HETATM   17  C   UNL     1      38.520 -13.605   0.416  1.00  0.00     0.012 A 
HETATM   18  C   UNL     1      37.294 -13.043   0.801  1.00  0.00     0.030 A 
HETATM   19  C   UNL     1      37.231 -11.732   1.272  1.00  0.00     0.034 A 
HETATM   20  C   UNL     1      38.422 -11.011   1.412  1.00  0.00     0.030 A 
HETATM   21  C   UNL     1      39.645 -11.565   1.021  1.00  0.00     0.012 A 
BRANCH  19  22
HETATM   22  N   UNL     1      36.032 -11.057   1.583  1.00  0.00    -0.328 N 
HETATM   23  C   UNL     1      34.985 -10.765   0.727  1.00  0.00     0.218 C 
HETATM   24  C   UNL     1      33.925  -9.923   1.394  1.00  0.00     0.117 C 
HETATM   25  O   UNL     1      34.860 -11.123  -0.439  1.00  0.00    -0.274 OA
HETATM   26  H   UNL     1      35.966 -10.687   2.522  1.00  0.00     0.169 HD
ENDBRANCH  19  22
ENDBRANCH   6  16
BRANCH  14  27
HETATM   27  C   UNL     1      40.826 -12.890  -2.592  1.00  0.00     0.256 C 
HETATM   28  N   UNL     1      42.019 -12.212  -2.707  1.00  0.00    -0.323 N 
HETATM   29  H   UNL     1      42.802 -12.563  -2.175  1.00  0.00     0.169 HD
HETATM   30  O   UNL     1      39.815 -12.726  -3.264  1.00  0.00    -0.267 OA
BRANCH  28  31
HETATM   31  C   UNL     1      42.241 -11.007  -3.411  1.00  0.00     0.035 A 
HETATM   32  C   UNL     1      42.329 -10.921  -4.803  1.00  0.00     0.029 A 
HETATM   33  C   UNL     1      42.484  -9.680  -5.430  1.00  0.00     0.002 A 
HETATM   34  C   UNL     1      42.551  -8.514  -4.673  1.00  0.00     0.000 A 
HETATM   35  C   UNL     1      42.471  -8.588  -3.285  1.00  0.00     0.002 A 
HETATM   36  C   UNL     1      42.321  -9.829  -2.658  1.00  0.00     0.029 A 
ENDBRANCH  28  31
ENDBRANCH  14  27
TORSDOF 4
ENDMDL
MODEL 9
REMARK VINA RESULT:      -8.1      3.811      7.573
REMARK  4 active torsions:
REMARK  status: ('A' for Active; 'I' for Inactive)
REMARK    1  A    between atoms: C_6  and  C_7 
REMARK    2  A    between atoms: C_10  and  N_11 
REMARK       I    between atoms: N_11  and  C_12 
REMARK    3  A    between atoms: C_24  and  C_25 
REMARK       I    between atoms: C_25  and  N_26 
REMARK    4  A    between atoms: N_26  and  C_27 
ROOT
HETATM    1  C   UNL     1      38.135 -13.566  -0.431  1.00  0.00     0.070 C 
HETATM    2  C   UNL     1      39.046 -13.877   0.729  1.00  0.00     0.037 C 
HETATM    3  N   UNL     1      38.950 -15.174   1.228  1.00  0.00    -0.193 N 
HETATM    4  C   UNL     1      39.937 -15.758   1.938  1.00  0.00     0.709 A 
HETATM    5  N   UNL     1      40.955 -14.979   2.425  1.00  0.00    -0.165 N 
HETATM    6  C   UNL     1      40.962 -13.514   2.306  1.00  0.00     0.182 C 
HETATM    7  N   UNL     1      40.120 -17.024   2.213  1.00  0.00    -0.062 NA
HETATM    8  C   UNL     1      41.341 -17.074   2.850  1.00  0.00     0.103 A 
HETATM    9  C   UNL     1      41.899 -15.802   2.984  1.00  0.00     0.082 A 
HETATM   10  C   UNL     1      42.045 -18.186   3.336  1.00  0.00     0.034 A 
HETATM   11  C   UNL     1      43.295 -17.984   3.935  1.00  0.00     0.002 A 
HETATM   12  C   UNL     1      43.832 -16.701   4.053  1.00  0.00     0.002 A 
HETATM   13  C   UNL     1      43.144 -15.578   3.581  1.00  0.00     0.032 A 
HETATM   14  C   UNL     1      39.989 -13.039   1.233  1.00  0.00     0.061 C 
HETATM   15  H   UNL     1      38.307 -15.803   0.756  1.00  0.00     0.184 HD
ENDROOT
BRANCH   6  16
HETATM   16  C   UNL     1      40.685 -12.915   3.686  1.00  0.00    -0.030 A 
HETATM   17  C   UNL     1      41.635 -12.084   4.296  1.00  0.00     0.012 A 
HETATM   18  C   UNL     1      41.483 -11.672   5.627  1.00  0.00     0.030 A 
HETATM   19  C   UNL     1      40.375 -12.070   6.372  1.00  0.00     0.034 A 
HETATM   20  C   UNL     1      39.386 -12.838   5.746  1.00  0.00     0.030 A 
HETATM   21  C   UNL     1      39.538 -13.258   4.421  1.00  0.00     0.012 A 
BRANCH  19  22
HETATM   22  N   UNL     1      40.195 -11.788   7.742  1.00  0.00    -0.328 N 
HETATM   23  C   UNL     1      39.472 -10.748   8.299  1.00  0.00     0.218 C 
HETATM   24  C   UNL     1      39.610 -10.700   9.801  1.00  0.00     0.117 C 
HETATM   25  O   UNL     1      38.771  -9.934   7.708  1.00  0.00    -0.274 OA
HETATM   26  H   UNL     1      40.712 -12.374   8.384  1.00  0.00     0.169 HD
ENDBRANCH  19  22
ENDBRANCH   6  16
BRANCH  14  27
HETATM   27  C   UNL     1      40.307 -11.695   0.674  1.00  0.00     0.256 C 
HETATM   28  N   UNL     1      41.086 -11.723  -0.462  1.00  0.00    -0.323 N 
HETATM   29  H   UNL     1      41.263 -12.627  -0.877  1.00  0.00     0.169 HD
HETATM   30  O   UNL     1      39.851 -10.704   1.231  1.00  0.00    -0.267 OA
BRANCH  28  31
HETATM   31  C   UNL     1      41.759 -10.631  -1.053  1.00  0.00     0.035 A 
HETATM   32  C   UNL     1      41.127  -9.646  -1.818  1.00  0.00     0.029 A 
HETATM   33  C   UNL     1      41.852  -8.557  -2.315  1.00  0.00     0.002 A 
HETATM   34  C   UNL     1      43.213  -8.441  -2.049  1.00  0.00     0.000 A 
HETATM   35  C   UNL     1      43.855  -9.418  -1.294  1.00  0.00     0.002 A 
HETATM   36  C   UNL     1      43.132 -10.509  -0.802  1.00  0.00     0.029 A 
ENDBRANCH  28  31
ENDBRANCH  14  27
TORSDOF 4
ENDMDL
MODEL 10
REMARK VINA RESULT:      -8.1      3.269      6.768
REMARK  4 active torsions:
REMARK  status: ('A' for Active; 'I' for Inactive)
REMARK    1  A    between atoms: C_6  and  C_7 
REMARK    2  A    between atoms: C_10  and  N_11 
REMARK       I    between atoms: N_11  and  C_12 
REMARK    3  A    between atoms: C_24  and  C_25 
REMARK       I    between atoms: C_25  and  N_26 
REMARK    4  A    between atoms: N_26  and  C_27 
ROOT
HETATM    1  C   UNL     1      40.879 -10.502   0.252  1.00  0.00     0.070 C 
HETATM    2  C   UNL     1      40.851 -11.184   1.597  1.00  0.00     0.037 C 
HETATM    3  N   UNL     1      41.362 -10.433   2.653  1.00  0.00    -0.193 N 
HETATM    4  C   UNL     1      41.043 -10.674   3.941  1.00  0.00     0.709 A 
HETATM    5  N   UNL     1      40.419 -11.852   4.261  1.00  0.00    -0.165 N 
HETATM    6  C   UNL     1      40.183 -12.920   3.278  1.00  0.00     0.182 C 
HETATM    7  N   UNL     1      41.194  -9.904   4.989  1.00  0.00    -0.062 NA
HETATM    8  C   UNL     1      40.585 -10.587   6.019  1.00  0.00     0.103 A 
HETATM    9  C   UNL     1      40.073 -11.811   5.588  1.00  0.00     0.082 A 
HETATM   10  C   UNL     1      40.423 -10.210   7.361  1.00  0.00     0.034 A 
HETATM   11  C   UNL     1      39.741 -11.075   8.226  1.00  0.00     0.002 A 
HETATM   12  C   UNL     1      39.234 -12.292   7.768  1.00  0.00     0.002 A 
HETATM   13  C   UNL     1      39.392 -12.690   6.436  1.00  0.00     0.032 A 
HETATM   14  C   UNL     1      40.292 -12.395   1.851  1.00  0.00     0.061 C 
HETATM   15  H   UNL     1      41.676  -9.490   2.439  1.00  0.00     0.184 HD
ENDROOT
BRANCH   6  16
HETATM   16  C   UNL     1      41.142 -14.073   3.577  1.00  0.00    -0.030 A 
HETATM   17  C   UNL     1      42.463 -14.028   3.110  1.00  0.00     0.012 A 
HETATM   18  C   UNL     1      43.303 -15.146   3.216  1.00  0.00     0.030 A 
HETATM   19  C   UNL     1      42.845 -16.325   3.802  1.00  0.00     0.034 A 
HETATM   20  C   UNL     1      41.552 -16.351   4.338  1.00  0.00     0.030 A 
HETATM   21  C   UNL     1      40.709 -15.241   4.226  1.00  0.00     0.012 A 
BRANCH  19  22
HETATM   22  N   UNL     1      43.586 -17.525   3.856  1.00  0.00    -0.328 N 
HETATM   23  C   UNL     1      43.483 -18.616   3.012  1.00  0.00     0.218 C 
HETATM   24  C   UNL     1      44.356 -19.763   3.459  1.00  0.00     0.117 C 
HETATM   25  O   UNL     1      42.797 -18.707   2.000  1.00  0.00    -0.274 OA
HETATM   26  H   UNL     1      44.213 -17.619   4.644  1.00  0.00     0.169 HD
ENDBRANCH  19  22
ENDBRANCH   6  16
BRANCH  14  27
HETATM   27  C   UNL     1      39.562 -13.215   0.843  1.00  0.00     0.256 C 
HETATM   28  N   UNL     1      40.364 -13.757  -0.135  1.00  0.00    -0.323 N 
HETATM   29  H   UNL     1      41.364 -13.662  -0.018  1.00  0.00     0.169 HD
HETATM   30  O   UNL     1      38.352 -13.358   0.969  1.00  0.00    -0.267 OA
BRANCH  28  31
HETATM   31  C   UNL     1      39.939 -14.344  -1.348  1.00  0.00     0.035 A 
HETATM   32  C   UNL     1      38.780 -13.970  -2.033  1.00  0.00     0.029 A 
HETATM   33  C   UNL     1      38.462 -14.553  -3.264  1.00  0.00     0.002 A 
HETATM   34  C   UNL     1      39.300 -15.513  -3.823  1.00  0.00     0.000 A 
HETATM   35  C   UNL     1      40.454 -15.899  -3.148  1.00  0.00     0.002 A 
HETATM   36  C   UNL     1      40.770 -15.320  -1.915  1.00  0.00     0.029 A 
ENDBRANCH  28  31
ENDBRANCH  14  27
TORSDOF 4
ENDMDL
