MODEL 1
REMARK VINA RESULT:      -7.6      0.000      0.000
REMARK  6 active torsions:
REMARK  status: ('A' for Active; 'I' for Inactive)
REMARK    1  A    between atoms: O_2  and  C_3 
REMARK    2  A    between atoms: C_6  and  C_7 
REMARK    3  A    between atoms: C_7  and  N_8 
REMARK    4  A    between atoms: N_8  and  C_9 
REMARK    5  A    between atoms: C_15  and  C_16 
REMARK       I    between atoms: C_16  and  N_17 
REMARK    6  A    between atoms: N_17  and  C_18 
ROOT
HETATM    1  C   UNL     1      44.487 -19.854   3.950  1.00  0.00     0.096 A 
HETATM    2  N   UNL     1      44.718 -21.148   4.237  1.00  0.00    -0.356 N 
HETATM    3  H   UNL     1      45.149 -21.347   5.139  1.00  0.00     0.166 HD
HETATM    4  C   UNL     1      44.473 -22.158   3.390  1.00  0.00     0.089 A 
HETATM    5  C   UNL     1      43.975 -21.892   2.123  1.00  0.00     0.018 A 
HETATM    6  C   UNL     1      43.778 -20.570   1.736  1.00  0.00     0.022 A 
HETATM    7  C   UNL     1      44.066 -19.535   2.633  1.00  0.00     0.070 A 
ENDROOT
BRANCH   1   8
HETATM    8  N   UNL     1      44.812 -18.900   4.917  1.00  0.00    -0.274 NA
HETATM    9  H   UNL     1      44.743 -17.961   4.485  1.00  0.00     0.129 HD
BRANCH   8  10
HETATM   10  C   UNL     1      44.022 -18.875   6.152  1.00  0.00     0.132 C 
BRANCH  10  11
HETATM   11  C   UNL     1      43.169 -17.634   6.207  1.00  0.00    -0.045 A 
HETATM   12  C   UNL     1      43.765 -16.374   6.370  1.00  0.00     0.011 A 
HETATM   13  C   UNL     1      42.995 -15.208   6.367  1.00  0.00     0.037 A 
HETATM   14  C   UNL     1      41.615 -15.285   6.195  1.00  0.00     0.068 A 
HETATM   15  C   UNL     1      41.012 -16.537   6.049  1.00  0.00     0.037 A 
HETATM   16  C   UNL     1      41.780 -17.705   6.040  1.00  0.00     0.011 A 
BRANCH  14  17
HETATM   17  O   UNL     1      40.757 -14.223   6.161  1.00  0.00    -0.356 OA
HETATM   18  C   UNL     1      39.741 -14.262   5.163  1.00  0.00     0.210 C 
ENDBRANCH  14  17
ENDBRANCH  10  11
ENDBRANCH   8  10
ENDBRANCH   1   8
BRANCH   7  19
HETATM   19  C   UNL     1      43.904 -18.101   2.260  1.00  0.00     0.259 C 
HETATM   20  N   UNL     1      42.951 -17.381   2.947  1.00  0.00    -0.320 N 
HETATM   21  H   UNL     1      42.437 -17.817   3.706  1.00  0.00     0.169 HD
HETATM   22  O   UNL     1      44.611 -17.687   1.347  1.00  0.00    -0.267 OA
BRANCH  20  23
HETATM   23  C   UNL     1      42.529 -16.049   2.682  1.00  0.00     0.075 A 
HETATM   24  C   UNL     1      41.273 -15.825   2.101  1.00  0.00     0.152 A 
HETATM   25 CL   UNL     1      40.211 -17.138   1.739  1.00  0.00    -0.060 Cl
HETATM   26  N   UNL     1      40.765 -14.620   1.768  1.00  0.00    -0.247 NA
HETATM   27  C   UNL     1      41.551 -13.554   2.023  1.00  0.00     0.118 A 
HETATM   28  C   UNL     1      42.810 -13.652   2.595  1.00  0.00     0.022 A 
HETATM   29  C   UNL     1      43.302 -14.916   2.931  1.00  0.00     0.034 A 
ENDBRANCH  20  23
ENDBRANCH   7  19
TORSDOF 6
ENDMDL
MODEL 2
REMARK VINA RESULT:      -7.6      2.502      6.430
REMARK  6 active torsions:
REMARK  status: ('A' for Active; 'I' for Inactive)
REMARK    1  A    between atoms: O_2  and  C_3 
REMARK    2  A    between atoms: C_6  and  C_7 
REMARK    3  A    between atoms: C_7  and  N_8 
REMARK    4  A    between atoms: N_8  and  C_9 
REMARK    5  A    between atoms: C_15  and  C_16 
REMARK       I    between atoms: C_16  and  N_17 
REMARK    6  A    between atoms: N_17  and  C_18 
ROOT
HETATM    1  C   UNL     1      41.851 -16.045   1.339  1.00  0.00     0.096 A 
HETATM    2  N   UNL     1      41.948 -15.727   0.035  1.00  0.00    -0.356 N 
HETATM    3  H   UNL     1      42.289 -16.456  -0.590  1.00  0.00     0.166 HD
HETATM    4  C   UNL     1      41.686 -14.509  -0.460  1.00  0.00     0.089 A 
HETATM    5  C   UNL     1      41.313 -13.481   0.394  1.00  0.00     0.018 A 
HETATM    6  C   UNL     1      41.259 -13.724   1.764  1.00  0.00     0.022 A 
HETATM    7  C   UNL     1      41.563 -14.999   2.253  1.00  0.00     0.070 A 
ENDROOT
BRANCH   1   8
HETATM    8  N   UNL     1      42.178 -17.347   1.722  1.00  0.00    -0.274 NA
HETATM    9  H   UNL     1      41.455 -17.989   1.350  1.00  0.00     0.129 HD
BRANCH   8  10
HETATM   10  C   UNL     1      43.486 -17.875   1.319  1.00  0.00     0.132 C 
BRANCH  10  11
HETATM   11  C   UNL     1      43.775 -19.168   2.036  1.00  0.00    -0.045 A 
HETATM   12  C   UNL     1      43.595 -20.396   1.380  1.00  0.00     0.011 A 
HETATM   13  C   UNL     1      43.912 -21.602   2.011  1.00  0.00     0.037 A 
HETATM   14  C   UNL     1      44.419 -21.598   3.308  1.00  0.00     0.068 A 
HETATM   15  C   UNL     1      44.585 -20.380   3.974  1.00  0.00     0.037 A 
HETATM   16  C   UNL     1      44.280 -19.171   3.343  1.00  0.00     0.011 A 
BRANCH  14  17
HETATM   17  O   UNL     1      44.777 -22.703   4.026  1.00  0.00    -0.356 OA
HETATM   18  C   UNL     1      45.210 -22.475   5.364  1.00  0.00     0.210 C 
ENDBRANCH  14  17
ENDBRANCH  10  11
ENDBRANCH   8  10
ENDBRANCH   1   8
BRANCH   7  19
HETATM   19  C   UNL     1      41.553 -15.306   3.712  1.00  0.00     0.259 C 
HETATM   20  N   UNL     1      42.724 -15.786   4.257  1.00  0.00    -0.320 N 
HETATM   21  H   UNL     1      43.556 -15.863   3.681  1.00  0.00     0.169 HD
HETATM   22  O   UNL     1      40.490 -15.138   4.302  1.00  0.00    -0.267 OA
BRANCH  20  23
HETATM   23  C   UNL     1      42.918 -16.267   5.582  1.00  0.00     0.075 A 
HETATM   24  C   UNL     1      43.663 -15.504   6.491  1.00  0.00     0.152 A 
HETATM   25 CL   UNL     1      44.317 -13.970   6.043  1.00  0.00    -0.060 Cl
HETATM   26  N   UNL     1      43.949 -15.856   7.762  1.00  0.00    -0.247 NA
HETATM   27  C   UNL     1      43.469 -17.048   8.170  1.00  0.00     0.118 A 
HETATM   28  C   UNL     1      42.719 -17.887   7.361  1.00  0.00     0.022 A 
HETATM   29  C   UNL     1      42.438 -17.488   6.052  1.00  0.00     0.034 A 
ENDBRANCH  20  23
ENDBRANCH   7  19
TORSDOF 6
ENDMDL
MODEL 3
REMARK VINA RESULT:      -7.4      2.065      5.391
REMARK  6 active torsions:
REMARK  status: ('A' for Active; 'I' for Inactive)
REMARK    1  A    between atoms: O_2  and  C_3 
REMARK    2  A    between atoms: C_6  and  C_7 
REMARK    3  A    between atoms: C_7  and  N_8 
REMARK    4  A    between atoms: N_8  and  C_9 
REMARK    5  A    between atoms: C_15  and  C_16 
REMARK       I    between atoms: C_16  and  N_17 
REMARK    6  A    between atoms: N_17  and  C_18 
ROOT
HETATM    1  C   UNL     1      40.778 -16.204   2.945  1.00  0.00     0.096 A 
HETATM    2  N   UNL     1      39.728 -15.363   2.903  1.00  0.00    -0.356 N 
HETATM    3  H   UNL     1      39.139 -15.324   3.734  1.00  0.00     0.166 HD
HETATM    4  C   UNL     1      39.392 -14.639   1.826  1.00  0.00     0.089 A 
HETATM    5  C   UNL     1      40.128 -14.755   0.657  1.00  0.00     0.018 A 
HETATM    6  C   UNL     1      41.186 -15.659   0.609  1.00  0.00     0.022 A 
HETATM    7  C   UNL     1      41.498 -16.420   1.742  1.00  0.00     0.070 A 
ENDROOT
BRANCH   1   8
HETATM    8  N   UNL     1      41.000 -16.917   4.125  1.00  0.00    -0.274 NA
HETATM    9  H   UNL     1      41.988 -17.229   4.137  1.00  0.00     0.129 HD
BRANCH   8  10
HETATM   10  C   UNL     1      40.737 -16.239   5.398  1.00  0.00     0.132 C 
BRANCH  10  11
HETATM   11  C   UNL     1      41.985 -15.560   5.900  1.00  0.00    -0.045 A 
HETATM   12  C   UNL     1      42.809 -16.201   6.838  1.00  0.00     0.011 A 
HETATM   13  C   UNL     1      43.999 -15.611   7.272  1.00  0.00     0.037 A 
HETATM   14  C   UNL     1      44.384 -14.370   6.771  1.00  0.00     0.068 A 
HETATM   15  C   UNL     1      43.560 -13.717   5.851  1.00  0.00     0.037 A 
HETATM   16  C   UNL     1      42.375 -14.309   5.405  1.00  0.00     0.011 A 
BRANCH  14  17
HETATM   17  O   UNL     1      45.525 -13.695   7.106  1.00  0.00    -0.356 OA
HETATM   18  C   UNL     1      45.439 -12.830   8.235  1.00  0.00     0.210 C 
ENDBRANCH  14  17
ENDBRANCH  10  11
ENDBRANCH   8  10
ENDBRANCH   1   8
BRANCH   7  19
HETATM   19  C   UNL     1      42.599 -17.425   1.736  1.00  0.00     0.259 C 
HETATM   20  N   UNL     1      42.304 -18.676   2.234  1.00  0.00    -0.320 N 
HETATM   21  H   UNL     1      41.358 -18.892   2.531  1.00  0.00     0.169 HD
HETATM   22  O   UNL     1      43.689 -17.046   1.320  1.00  0.00    -0.267 OA
BRANCH  20  23
HETATM   23  C   UNL     1      43.214 -19.747   2.451  1.00  0.00     0.075 A 
HETATM   24  C   UNL     1      44.146 -19.661   3.494  1.00  0.00     0.152 A 
HETATM   25 CL   UNL     1      44.182 -18.294   4.548  1.00  0.00    -0.060 Cl
HETATM   26  N   UNL     1      45.084 -20.587   3.788  1.00  0.00    -0.247 NA
HETATM   27  C   UNL     1      45.109 -21.678   2.996  1.00  0.00     0.118 A 
HETATM   28  C   UNL     1      44.237 -21.873   1.936  1.00  0.00     0.022 A 
HETATM   29  C   UNL     1      43.276 -20.896   1.664  1.00  0.00     0.034 A 
ENDBRANCH  20  23
ENDBRANCH   7  19
TORSDOF 6
ENDMDL
MODEL 4
REMARK VINA RESULT:      -7.4      2.353      3.781
REMARK  6 active torsions:
REMARK  status: ('A' for Active; 'I' for Inactive)
REMARK    1  A    between atoms: O_2  and  C_3 
REMARK    2  A    between atoms: C_6  and  C_7 
REMARK    3  A    between atoms: C_7  and  N_8 
REMARK    4  A    between atoms: N_8  and  C_9 
REMARK    5  A    between atoms: C_15  and  C_16 
REMARK       I    between atoms: C_16  and  N_17 
REMARK    6  A    between atoms: N_17  and  C_18 
ROOT
HETATM    1  C   UNL     1      44.403 -19.799   3.582  1.00  0.00     0.096 A 
HETATM    2  N   UNL     1      44.538 -21.085   3.211  1.00  0.00    -0.356 N 
HETATM    3  H   UNL     1      44.501 -21.279   2.211  1.00  0.00     0.166 HD
HETATM    4  C   UNL     1      44.651 -22.105   4.073  1.00  0.00     0.089 A 
HETATM    5  C   UNL     1      44.606 -21.866   5.438  1.00  0.00     0.018 A 
HETATM    6  C   UNL     1      44.399 -20.565   5.891  1.00  0.00     0.022 A 
HETATM    7  C   UNL     1      44.259 -19.524   4.966  1.00  0.00     0.070 A 
ENDROOT
BRANCH   1   8
HETATM    8  N   UNL     1      44.269 -18.837   2.579  1.00  0.00    -0.274 NA
HETATM    9  H   UNL     1      45.168 -18.772   2.067  1.00  0.00     0.129 HD
BRANCH   8  10
HETATM   10  C   UNL     1      43.208 -19.022   1.584  1.00  0.00     0.132 C 
BRANCH  10  11
HETATM   11  C   UNL     1      42.344 -17.791   1.501  1.00  0.00    -0.045 A 
HETATM   12  C   UNL     1      41.027 -17.818   1.985  1.00  0.00     0.011 A 
HETATM   13  C   UNL     1      40.230 -16.670   1.967  1.00  0.00     0.037 A 
HETATM   14  C   UNL     1      40.741 -15.475   1.468  1.00  0.00     0.068 A 
HETATM   15  C   UNL     1      42.046 -15.444   0.968  1.00  0.00     0.037 A 
HETATM   16  C   UNL     1      42.850 -16.587   0.994  1.00  0.00     0.011 A 
BRANCH  14  17
HETATM   17  O   UNL     1      40.070 -14.286   1.406  1.00  0.00    -0.356 OA
HETATM   18  C   UNL     1      38.648 -14.364   1.369  1.00  0.00     0.210 C 
ENDBRANCH  14  17
ENDBRANCH  10  11
ENDBRANCH   8  10
ENDBRANCH   1   8
BRANCH   7  19
HETATM   19  C   UNL     1      44.004 -18.120   5.395  1.00  0.00     0.259 C 
HETATM   20  N   UNL     1      42.961 -17.459   4.782  1.00  0.00    -0.320 N 
HETATM   21  H   UNL     1      42.375 -17.949   4.114  1.00  0.00     0.169 HD
HETATM   22  O   UNL     1      44.766 -17.653   6.236  1.00  0.00    -0.267 OA
BRANCH  20  23
HETATM   23  C   UNL     1      42.612 -16.088   4.928  1.00  0.00     0.075 A 
HETATM   24  C   UNL     1      41.460 -15.742   5.647  1.00  0.00     0.152 A 
HETATM   25 CL   UNL     1      40.478 -16.950   6.394  1.00  0.00    -0.060 Cl
HETATM   26  N   UNL     1      40.998 -14.487   5.832  1.00  0.00    -0.247 NA
HETATM   27  C   UNL     1      41.721 -13.499   5.268  1.00  0.00     0.118 A 
HETATM   28  C   UNL     1      42.877 -13.720   4.537  1.00  0.00     0.022 A 
HETATM   29  C   UNL     1      43.329 -15.031   4.368  1.00  0.00     0.034 A 
ENDBRANCH  20  23
ENDBRANCH   7  19
TORSDOF 6
ENDMDL
MODEL 5
REMARK VINA RESULT:      -7.3      2.462      6.492
REMARK  6 active torsions:
REMARK  status: ('A' for Active; 'I' for Inactive)
REMARK    1  A    between atoms: O_2  and  C_3 
REMARK    2  A    between atoms: C_6  and  C_7 
REMARK    3  A    between atoms: C_7  and  N_8 
REMARK    4  A    between atoms: N_8  and  C_9 
REMARK    5  A    between atoms: C_15  and  C_16 
REMARK       I    between atoms: C_16  and  N_17 
REMARK    6  A    between atoms: N_17  and  C_18 
ROOT
HETATM    1  C   UNL     1      42.480 -15.682   5.139  1.00  0.00     0.096 A 
HETATM    2  N   UNL     1      42.682 -14.375   5.387  1.00  0.00    -0.356 N 
HETATM    3  H   UNL     1      42.084 -13.717   4.889  1.00  0.00     0.166 HD
HETATM    4  C   UNL     1      43.649 -13.905   6.188  1.00  0.00     0.089 A 
HETATM    5  C   UNL     1      44.531 -14.785   6.797  1.00  0.00     0.018 A 
HETATM    6  C   UNL     1      44.422 -16.147   6.530  1.00  0.00     0.022 A 
HETATM    7  C   UNL     1      43.418 -16.605   5.669  1.00  0.00     0.070 A 
ENDROOT
BRANCH   1   8
HETATM    8  N   UNL     1      41.451 -16.033   4.264  1.00  0.00    -0.274 NA
HETATM    9  H   UNL     1      40.745 -16.578   4.790  1.00  0.00     0.129 HD
BRANCH   8  10
HETATM   10  C   UNL     1      40.743 -14.954   3.566  1.00  0.00     0.132 C 
BRANCH  10  11
HETATM   11  C   UNL     1      40.823 -15.151   2.074  1.00  0.00    -0.045 A 
HETATM   12  C   UNL     1      40.413 -14.128   1.205  1.00  0.00     0.011 A 
HETATM   13  C   UNL     1      40.532 -14.271  -0.180  1.00  0.00     0.037 A 
HETATM   14  C   UNL     1      41.068 -15.440  -0.717  1.00  0.00     0.068 A 
HETATM   15  C   UNL     1      41.462 -16.469   0.142  1.00  0.00     0.037 A 
HETATM   16  C   UNL     1      41.355 -16.325   1.528  1.00  0.00     0.011 A 
BRANCH  14  17
HETATM   17  O   UNL     1      41.247 -15.696  -2.047  1.00  0.00    -0.356 OA
HETATM   18  C   UNL     1      40.205 -15.269  -2.919  1.00  0.00     0.210 C 
ENDBRANCH  14  17
ENDBRANCH  10  11
ENDBRANCH   8  10
ENDBRANCH   1   8
BRANCH   7  19
HETATM   19  C   UNL     1      43.277 -18.048   5.322  1.00  0.00     0.259 C 
HETATM   20  N   UNL     1      44.419 -18.711   4.930  1.00  0.00    -0.320 N 
HETATM   21  H   UNL     1      45.312 -18.230   4.942  1.00  0.00     0.169 HD
HETATM   22  O   UNL     1      42.145 -18.520   5.381  1.00  0.00    -0.267 OA
BRANCH  20  23
HETATM   23  C   UNL     1      44.509 -20.040   4.431  1.00  0.00     0.075 A 
HETATM   24  C   UNL     1      44.306 -20.280   3.065  1.00  0.00     0.152 A 
HETATM   25 CL   UNL     1      43.989 -18.984   1.970  1.00  0.00    -0.060 Cl
HETATM   26  N   UNL     1      44.330 -21.491   2.469  1.00  0.00    -0.247 NA
HETATM   27  C   UNL     1      44.570 -22.545   3.275  1.00  0.00     0.118 A 
HETATM   28  C   UNL     1      44.787 -22.430   4.639  1.00  0.00     0.022 A 
HETATM   29  C   UNL     1      44.759 -21.161   5.222  1.00  0.00     0.034 A 
ENDBRANCH  20  23
ENDBRANCH   7  19
TORSDOF 6
ENDMDL
MODEL 6
REMARK VINA RESULT:      -7.2      2.994      6.154
REMARK  6 active torsions:
REMARK  status: ('A' for Active; 'I' for Inactive)
REMARK    1  A    between atoms: O_2  and  C_3 
REMARK    2  A    between atoms: C_6  and  C_7 
REMARK    3  A    between atoms: C_7  and  N_8 
REMARK    4  A    between atoms: N_8  and  C_9 
REMARK    5  A    between atoms: C_15  and  C_16 
REMARK       I    between atoms: C_16  and  N_17 
REMARK    6  A    between atoms: N_17  and  C_18 
ROOT
HETATM    1  C   UNL     1      40.909 -16.120   3.443  1.00  0.00     0.096 A 
HETATM    2  N   UNL     1      40.964 -16.276   4.778  1.00  0.00    -0.356 N 
HETATM    3  H   UNL     1      41.333 -17.162   5.121  1.00  0.00     0.166 HD
HETATM    4  C   UNL     1      40.511 -15.371   5.657  1.00  0.00     0.089 A 
HETATM    5  C   UNL     1      39.919 -14.202   5.202  1.00  0.00     0.018 A 
HETATM    6  C   UNL     1      39.767 -14.007   3.832  1.00  0.00     0.022 A 
HETATM    7  C   UNL     1      40.228 -14.982   2.939  1.00  0.00     0.070 A 
ENDROOT
BRANCH   1   8
HETATM    8  N   UNL     1      41.396 -17.154   2.641  1.00  0.00    -0.274 NA
HETATM    9  H   UNL     1      40.942 -17.090   1.712  1.00  0.00     0.129 HD
BRANCH   8  10
HETATM   10  C   UNL     1      42.844 -17.230   2.419  1.00  0.00     0.132 C 
BRANCH  10  11
HETATM   11  C   UNL     1      43.360 -18.601   2.773  1.00  0.00    -0.045 A 
HETATM   12  C   UNL     1      43.292 -19.644   1.837  1.00  0.00     0.011 A 
HETATM   13  C   UNL     1      43.816 -20.906   2.128  1.00  0.00     0.037 A 
HETATM   14  C   UNL     1      44.421 -21.143   3.359  1.00  0.00     0.068 A 
HETATM   15  C   UNL     1      44.477 -20.114   4.304  1.00  0.00     0.037 A 
HETATM   16  C   UNL     1      43.964 -18.847   4.012  1.00  0.00     0.011 A 
BRANCH  14  17
HETATM   17  O   UNL     1      44.979 -22.325   3.758  1.00  0.00    -0.356 OA
HETATM   18  C   UNL     1      45.184 -22.486   5.159  1.00  0.00     0.210 C 
ENDBRANCH  14  17
ENDBRANCH  10  11
ENDBRANCH   8  10
ENDBRANCH   1   8
BRANCH   7  19
HETATM   19  C   UNL     1      40.062 -14.840   1.465  1.00  0.00     0.259 C 
HETATM   20  N   UNL     1      41.209 -14.875   0.701  1.00  0.00    -0.320 N 
HETATM   21  H   UNL     1      42.106 -15.048   1.143  1.00  0.00     0.169 HD
HETATM   22  O   UNL     1      38.919 -14.670   1.053  1.00  0.00    -0.267 OA
BRANCH  20  23
HETATM   23  C   UNL     1      41.314 -14.632  -0.696  1.00  0.00     0.075 A 
HETATM   24  C   UNL     1      41.747 -13.378  -1.149  1.00  0.00     0.152 A 
HETATM   25 CL   UNL     1      42.193 -12.134  -0.037  1.00  0.00    -0.060 Cl
HETATM   26  N   UNL     1      41.860 -13.006  -2.441  1.00  0.00    -0.247 NA
HETATM   27  C   UNL     1      41.521 -13.935  -3.358  1.00  0.00     0.118 A 
HETATM   28  C   UNL     1      41.082 -15.208  -3.030  1.00  0.00     0.022 A 
HETATM   29  C   UNL     1      40.981 -15.560  -1.682  1.00  0.00     0.034 A 
ENDBRANCH  20  23
ENDBRANCH   7  19
TORSDOF 6
ENDMDL
MODEL 7
REMARK VINA RESULT:      -7.1      1.940      5.372
REMARK  6 active torsions:
REMARK  status: ('A' for Active; 'I' for Inactive)
REMARK    1  A    between atoms: O_2  and  C_3 
REMARK    2  A    between atoms: C_6  and  C_7 
REMARK    3  A    between atoms: C_7  and  N_8 
REMARK    4  A    between atoms: N_8  and  C_9 
REMARK    5  A    between atoms: C_15  and  C_16 
REMARK       I    between atoms: C_16  and  N_17 
REMARK    6  A    between atoms: N_17  and  C_18 
ROOT
HETATM    1  C   UNL     1      42.506 -15.028   1.756  1.00  0.00     0.096 A 
HETATM    2  N   UNL     1      41.608 -14.062   1.488  1.00  0.00    -0.356 N 
HETATM    3  H   UNL     1      41.584 -13.270   2.129  1.00  0.00     0.166 HD
HETATM    4  C   UNL     1      40.723 -14.120   0.483  1.00  0.00     0.089 A 
HETATM    5  C   UNL     1      40.681 -15.237  -0.338  1.00  0.00     0.018 A 
HETATM    6  C   UNL     1      41.536 -16.304  -0.075  1.00  0.00     0.022 A 
HETATM    7  C   UNL     1      42.432 -16.225   0.998  1.00  0.00     0.070 A 
ENDROOT
BRANCH   1   8
HETATM    8  N   UNL     1      43.354 -14.851   2.851  1.00  0.00    -0.274 NA
HETATM    9  H   UNL     1      44.185 -14.318   2.538  1.00  0.00     0.129 HD
BRANCH   8  10
HETATM   10  C   UNL     1      42.816 -14.172   4.035  1.00  0.00     0.132 C 
BRANCH  10  11
HETATM   11  C   UNL     1      42.988 -15.034   5.259  1.00  0.00    -0.045 A 
HETATM   12  C   UNL     1      44.146 -14.921   6.044  1.00  0.00     0.011 A 
HETATM   13  C   UNL     1      44.298 -15.671   7.213  1.00  0.00     0.037 A 
HETATM   14  C   UNL     1      43.290 -16.543   7.617  1.00  0.00     0.068 A 
HETATM   15  C   UNL     1      42.142 -16.674   6.831  1.00  0.00     0.037 A 
HETATM   16  C   UNL     1      41.981 -15.917   5.667  1.00  0.00     0.011 A 
BRANCH  14  17
HETATM   17  O   UNL     1      43.313 -17.320   8.741  1.00  0.00    -0.356 OA
HETATM   18  C   UNL     1      44.122 -18.491   8.684  1.00  0.00     0.210 C 
ENDBRANCH  14  17
ENDBRANCH  10  11
ENDBRANCH   8  10
ENDBRANCH   1   8
BRANCH   7  19
HETATM   19  C   UNL     1      43.347 -17.350   1.344  1.00  0.00     0.259 C 
HETATM   20  N   UNL     1      42.763 -18.508   1.810  1.00  0.00    -0.320 N 
HETATM   21  H   UNL     1      41.752 -18.584   1.851  1.00  0.00     0.169 HD
HETATM   22  O   UNL     1      44.549 -17.140   1.219  1.00  0.00    -0.267 OA
BRANCH  20  23
HETATM   23  C   UNL     1      43.429 -19.656   2.322  1.00  0.00     0.075 A 
HETATM   24  C   UNL     1      44.144 -19.561   3.524  1.00  0.00     0.152 A 
HETATM   25 CL   UNL     1      44.196 -18.083   4.416  1.00  0.00    -0.060 Cl
HETATM   26  N   UNL     1      44.845 -20.559   4.102  1.00  0.00    -0.247 NA
HETATM   27  C   UNL     1      44.845 -21.739   3.450  1.00  0.00     0.118 A 
HETATM   28  C   UNL     1      44.174 -21.952   2.255  1.00  0.00     0.022 A 
HETATM   29  C   UNL     1      43.455 -20.897   1.688  1.00  0.00     0.034 A 
ENDBRANCH  20  23
ENDBRANCH   7  19
TORSDOF 6
ENDMDL
MODEL 8
REMARK VINA RESULT:      -7.1      2.905      6.878
REMARK  6 active torsions:
REMARK  status: ('A' for Active; 'I' for Inactive)
REMARK    1  A    between atoms: O_2  and  C_3 
REMARK    2  A    between atoms: C_6  and  C_7 
REMARK    3  A    between atoms: C_7  and  N_8 
REMARK    4  A    between atoms: N_8  and  C_9 
REMARK    5  A    between atoms: C_15  and  C_16 
REMARK       I    between atoms: C_16  and  N_17 
REMARK    6  A    between atoms: N_17  and  C_18 
ROOT
HETATM    1  C   UNL     1      41.217 -15.101   4.162  1.00  0.00     0.096 A 
HETATM    2  N   UNL     1      41.190 -13.761   4.287  1.00  0.00    -0.356 N 
HETATM    3  H   UNL     1      40.487 -13.264   3.742  1.00  0.00     0.166 HD
HETATM    4  C   UNL     1      42.062 -13.061   5.027  1.00  0.00     0.089 A 
HETATM    5  C   UNL     1      43.083 -13.717   5.698  1.00  0.00     0.018 A 
HETATM    6  C   UNL     1      43.211 -15.096   5.556  1.00  0.00     0.022 A 
HETATM    7  C   UNL     1      42.300 -15.797   4.756  1.00  0.00     0.070 A 
ENDROOT
BRANCH   1   8
HETATM    8  N   UNL     1      40.262 -15.701   3.338  1.00  0.00    -0.274 NA
HETATM    9  H   UNL     1      39.632 -16.271   3.930  1.00  0.00     0.129 HD
BRANCH   8  10
HETATM   10  C   UNL     1      39.422 -14.831   2.510  1.00  0.00     0.132 C 
BRANCH  10  11
HETATM   11  C   UNL     1      39.890 -14.854   1.078  1.00  0.00    -0.045 A 
HETATM   12  C   UNL     1      40.929 -15.713   0.689  1.00  0.00     0.011 A 
HETATM   13  C   UNL     1      41.339 -15.789  -0.645  1.00  0.00     0.037 A 
HETATM   14  C   UNL     1      40.711 -15.008  -1.612  1.00  0.00     0.068 A 
HETATM   15  C   UNL     1      39.687 -14.136  -1.229  1.00  0.00     0.037 A 
HETATM   16  C   UNL     1      39.267 -14.066   0.102  1.00  0.00     0.011 A 
BRANCH  14  17
HETATM   17  O   UNL     1      41.009 -14.999  -2.945  1.00  0.00    -0.356 OA
HETATM   18  C   UNL     1      41.449 -13.757  -3.486  1.00  0.00     0.210 C 
ENDBRANCH  14  17
ENDBRANCH  10  11
ENDBRANCH   8  10
ENDBRANCH   1   8
BRANCH   7  19
HETATM   19  C   UNL     1      42.409 -17.268   4.543  1.00  0.00     0.259 C 
HETATM   20  N   UNL     1      43.480 -17.713   3.798  1.00  0.00    -0.320 N 
HETATM   21  H   UNL     1      44.178 -17.054   3.471  1.00  0.00     0.169 HD
HETATM   22  O   UNL     1      41.516 -17.962   5.020  1.00  0.00    -0.267 OA
BRANCH  20  23
HETATM   23  C   UNL     1      43.721 -19.044   3.355  1.00  0.00     0.075 A 
HETATM   24  C   UNL     1      44.404 -19.937   4.193  1.00  0.00     0.152 A 
HETATM   25 CL   UNL     1      44.922 -19.462   5.770  1.00  0.00    -0.060 Cl
HETATM   26  N   UNL     1      44.726 -21.211   3.885  1.00  0.00    -0.247 NA
HETATM   27  C   UNL     1      44.351 -21.640   2.663  1.00  0.00     0.118 A 
HETATM   28  C   UNL     1      43.670 -20.847   1.751  1.00  0.00     0.022 A 
HETATM   29  C   UNL     1      43.349 -19.534   2.105  1.00  0.00     0.034 A 
ENDBRANCH  20  23
ENDBRANCH   7  19
TORSDOF 6
ENDMDL
MODEL 9
REMARK VINA RESULT:      -6.9      2.989      6.352
REMARK  6 active torsions:
REMARK  status: ('A' for Active; 'I' for Inactive)
REMARK    1  A    between atoms: O_2  and  C_3 
REMARK    2  A    between atoms: C_6  and  C_7 
REMARK    3  A    between atoms: C_7  and  N_8 
REMARK    4  A    between atoms: N_8  and  C_9 
REMARK    5  A    between atoms: C_15  and  C_16 
REMARK       I    between atoms: C_16  and  N_17 
REMARK    6  A    between atoms: N_17  and  C_18 
ROOT
HETATM    1  C   UNL     1      40.629 -14.784   4.266  1.00  0.00     0.096 A 
HETATM    2  N   UNL     1      40.563 -14.203   5.478  1.00  0.00    -0.356 N 
HETATM    3  H   UNL     1      40.935 -14.736   6.262  1.00  0.00     0.166 HD
HETATM    4  C   UNL     1      39.987 -13.014   5.707  1.00  0.00     0.089 A 
HETATM    5  C   UNL     1      39.391 -12.322   4.663  1.00  0.00     0.018 A 
HETATM    6  C   UNL     1      39.363 -12.898   3.396  1.00  0.00     0.022 A 
HETATM    7  C   UNL     1      39.950 -14.152   3.193  1.00  0.00     0.070 A 
ENDROOT
BRANCH   1   8
HETATM    8  N   UNL     1      41.237 -16.038   4.173  1.00  0.00    -0.274 NA
HETATM    9  H   UNL     1      40.997 -16.450   3.253  1.00  0.00     0.129 HD
BRANCH   8  10
HETATM   10  C   UNL     1      42.693 -16.111   4.323  1.00  0.00     0.132 C 
BRANCH  10  11
HETATM   11  C   UNL     1      43.210 -17.430   3.811  1.00  0.00    -0.045 A 
HETATM   12  C   UNL     1      43.146 -17.729   2.441  1.00  0.00     0.011 A 
HETATM   13  C   UNL     1      43.671 -18.924   1.940  1.00  0.00     0.037 A 
HETATM   14  C   UNL     1      44.274 -19.836   2.803  1.00  0.00     0.068 A 
HETATM   15  C   UNL     1      44.326 -19.552   4.171  1.00  0.00     0.037 A 
HETATM   16  C   UNL     1      43.812 -18.354   4.674  1.00  0.00     0.011 A 
BRANCH  14  17
HETATM   17  O   UNL     1      44.833 -21.028   2.438  1.00  0.00    -0.356 OA
HETATM   18  C   UNL     1      44.021 -21.891   1.647  1.00  0.00     0.210 C 
ENDBRANCH  14  17
ENDBRANCH  10  11
ENDBRANCH   8  10
ENDBRANCH   1   8
BRANCH   7  19
HETATM   19  C   UNL     1      39.921 -14.829   1.865  1.00  0.00     0.259 C 
HETATM   20  N   UNL     1      40.244 -14.063   0.766  1.00  0.00    -0.320 N 
HETATM   21  H   UNL     1      40.540 -13.100   0.890  1.00  0.00     0.169 HD
HETATM   22  O   UNL     1      39.578 -16.007   1.856  1.00  0.00    -0.267 OA
BRANCH  20  23
HETATM   23  C   UNL     1      40.160 -14.448  -0.600  1.00  0.00     0.075 A 
HETATM   24  C   UNL     1      39.062 -14.035  -1.368  1.00  0.00     0.152 A 
HETATM   25 CL   UNL     1      37.830 -13.031  -0.694  1.00  0.00    -0.060 Cl
HETATM   26  N   UNL     1      38.843 -14.355  -2.661  1.00  0.00    -0.247 NA
HETATM   27  C   UNL     1      39.771 -15.142  -3.243  1.00  0.00     0.118 A 
HETATM   28  C   UNL     1      40.897 -15.611  -2.584  1.00  0.00     0.022 A 
HETATM   29  C   UNL     1      41.094 -15.256  -1.247  1.00  0.00     0.034 A 
ENDBRANCH  20  23
ENDBRANCH   7  19
TORSDOF 6
ENDMDL
MODEL 10
REMARK VINA RESULT:      -6.8      2.357      3.421
REMARK  6 active torsions:
REMARK  status: ('A' for Active; 'I' for Inactive)
REMARK    1  A    between atoms: O_2  and  C_3 
REMARK    2  A    between atoms: C_6  and  C_7 
REMARK    3  A    between atoms: C_7  and  N_8 
REMARK    4  A    between atoms: N_8  and  C_9 
REMARK    5  A    between atoms: C_15  and  C_16 
REMARK       I    between atoms: C_16  and  N_17 
REMARK    6  A    between atoms: N_17  and  C_18 
ROOT
HETATM    1  C   UNL     1      41.825 -17.981   4.294  1.00  0.00     0.096 A 
HETATM    2  N   UNL     1      42.713 -18.625   5.073  1.00  0.00    -0.356 N 
HETATM    3  H   UNL     1      42.513 -18.647   6.072  1.00  0.00     0.166 HD
HETATM    4  C   UNL     1      43.851 -19.169   4.619  1.00  0.00     0.089 A 
HETATM    5  C   UNL     1      44.181 -19.062   3.277  1.00  0.00     0.018 A 
HETATM    6  C   UNL     1      43.341 -18.349   2.426  1.00  0.00     0.022 A 
HETATM    7  C   UNL     1      42.172 -17.770   2.934  1.00  0.00     0.070 A 
ENDROOT
BRANCH   1   8
HETATM    8  N   UNL     1      40.690 -17.439   4.901  1.00  0.00    -0.274 NA
HETATM    9  H   UNL     1      40.035 -18.212   5.118  1.00  0.00     0.129 HD
BRANCH   8  10
HETATM   10  C   UNL     1      40.874 -16.659   6.129  1.00  0.00     0.132 C 
BRANCH  10  11
HETATM   11  C   UNL     1      41.084 -15.203   5.802  1.00  0.00    -0.045 A 
HETATM   12  C   UNL     1      42.383 -14.680   5.713  1.00  0.00     0.011 A 
HETATM   13  C   UNL     1      42.598 -13.346   5.355  1.00  0.00     0.037 A 
HETATM   14  C   UNL     1      41.515 -12.516   5.075  1.00  0.00     0.068 A 
HETATM   15  C   UNL     1      40.218 -13.025   5.179  1.00  0.00     0.037 A 
HETATM   16  C   UNL     1      39.999 -14.362   5.525  1.00  0.00     0.011 A 
BRANCH  14  17
HETATM   17  O   UNL     1      41.593 -11.203   4.705  1.00  0.00    -0.356 OA
HETATM   18  C   UNL     1      40.417 -10.636   4.136  1.00  0.00     0.210 C 
ENDBRANCH  14  17
ENDBRANCH  10  11
ENDBRANCH   8  10
ENDBRANCH   1   8
BRANCH   7  19
HETATM   19  C   UNL     1      41.253 -16.969   2.077  1.00  0.00     0.259 C 
HETATM   20  N   UNL     1      41.054 -15.653   2.433  1.00  0.00    -0.320 N 
HETATM   21  H   UNL     1      41.566 -15.258   3.215  1.00  0.00     0.169 HD
HETATM   22  O   UNL     1      40.720 -17.558   1.141  1.00  0.00    -0.267 OA
BRANCH  20  23
HETATM   23  C   UNL     1      40.132 -14.739   1.853  1.00  0.00     0.075 A 
HETATM   24  C   UNL     1      40.574 -13.467   1.462  1.00  0.00     0.152 A 
HETATM   25 CL   UNL     1      42.228 -13.006   1.637  1.00  0.00    -0.060 Cl
HETATM   26  N   UNL     1      39.800 -12.496   0.932  1.00  0.00    -0.247 NA
HETATM   27  C   UNL     1      38.495 -12.796   0.775  1.00  0.00     0.118 A 
HETATM   28  C   UNL     1      37.945 -14.020   1.123  1.00  0.00     0.022 A 
HETATM   29  C   UNL     1      38.776 -15.003   1.666  1.00  0.00     0.034 A 
ENDBRANCH  20  23
ENDBRANCH   7  19
TORSDOF 6
ENDMDL
