MODEL 1
REMARK VINA RESULT:     -10.3      0.000      0.000
REMARK  4 active torsions:
REMARK  status: ('A' for Active; 'I' for Inactive)
REMARK    1  A    between atoms: C_3  and  C_4 
REMARK    2  A    between atoms: C_4  and  N_5 
REMARK       I    between atoms: N_5  and  C_6 
REMARK       I    between atoms: C_6  and  N_7 
REMARK    3  A    between atoms: N_7  and  C_8 
REMARK    4  A    between atoms: C_16  and  C_17 
ROOT
HETATM    1  C   UNL     1      40.871 -13.233   5.554  1.00  0.00     0.049 C 
HETATM    2  C   UNL     1      41.525 -14.589   5.479  1.00  0.00    -0.054 A 
HETATM    3  C   UNL     1      42.887 -14.791   5.788  1.00  0.00    -0.034 A 
HETATM    4  C   UNL     1      43.403 -16.102   5.787  1.00  0.00     0.023 A 
HETATM    5  C   UNL     1      42.611 -17.189   5.399  1.00  0.00    -0.004 A 
HETATM    6  C   UNL     1      41.263 -16.981   5.102  1.00  0.00     0.014 A 
HETATM    7  C   UNL     1      40.723 -15.696   5.156  1.00  0.00     0.008 A 
ENDROOT
BRANCH   3   8
HETATM    8  C   UNL     1      43.820 -13.643   6.091  1.00  0.00     0.163 C 
BRANCH   8   9
HETATM    9  N   UNL     1      43.485 -12.974   7.324  1.00  0.00    -0.339 N 
HETATM   10  C   UNL     1      44.435 -12.902   8.310  1.00  0.00     0.316 C 
HETATM   11  N   UNL     1      43.913 -12.414   9.480  1.00  0.00    -0.339 N 
HETATM   12  O   UNL     1      45.602 -13.240   8.163  1.00  0.00    -0.247 OA
HETATM   13  H   UNL     1      43.078 -11.854   9.380  1.00  0.00     0.164 HD
HETATM   14  H   UNL     1      42.530 -13.056   7.637  1.00  0.00     0.164 HD
BRANCH  11  15
HETATM   15  C   UNL     1      44.776 -12.131  10.623  1.00  0.00     0.086 C 
HETATM   16  C   UNL     1      45.101 -10.631  10.705  1.00  0.00     0.025 C 
HETATM   17  C   UNL     1      43.903  -9.797  11.158  1.00  0.00     0.002 C 
HETATM   18  C   UNL     1      43.317 -10.316  12.468  1.00  0.00     0.000 C 
HETATM   19  C   UNL     1      42.957 -11.796  12.380  1.00  0.00     0.002 C 
HETATM   20  C   UNL     1      44.146 -12.639  11.924  1.00  0.00     0.025 C 
ENDBRANCH  11  15
ENDBRANCH   8   9
ENDBRANCH   3   8
BRANCH   5  21
HETATM   21  C   UNL     1      43.140 -18.589   5.363  1.00  0.00     0.098 C 
HETATM   22  N   UNL     1      43.244 -19.190   6.512  1.00  0.00    -0.169 NA
HETATM   23  N   UNL     1      43.780 -20.447   6.577  1.00  0.00    -0.238 N 
HETATM   24  C   UNL     1      43.827 -21.064   7.887  1.00  0.00     0.183 C 
HETATM   25  C   UNL     1      44.343 -21.115   5.498  1.00  0.00     0.274 C 
HETATM   26  O   UNL     1      44.912 -22.201   5.583  1.00  0.00    -0.266 OA
HETATM   27  C   UNL     1      44.189 -20.470   4.183  1.00  0.00     0.046 A 
HETATM   28  C   UNL     1      43.531 -19.247   4.089  1.00  0.00     0.011 A 
HETATM   29  C   UNL     1      44.646 -21.128   3.031  1.00  0.00     0.018 A 
HETATM   30  C   UNL     1      43.246 -18.730   2.817  1.00  0.00     0.015 A 
HETATM   31  C   UNL     1      43.701 -19.382   1.667  1.00  0.00     0.001 A 
HETATM   32  C   UNL     1      44.415 -20.574   1.774  1.00  0.00     0.001 A 
ENDBRANCH   5  21
TORSDOF 4
ENDMDL
MODEL 2
REMARK VINA RESULT:      -9.7      4.757      8.191
REMARK  4 active torsions:
REMARK  status: ('A' for Active; 'I' for Inactive)
REMARK    1  A    between atoms: C_3  and  C_4 
REMARK    2  A    between atoms: C_4  and  N_5 
REMARK       I    between atoms: N_5  and  C_6 
REMARK       I    between atoms: C_6  and  N_7 
REMARK    3  A    between atoms: N_7  and  C_8 
REMARK    4  A    between atoms: C_16  and  C_17 
ROOT
HETATM    1  C   UNL     1      41.285 -11.981   3.561  1.00  0.00     0.049 C 
HETATM    2  C   UNL     1      41.655 -13.404   3.889  1.00  0.00    -0.054 A 
HETATM    3  C   UNL     1      40.873 -14.504   3.478  1.00  0.00    -0.034 A 
HETATM    4  C   UNL     1      41.334 -15.809   3.741  1.00  0.00     0.023 A 
HETATM    5  C   UNL     1      42.504 -16.027   4.478  1.00  0.00    -0.004 A 
HETATM    6  C   UNL     1      43.276 -14.933   4.874  1.00  0.00     0.014 A 
HETATM    7  C   UNL     1      42.862 -13.635   4.570  1.00  0.00     0.008 A 
ENDROOT
BRANCH   3   8
HETATM    8  C   UNL     1      39.540 -14.329   2.791  1.00  0.00     0.163 C 
BRANCH   8   9
HETATM    9  N   UNL     1      39.517 -14.924   1.478  1.00  0.00    -0.339 N 
HETATM   10  C   UNL     1      39.694 -14.113   0.387  1.00  0.00     0.316 C 
HETATM   11  N   UNL     1      39.455 -14.783  -0.785  1.00  0.00    -0.339 N 
HETATM   12  O   UNL     1      40.015 -12.934   0.455  1.00  0.00    -0.247 OA
HETATM   13  H   UNL     1      39.554 -15.787  -0.737  1.00  0.00     0.164 HD
HETATM   14  H   UNL     1      38.896 -15.709   1.348  1.00  0.00     0.164 HD
BRANCH  11  15
HETATM   15  C   UNL     1      39.711 -14.147  -2.075  1.00  0.00     0.086 C 
HETATM   16  C   UNL     1      40.647 -15.010  -2.934  1.00  0.00     0.025 C 
HETATM   17  C   UNL     1      39.958 -16.264  -3.472  1.00  0.00     0.002 C 
HETATM   18  C   UNL     1      38.669 -15.925  -4.215  1.00  0.00     0.000 C 
HETATM   19  C   UNL     1      37.719 -15.100  -3.352  1.00  0.00     0.002 C 
HETATM   20  C   UNL     1      38.398 -13.846  -2.806  1.00  0.00     0.025 C 
ENDBRANCH  11  15
ENDBRANCH   8   9
ENDBRANCH   3   8
BRANCH   5  21
HETATM   21  C   UNL     1      43.003 -17.402   4.794  1.00  0.00     0.098 C 
HETATM   22  N   UNL     1      43.174 -17.672   6.056  1.00  0.00    -0.169 NA
HETATM   23  N   UNL     1      43.689 -18.882   6.429  1.00  0.00    -0.238 N 
HETATM   24  C   UNL     1      43.815 -19.121   7.853  1.00  0.00     0.183 C 
HETATM   25  C   UNL     1      44.165 -19.838   5.542  1.00  0.00     0.274 C 
HETATM   26  O   UNL     1      44.719 -20.880   5.887  1.00  0.00    -0.266 OA
HETATM   27  C   UNL     1      43.934 -19.571   4.112  1.00  0.00     0.046 A 
HETATM   28  C   UNL     1      43.294 -18.396   3.727  1.00  0.00     0.011 A 
HETATM   29  C   UNL     1      44.299 -20.532   3.160  1.00  0.00     0.018 A 
HETATM   30  C   UNL     1      42.933 -18.233   2.383  1.00  0.00     0.015 A 
HETATM   31  C   UNL     1      43.296 -19.190   1.430  1.00  0.00     0.001 A 
HETATM   32  C   UNL     1      43.993 -20.333   1.815  1.00  0.00     0.001 A 
ENDBRANCH   5  21
TORSDOF 4
ENDMDL
MODEL 3
REMARK VINA RESULT:      -9.4      4.145      6.959
REMARK  4 active torsions:
REMARK  status: ('A' for Active; 'I' for Inactive)
REMARK    1  A    between atoms: C_3  and  C_4 
REMARK    2  A    between atoms: C_4  and  N_5 
REMARK       I    between atoms: N_5  and  C_6 
REMARK       I    between atoms: C_6  and  N_7 
REMARK    3  A    between atoms: N_7  and  C_8 
REMARK    4  A    between atoms: C_16  and  C_17 
ROOT
HETATM    1  C   UNL     1      40.204 -12.872   5.393  1.00  0.00     0.049 C 
HETATM    2  C   UNL     1      40.911 -14.198   5.281  1.00  0.00    -0.054 A 
HETATM    3  C   UNL     1      42.131 -14.349   4.588  1.00  0.00    -0.034 A 
HETATM    4  C   UNL     1      42.780 -15.600   4.608  1.00  0.00     0.023 A 
HETATM    5  C   UNL     1      42.192 -16.709   5.226  1.00  0.00    -0.004 A 
HETATM    6  C   UNL     1      40.988 -16.548   5.916  1.00  0.00     0.014 A 
HETATM    7  C   UNL     1      40.362 -15.302   5.954  1.00  0.00     0.008 A 
ENDROOT
BRANCH   3   8
HETATM    8  C   UNL     1      42.751 -13.222   3.799  1.00  0.00     0.163 C 
BRANCH   8   9
HETATM    9  N   UNL     1      42.759 -13.484   2.381  1.00  0.00    -0.339 N 
HETATM   10  C   UNL     1      41.746 -12.970   1.613  1.00  0.00     0.316 C 
HETATM   11  N   UNL     1      41.783 -13.460   0.334  1.00  0.00    -0.339 N 
HETATM   12  O   UNL     1      40.909 -12.177   2.025  1.00  0.00    -0.247 OA
HETATM   13  H   UNL     1      42.683 -13.799   0.026  1.00  0.00     0.164 HD
HETATM   14  H   UNL     1      43.123 -14.378   2.089  1.00  0.00     0.164 HD
BRANCH  11  15
HETATM   15  C   UNL     1      40.877 -12.947  -0.690  1.00  0.00     0.086 C 
HETATM   16  C   UNL     1      41.657 -12.234  -1.805  1.00  0.00     0.025 C 
HETATM   17  C   UNL     1      42.423 -13.209  -2.699  1.00  0.00     0.002 C 
HETATM   18  C   UNL     1      41.510 -14.296  -3.260  1.00  0.00     0.000 C 
HETATM   19  C   UNL     1      40.762 -15.032  -2.154  1.00  0.00     0.002 C 
HETATM   20  C   UNL     1      39.995 -14.067  -1.252  1.00  0.00     0.025 C 
ENDBRANCH  11  15
ENDBRANCH   8   9
ENDBRANCH   3   8
BRANCH   5  21
HETATM   21  C   UNL     1      42.846 -18.055   5.240  1.00  0.00     0.098 C 
HETATM   22  N   UNL     1      43.062 -18.573   6.414  1.00  0.00    -0.169 NA
HETATM   23  N   UNL     1      43.714 -19.770   6.520  1.00  0.00    -0.238 N 
HETATM   24  C   UNL     1      43.884 -20.300   7.858  1.00  0.00     0.183 C 
HETATM   25  C   UNL     1      44.283 -20.450   5.451  1.00  0.00     0.274 C 
HETATM   26  O   UNL     1      44.954 -21.474   5.566  1.00  0.00    -0.266 OA
HETATM   27  C   UNL     1      44.005 -19.904   4.111  1.00  0.00     0.046 A 
HETATM   28  C   UNL     1      43.232 -18.753   3.985  1.00  0.00     0.011 A 
HETATM   29  C   UNL     1      44.463 -20.587   2.976  1.00  0.00     0.018 A 
HETATM   30  C   UNL     1      42.837 -18.341   2.704  1.00  0.00     0.015 A 
HETATM   31  C   UNL     1      43.293 -19.020   1.570  1.00  0.00     0.001 A 
HETATM   32  C   UNL     1      44.119 -20.133   1.704  1.00  0.00     0.001 A 
ENDBRANCH   5  21
TORSDOF 4
ENDMDL
MODEL 4
REMARK VINA RESULT:      -9.4      3.166      6.073
REMARK  4 active torsions:
REMARK  status: ('A' for Active; 'I' for Inactive)
REMARK    1  A    between atoms: C_3  and  C_4 
REMARK    2  A    between atoms: C_4  and  N_5 
REMARK       I    between atoms: N_5  and  C_6 
REMARK       I    between atoms: C_6  and  N_7 
REMARK    3  A    between atoms: N_7  and  C_8 
REMARK    4  A    between atoms: C_16  and  C_17 
ROOT
HETATM    1  C   UNL     1      44.138 -19.102   6.104  1.00  0.00     0.049 C 
HETATM    2  C   UNL     1      43.346 -18.018   5.421  1.00  0.00    -0.054 A 
HETATM    3  C   UNL     1      43.587 -16.646   5.647  1.00  0.00    -0.034 A 
HETATM    4  C   UNL     1      42.869 -15.691   4.901  1.00  0.00     0.023 A 
HETATM    5  C   UNL     1      41.864 -16.080   4.007  1.00  0.00    -0.004 A 
HETATM    6  C   UNL     1      41.638 -17.440   3.783  1.00  0.00     0.014 A 
HETATM    7  C   UNL     1      42.381 -18.398   4.473  1.00  0.00     0.008 A 
ENDROOT
BRANCH   3   8
HETATM    8  C   UNL     1      44.569 -16.165   6.688  1.00  0.00     0.163 C 
BRANCH   8   9
HETATM    9  N   UNL     1      44.011 -15.143   7.539  1.00  0.00    -0.339 N 
HETATM   10  C   UNL     1      44.608 -13.909   7.559  1.00  0.00     0.316 C 
HETATM   11  N   UNL     1      44.090 -13.113   8.548  1.00  0.00    -0.339 N 
HETATM   12  O   UNL     1      45.500 -13.566   6.793  1.00  0.00    -0.247 OA
HETATM   13  H   UNL     1      43.160 -13.357   8.856  1.00  0.00     0.164 HD
HETATM   14  H   UNL     1      43.607 -15.451   8.410  1.00  0.00     0.164 HD
BRANCH  11  15
HETATM   15  C   UNL     1      44.488 -11.713   8.666  1.00  0.00     0.086 C 
HETATM   16  C   UNL     1      43.300 -10.841   9.099  1.00  0.00     0.025 C 
HETATM   17  C   UNL     1      42.919 -11.056  10.564  1.00  0.00     0.002 C 
HETATM   18  C   UNL     1      44.117 -10.872  11.491  1.00  0.00     0.000 C 
HETATM   19  C   UNL     1      45.287 -11.764  11.088  1.00  0.00     0.002 C 
HETATM   20  C   UNL     1      45.674 -11.560   9.624  1.00  0.00     0.025 C 
ENDBRANCH  11  15
ENDBRANCH   8   9
ENDBRANCH   3   8
BRANCH   5  21
HETATM   21  C   UNL     1      41.069 -15.087   3.220  1.00  0.00     0.098 C 
HETATM   22  N   UNL     1      41.114 -15.215   1.926  1.00  0.00    -0.169 NA
HETATM   23  N   UNL     1      40.468 -14.310   1.129  1.00  0.00    -0.238 N 
HETATM   24  C   UNL     1      40.535 -14.542  -0.300  1.00  0.00     0.183 C 
HETATM   25  C   UNL     1      39.840 -13.163   1.596  1.00  0.00     0.274 C 
HETATM   26  O   UNL     1      39.349 -12.303   0.868  1.00  0.00    -0.266 OA
HETATM   27  C   UNL     1      39.737 -13.029   3.059  1.00  0.00     0.046 A 
HETATM   28  C   UNL     1      40.280 -14.013   3.880  1.00  0.00     0.011 A 
HETATM   29  C   UNL     1      39.032 -11.948   3.608  1.00  0.00     0.018 A 
HETATM   30  C   UNL     1      40.030 -13.957   5.259  1.00  0.00     0.015 A 
HETATM   31  C   UNL     1      39.328 -12.879   5.809  1.00  0.00     0.001 A 
HETATM   32  C   UNL     1      38.842 -11.866   4.986  1.00  0.00     0.001 A 
ENDBRANCH   5  21
TORSDOF 4
ENDMDL
MODEL 5
REMARK VINA RESULT:      -9.3      2.206      3.638
REMARK  4 active torsions:
REMARK  status: ('A' for Active; 'I' for Inactive)
REMARK    1  A    between atoms: C_3  and  C_4 
REMARK    2  A    between atoms: C_4  and  N_5 
REMARK       I    between atoms: N_5  and  C_6 
REMARK       I    between atoms: C_6  and  N_7 
REMARK    3  A    between atoms: N_7  and  C_8 
REMARK    4  A    between atoms: C_16  and  C_17 
ROOT
HETATM    1  C   UNL     1      39.107 -11.821   4.714  1.00  0.00     0.049 C 
HETATM    2  C   UNL     1      40.099 -12.954   4.670  1.00  0.00    -0.054 A 
HETATM    3  C   UNL     1      41.334 -12.906   5.350  1.00  0.00    -0.034 A 
HETATM    4  C   UNL     1      42.168 -14.042   5.339  1.00  0.00     0.023 A 
HETATM    5  C   UNL     1      41.830 -15.179   4.594  1.00  0.00    -0.004 A 
HETATM    6  C   UNL     1      40.602 -15.220   3.931  1.00  0.00     0.014 A 
HETATM    7  C   UNL     1      39.740 -14.124   3.981  1.00  0.00     0.008 A 
ENDROOT
BRANCH   3   8
HETATM    8  C   UNL     1      41.809 -11.665   6.066  1.00  0.00     0.163 C 
BRANCH   8   9
HETATM    9  N   UNL     1      41.598 -11.737   7.490  1.00  0.00    -0.339 N 
HETATM   10  C   UNL     1      41.841 -10.620   8.248  1.00  0.00     0.316 C 
HETATM   11  N   UNL     1      41.783 -10.896   9.589  1.00  0.00    -0.339 N 
HETATM   12  O   UNL     1      42.088  -9.516   7.780  1.00  0.00    -0.247 OA
HETATM   13  H   UNL     1      41.238 -11.708   9.839  1.00  0.00     0.164 HD
HETATM   14  H   UNL     1      41.798 -12.622   7.932  1.00  0.00     0.164 HD
BRANCH  11  15
HETATM   15  C   UNL     1      41.882  -9.826  10.577  1.00  0.00     0.086 C 
HETATM   16  C   UNL     1      40.857 -10.025  11.704  1.00  0.00     0.025 C 
HETATM   17  C   UNL     1      41.229 -11.180  12.635  1.00  0.00     0.002 C 
HETATM   18  C   UNL     1      42.644 -11.029  13.184  1.00  0.00     0.000 C 
HETATM   19  C   UNL     1      43.670 -10.869  12.067  1.00  0.00     0.002 C 
HETATM   20  C   UNL     1      43.308  -9.720  11.129  1.00  0.00     0.025 C 
ENDBRANCH  11  15
ENDBRANCH   8   9
ENDBRANCH   3   8
BRANCH   5  21
HETATM   21  C   UNL     1      42.708 -16.390   4.544  1.00  0.00     0.098 C 
HETATM   22  N   UNL     1      43.038 -16.807   3.356  1.00  0.00    -0.169 NA
HETATM   23  N   UNL     1      43.783 -17.945   3.217  1.00  0.00    -0.238 N 
HETATM   24  C   UNL     1      44.142 -18.323   1.865  1.00  0.00     0.183 C 
HETATM   25  C   UNL     1      44.137 -18.782   4.266  1.00  0.00     0.274 C 
HETATM   26  O   UNL     1      44.720 -19.855   4.123  1.00  0.00    -0.266 OA
HETATM   27  C   UNL     1      43.815 -18.300   5.620  1.00  0.00     0.046 A 
HETATM   28  C   UNL     1      43.167 -17.078   5.779  1.00  0.00     0.011 A 
HETATM   29  C   UNL     1      44.225 -19.043   6.737  1.00  0.00     0.018 A 
HETATM   30  C   UNL     1      43.017 -16.556   7.071  1.00  0.00     0.015 A 
HETATM   31  C   UNL     1      43.424 -17.295   8.187  1.00  0.00     0.001 A 
HETATM   32  C   UNL     1      44.014 -18.546   8.021  1.00  0.00     0.001 A 
ENDBRANCH   5  21
TORSDOF 4
ENDMDL
MODEL 6
REMARK VINA RESULT:      -9.3      2.014      2.661
REMARK  4 active torsions:
REMARK  status: ('A' for Active; 'I' for Inactive)
REMARK    1  A    between atoms: C_3  and  C_4 
REMARK    2  A    between atoms: C_4  and  N_5 
REMARK       I    between atoms: N_5  and  C_6 
REMARK       I    between atoms: C_6  and  N_7 
REMARK    3  A    between atoms: N_7  and  C_8 
REMARK    4  A    between atoms: C_16  and  C_17 
ROOT
HETATM    1  C   UNL     1      39.097 -11.816   3.588  1.00  0.00     0.049 C 
HETATM    2  C   UNL     1      39.977 -12.984   3.951  1.00  0.00    -0.054 A 
HETATM    3  C   UNL     1      40.972 -12.901   4.948  1.00  0.00    -0.034 A 
HETATM    4  C   UNL     1      41.691 -14.061   5.298  1.00  0.00     0.023 A 
HETATM    5  C   UNL     1      41.494 -15.267   4.614  1.00  0.00    -0.004 A 
HETATM    6  C   UNL     1      40.501 -15.341   3.634  1.00  0.00     0.014 A 
HETATM    7  C   UNL     1      39.742 -14.215   3.317  1.00  0.00     0.008 A 
ENDROOT
BRANCH   3   8
HETATM    8  C   UNL     1      41.316 -11.600   5.633  1.00  0.00     0.163 C 
BRANCH   8   9
HETATM    9  N   UNL     1      41.444 -11.748   7.061  1.00  0.00    -0.339 N 
HETATM   10  C   UNL     1      41.914 -10.687   7.792  1.00  0.00     0.316 C 
HETATM   11  N   UNL     1      42.162 -11.039   9.093  1.00  0.00    -0.339 N 
HETATM   12  O   UNL     1      42.098  -9.567   7.333  1.00  0.00    -0.247 OA
HETATM   13  H   UNL     1      41.653 -11.845   9.427  1.00  0.00     0.164 HD
HETATM   14  H   UNL     1      41.700 -12.664   7.399  1.00  0.00     0.164 HD
BRANCH  11  15
HETATM   15  C   UNL     1      42.544 -10.033  10.080  1.00  0.00     0.086 C 
HETATM   16  C   UNL     1      41.497  -9.940  11.200  1.00  0.00     0.025 C 
HETATM   17  C   UNL     1      41.531 -11.149  12.135  1.00  0.00     0.002 C 
HETATM   18  C   UNL     1      42.930 -11.389  12.694  1.00  0.00     0.000 C 
HETATM   19  C   UNL     1      43.968 -11.521  11.585  1.00  0.00     0.002 C 
HETATM   20  C   UNL     1      43.940 -10.320  10.642  1.00  0.00     0.025 C 
ENDBRANCH  11  15
ENDBRANCH   8   9
ENDBRANCH   3   8
BRANCH   5  21
HETATM   21  C   UNL     1      42.260 -16.508   4.947  1.00  0.00     0.098 C 
HETATM   22  N   UNL     1      42.539 -16.687   6.205  1.00  0.00    -0.169 NA
HETATM   23  N   UNL     1      43.293 -17.762   6.589  1.00  0.00    -0.238 N 
HETATM   24  C   UNL     1      43.530 -17.913   8.010  1.00  0.00     0.183 C 
HETATM   25  C   UNL     1      43.900 -18.647   5.708  1.00  0.00     0.274 C 
HETATM   26  O   UNL     1      44.658 -19.551   6.055  1.00  0.00    -0.266 OA
HETATM   27  C   UNL     1      43.554 -18.488   4.285  1.00  0.00     0.046 A 
HETATM   28  C   UNL     1      42.684 -17.473   3.898  1.00  0.00     0.011 A 
HETATM   29  C   UNL     1      44.050 -19.403   3.345  1.00  0.00     0.018 A 
HETATM   30  C   UNL     1      42.235 -17.438   2.571  1.00  0.00     0.015 A 
HETATM   31  C   UNL     1      42.728 -18.349   1.631  1.00  0.00     0.001 A 
HETATM   32  C   UNL     1      43.648 -19.322   2.014  1.00  0.00     0.001 A 
ENDBRANCH   5  21
TORSDOF 4
ENDMDL
MODEL 7
REMARK VINA RESULT:      -9.2      3.392      5.602
REMARK  4 active torsions:
REMARK  status: ('A' for Active; 'I' for Inactive)
REMARK    1  A    between atoms: C_3  and  C_4 
REMARK    2  A    between atoms: C_4  and  N_5 
REMARK       I    between atoms: N_5  and  C_6 
REMARK       I    between atoms: C_6  and  N_7 
REMARK    3  A    between atoms: N_7  and  C_8 
REMARK    4  A    between atoms: C_16  and  C_17 
ROOT
HETATM    1  C   UNL     1      44.259 -19.092   5.659  1.00  0.00     0.049 C 
HETATM    2  C   UNL     1      43.413 -17.963   5.130  1.00  0.00    -0.054 A 
HETATM    3  C   UNL     1      43.583 -16.627   5.550  1.00  0.00    -0.034 A 
HETATM    4  C   UNL     1      42.818 -15.614   4.939  1.00  0.00     0.023 A 
HETATM    5  C   UNL     1      41.835 -15.923   3.991  1.00  0.00    -0.004 A 
HETATM    6  C   UNL     1      41.679 -17.247   3.575  1.00  0.00     0.014 A 
HETATM    7  C   UNL     1      42.471 -18.254   4.129  1.00  0.00     0.008 A 
ENDROOT
BRANCH   3   8
HETATM    8  C   UNL     1      44.537 -16.249   6.657  1.00  0.00     0.163 C 
BRANCH   8   9
HETATM    9  N   UNL     1      44.002 -15.223   7.517  1.00  0.00    -0.339 N 
HETATM   10  C   UNL     1      44.601 -13.990   7.519  1.00  0.00     0.316 C 
HETATM   11  N   UNL     1      44.108 -13.190   8.517  1.00  0.00    -0.339 N 
HETATM   12  O   UNL     1      45.474 -13.651   6.730  1.00  0.00    -0.247 OA
HETATM   13  H   UNL     1      43.186 -13.431   8.848  1.00  0.00     0.164 HD
HETATM   14  H   UNL     1      43.618 -15.528   8.398  1.00  0.00     0.164 HD
BRANCH  11  15
HETATM   15  C   UNL     1      44.511 -11.790   8.620  1.00  0.00     0.086 C 
HETATM   16  C   UNL     1      43.329 -10.911   9.056  1.00  0.00     0.025 C 
HETATM   17  C   UNL     1      42.960 -11.113  10.526  1.00  0.00     0.002 C 
HETATM   18  C   UNL     1      44.166 -10.925  11.441  1.00  0.00     0.000 C 
HETATM   19  C   UNL     1      45.330 -11.824  11.035  1.00  0.00     0.002 C 
HETATM   20  C   UNL     1      45.705 -11.633   9.568  1.00  0.00     0.025 C 
ENDBRANCH  11  15
ENDBRANCH   8   9
ENDBRANCH   3   8
BRANCH   5  21
HETATM   21  C   UNL     1      40.990 -14.870   3.345  1.00  0.00     0.098 C 
HETATM   22  N   UNL     1      40.393 -14.042   4.152  1.00  0.00    -0.169 NA
HETATM   23  N   UNL     1      39.550 -13.090   3.649  1.00  0.00    -0.238 N 
HETATM   24  C   UNL     1      38.951 -12.183   4.608  1.00  0.00     0.183 C 
HETATM   25  C   UNL     1      39.178 -12.999   2.315  1.00  0.00     0.274 C 
HETATM   26  O   UNL     1      38.343 -12.205   1.886  1.00  0.00    -0.266 OA
HETATM   27  C   UNL     1      39.883 -13.895   1.381  1.00  0.00     0.046 A 
HETATM   28  C   UNL     1      40.838 -14.782   1.869  1.00  0.00     0.011 A 
HETATM   29  C   UNL     1      39.633 -13.797   0.005  1.00  0.00     0.018 A 
HETATM   30  C   UNL     1      41.616 -15.507   0.955  1.00  0.00     0.015 A 
HETATM   31  C   UNL     1      41.369 -15.411  -0.419  1.00  0.00     0.001 A 
HETATM   32  C   UNL     1      40.367 -14.568  -0.894  1.00  0.00     0.001 A 
ENDBRANCH   5  21
TORSDOF 4
ENDMDL
MODEL 8
REMARK VINA RESULT:      -8.8      3.846      4.897
REMARK  4 active torsions:
REMARK  status: ('A' for Active; 'I' for Inactive)
REMARK    1  A    between atoms: C_3  and  C_4 
REMARK    2  A    between atoms: C_4  and  N_5 
REMARK       I    between atoms: N_5  and  C_6 
REMARK       I    between atoms: C_6  and  N_7 
REMARK    3  A    between atoms: N_7  and  C_8 
REMARK    4  A    between atoms: C_16  and  C_17 
ROOT
HETATM    1  C   UNL     1      39.448 -13.973   0.446  1.00  0.00     0.049 C 
HETATM    2  C   UNL     1      40.276 -14.837   1.361  1.00  0.00    -0.054 A 
HETATM    3  C   UNL     1      41.449 -14.368   1.989  1.00  0.00    -0.034 A 
HETATM    4  C   UNL     1      42.119 -15.204   2.905  1.00  0.00     0.023 A 
HETATM    5  C   UNL     1      41.688 -16.516   3.132  1.00  0.00    -0.004 A 
HETATM    6  C   UNL     1      40.522 -16.970   2.512  1.00  0.00     0.014 A 
HETATM    7  C   UNL     1      39.816 -16.133   1.647  1.00  0.00     0.008 A 
ENDROOT
BRANCH   3   8
HETATM    8  C   UNL     1      42.032 -13.008   1.688  1.00  0.00     0.163 C 
BRANCH   8   9
HETATM    9  N   UNL     1      42.056 -12.152   2.848  1.00  0.00    -0.339 N 
HETATM   10  C   UNL     1      41.095 -11.181   2.968  1.00  0.00     0.316 C 
HETATM   11  N   UNL     1      41.361 -10.333   4.011  1.00  0.00    -0.339 N 
HETATM   12  O   UNL     1      40.126 -11.082   2.226  1.00  0.00    -0.247 OA
HETATM   13  H   UNL     1      41.953 -10.712   4.736  1.00  0.00     0.164 HD
HETATM   14  H   UNL     1      42.965 -11.921   3.221  1.00  0.00     0.164 HD
BRANCH  11  15
HETATM   15  C   UNL     1      40.400  -9.304   4.401  1.00  0.00     0.086 C 
HETATM   16  C   UNL     1      40.138  -9.346   5.914  1.00  0.00     0.025 C 
HETATM   17  C   UNL     1      41.321  -8.822   6.728  1.00  0.00     0.002 C 
HETATM   18  C   UNL     1      41.747  -7.430   6.271  1.00  0.00     0.000 C 
HETATM   19  C   UNL     1      42.046  -7.392   4.776  1.00  0.00     0.002 C 
HETATM   20  C   UNL     1      40.872  -7.917   3.952  1.00  0.00     0.025 C 
ENDBRANCH  11  15
ENDBRANCH   8   9
ENDBRANCH   3   8
BRANCH   5  21
HETATM   21  C   UNL     1      42.394 -17.435   4.080  1.00  0.00     0.098 C 
HETATM   22  N   UNL     1      42.352 -17.102   5.336  1.00  0.00    -0.169 NA
HETATM   23  N   UNL     1      43.026 -17.850   6.262  1.00  0.00    -0.238 N 
HETATM   24  C   UNL     1      42.900 -17.436   7.645  1.00  0.00     0.183 C 
HETATM   25  C   UNL     1      43.871 -18.906   5.950  1.00  0.00     0.274 C 
HETATM   26  O   UNL     1      44.551 -19.510   6.777  1.00  0.00    -0.266 OA
HETATM   27  C   UNL     1      43.890 -19.328   4.539  1.00  0.00     0.046 A 
HETATM   28  C   UNL     1      43.107 -18.651   3.608  1.00  0.00     0.011 A 
HETATM   29  C   UNL     1      44.644 -20.448   4.160  1.00  0.00     0.018 A 
HETATM   30  C   UNL     1      43.008 -19.165   2.307  1.00  0.00     0.015 A 
HETATM   31  C   UNL     1      43.759 -20.282   1.927  1.00  0.00     0.001 A 
HETATM   32  C   UNL     1      44.590 -20.915   2.849  1.00  0.00     0.001 A 
ENDBRANCH   5  21
TORSDOF 4
ENDMDL
MODEL 9
REMARK VINA RESULT:      -8.3      6.159      9.212
REMARK  4 active torsions:
REMARK  status: ('A' for Active; 'I' for Inactive)
REMARK    1  A    between atoms: C_3  and  C_4 
REMARK    2  A    between atoms: C_4  and  N_5 
REMARK       I    between atoms: N_5  and  C_6 
REMARK       I    between atoms: C_6  and  N_7 
REMARK    3  A    between atoms: N_7  and  C_8 
REMARK    4  A    between atoms: C_16  and  C_17 
ROOT
HETATM    1  C   UNL     1      38.499 -11.149   4.666  1.00  0.00     0.049 C 
HETATM    2  C   UNL     1      38.787 -11.729   3.306  1.00  0.00    -0.054 A 
HETATM    3  C   UNL     1      39.268 -13.044   3.129  1.00  0.00    -0.034 A 
HETATM    4  C   UNL     1      39.423 -13.548   1.823  1.00  0.00     0.023 A 
HETATM    5  C   UNL     1      39.192 -12.739   0.704  1.00  0.00    -0.004 A 
HETATM    6  C   UNL     1      38.709 -11.441   0.888  1.00  0.00     0.014 A 
HETATM    7  C   UNL     1      38.496 -10.948   2.175  1.00  0.00     0.008 A 
ENDROOT
BRANCH   3   8
HETATM    8  C   UNL     1      39.652 -13.921   4.296  1.00  0.00     0.163 C 
BRANCH   8   9
HETATM    9  N   UNL     1      40.286 -15.147   3.876  1.00  0.00    -0.339 N 
HETATM   10  C   UNL     1      41.656 -15.202   3.854  1.00  0.00     0.316 C 
HETATM   11  N   UNL     1      42.106 -16.350   3.255  1.00  0.00    -0.339 N 
HETATM   12  O   UNL     1      42.385 -14.328   4.306  1.00  0.00    -0.247 OA
HETATM   13  H   UNL     1      41.454 -17.121   3.255  1.00  0.00     0.164 HD
HETATM   14  H   UNL     1      39.812 -15.680   3.163  1.00  0.00     0.164 HD
BRANCH  11  15
HETATM   15  C   UNL     1      43.529 -16.677   3.240  1.00  0.00     0.086 C 
HETATM   16  C   UNL     1      43.821 -17.893   4.132  1.00  0.00     0.025 C 
HETATM   17  C   UNL     1      43.317 -19.201   3.522  1.00  0.00     0.002 C 
HETATM   18  C   UNL     1      43.848 -19.404   2.106  1.00  0.00     0.000 C 
HETATM   19  C   UNL     1      43.527 -18.216   1.206  1.00  0.00     0.002 C 
HETATM   20  C   UNL     1      44.023 -16.903   1.807  1.00  0.00     0.025 C 
ENDBRANCH  11  15
ENDBRANCH   8   9
ENDBRANCH   3   8
BRANCH   5  21
HETATM   21  C   UNL     1      39.374 -13.239  -0.695  1.00  0.00     0.098 C 
HETATM   22  N   UNL     1      38.351 -13.848  -1.221  1.00  0.00    -0.169 NA
HETATM   23  N   UNL     1      38.453 -14.394  -2.471  1.00  0.00    -0.238 N 
HETATM   24  C   UNL     1      37.260 -15.022  -3.002  1.00  0.00     0.183 C 
HETATM   25  C   UNL     1      39.629 -14.453  -3.206  1.00  0.00     0.274 C 
HETATM   26  O   UNL     1      39.737 -15.033  -4.284  1.00  0.00    -0.266 OA
HETATM   27  C   UNL     1      40.782 -13.726  -2.647  1.00  0.00     0.046 A 
HETATM   28  C   UNL     1      40.651 -13.057  -1.433  1.00  0.00     0.011 A 
HETATM   29  C   UNL     1      41.978 -13.658  -3.377  1.00  0.00     0.018 A 
HETATM   30  C   UNL     1      41.700 -12.236  -0.998  1.00  0.00     0.015 A 
HETATM   31  C   UNL     1      42.894 -12.166  -1.723  1.00  0.00     0.001 A 
HETATM   32  C   UNL     1      43.040 -12.889  -2.905  1.00  0.00     0.001 A 
ENDBRANCH   5  21
TORSDOF 4
ENDMDL
MODEL 10
REMARK VINA RESULT:      -8.1      2.616      3.378
REMARK  4 active torsions:
REMARK  status: ('A' for Active; 'I' for Inactive)
REMARK    1  A    between atoms: C_3  and  C_4 
REMARK    2  A    between atoms: C_4  and  N_5 
REMARK       I    between atoms: N_5  and  C_6 
REMARK       I    between atoms: C_6  and  N_7 
REMARK    3  A    between atoms: N_7  and  C_8 
REMARK    4  A    between atoms: C_16  and  C_17 
ROOT
HETATM    1  C   UNL     1      42.895 -12.446   6.519  1.00  0.00     0.049 C 
HETATM    2  C   UNL     1      42.992 -13.938   6.335  1.00  0.00    -0.054 A 
HETATM    3  C   UNL     1      41.909 -14.716   5.875  1.00  0.00    -0.034 A 
HETATM    4  C   UNL     1      42.104 -16.092   5.638  1.00  0.00     0.023 A 
HETATM    5  C   UNL     1      43.325 -16.709   5.935  1.00  0.00    -0.004 A 
HETATM    6  C   UNL     1      44.394 -15.930   6.383  1.00  0.00     0.014 A 
HETATM    7  C   UNL     1      44.232 -14.556   6.567  1.00  0.00     0.008 A 
ENDROOT
BRANCH   3   8
HETATM    8  C   UNL     1      40.535 -14.130   5.656  1.00  0.00     0.163 C 
BRANCH   8   9
HETATM    9  N   UNL     1      40.024 -13.474   6.834  1.00  0.00    -0.339 N 
HETATM   10  C   UNL     1      39.779 -12.126   6.780  1.00  0.00     0.316 C 
HETATM   11  N   UNL     1      39.485 -11.616   8.018  1.00  0.00    -0.339 N 
HETATM   12  O   UNL     1      39.826 -11.462   5.753  1.00  0.00    -0.247 OA
HETATM   13  H   UNL     1      39.133 -12.283   8.688  1.00  0.00     0.164 HD
HETATM   14  H   UNL     1      40.343 -13.829   7.723  1.00  0.00     0.164 HD
BRANCH  11  15
HETATM   15  C   UNL     1      39.063 -10.226   8.172  1.00  0.00     0.086 C 
HETATM   16  C   UNL     1      38.445  -9.993   9.559  1.00  0.00     0.025 C 
HETATM   17  C   UNL     1      39.490 -10.001  10.675  1.00  0.00     0.002 C 
HETATM   18  C   UNL     1      40.622  -9.018  10.393  1.00  0.00     0.000 C 
HETATM   19  C   UNL     1      41.265  -9.269   9.033  1.00  0.00     0.002 C 
HETATM   20  C   UNL     1      40.229  -9.267   7.911  1.00  0.00     0.025 C 
ENDBRANCH  11  15
ENDBRANCH   8   9
ENDBRANCH   3   8
BRANCH   5  21
HETATM   21  C   UNL     1      43.553 -18.172   5.718  1.00  0.00     0.098 C 
HETATM   22  N   UNL     1      43.507 -18.921   6.780  1.00  0.00    -0.169 NA
HETATM   23  N   UNL     1      43.769 -20.260   6.681  1.00  0.00    -0.238 N 
HETATM   24  C   UNL     1      43.662 -21.034   7.902  1.00  0.00     0.183 C 
HETATM   25  C   UNL     1      44.203 -20.889   5.522  1.00  0.00     0.274 C 
HETATM   26  O   UNL     1      44.533 -22.072   5.465  1.00  0.00    -0.266 OA
HETATM   27  C   UNL     1      44.212 -20.067   4.300  1.00  0.00     0.046 A 
HETATM   28  C   UNL     1      43.824 -18.732   4.367  1.00  0.00     0.011 A 
HETATM   29  C   UNL     1      44.546 -20.655   3.072  1.00  0.00     0.018 A 
HETATM   30  C   UNL     1      43.678 -18.010   3.174  1.00  0.00     0.015 A 
HETATM   31  C   UNL     1      44.011 -18.593   1.947  1.00  0.00     0.001 A 
HETATM   32  C   UNL     1      44.460 -19.911   1.897  1.00  0.00     0.001 A 
ENDBRANCH   5  21
TORSDOF 4
ENDMDL
