MODEL 1
REMARK VINA RESULT:      -7.9      0.000      0.000
REMARK  4 active torsions:
REMARK  status: ('A' for Active; 'I' for Inactive)
REMARK    1  A    between atoms: C_4  and  N_5 
REMARK    2  A    between atoms: N_5  and  N_6 
REMARK    3  A    between atoms: C_7  and  C_8 
REMARK    4  A    between atoms: C_9  and  O_10 
ROOT
HETATM    1  N   UNL     1      41.864 -17.024   0.703  1.00  0.00    -0.172 NA
HETATM    2  C   UNL     1      41.819 -17.173   1.992  1.00  0.00     0.153 C 
ENDROOT
BRANCH   1   3
HETATM    3  N   UNL     1      40.938 -16.154   0.208  1.00  0.00    -0.108 N 
HETATM    4  H   UNL     1      40.052 -15.992   0.684  1.00  0.00     0.208 HD
BRANCH   3   5
HETATM    5  C   UNL     1      41.055 -15.417  -0.942  1.00  0.00     0.723 A 
HETATM    6  N   UNL     1      41.753 -14.319  -0.953  1.00  0.00    -0.068 NA
HETATM    7  C   UNL     1      41.826 -13.618  -2.133  1.00  0.00     0.055 A 
HETATM    8  C   UNL     1      42.629 -12.349  -2.094  1.00  0.00     0.071 C 
HETATM    9  C   UNL     1      41.223 -13.998  -3.268  1.00  0.00     0.102 A 
HETATM   10  C   UNL     1      40.446 -15.244  -3.254  1.00  0.00     0.261 A 
HETATM   11  N   UNL     1      40.414 -15.882  -2.054  1.00  0.00    -0.153 N 
HETATM   12  O   UNL     1      39.879 -15.656  -4.257  1.00  0.00    -0.268 OA
HETATM   13  H   UNL     1      39.895 -16.740  -1.980  1.00  0.00     0.187 HD
ENDBRANCH   3   5
ENDBRANCH   1   3
BRANCH   2  14
HETATM   14  C   UNL     1      42.750 -18.075   2.705  1.00  0.00     0.019 A 
HETATM   15  C   UNL     1      43.323 -17.743   3.942  1.00  0.00     0.094 A 
HETATM   16  C   UNL     1      44.195 -18.644   4.564  1.00  0.00     0.046 A 
HETATM   17 BR   UNL     1      45.001 -18.252   6.236  1.00  0.00    -0.048 Br
HETATM   18  C   UNL     1      44.495 -19.867   3.960  1.00  0.00     0.041 A 
HETATM   19  C   UNL     1      43.920 -20.187   2.732  1.00  0.00     0.013 A 
HETATM   20 BR   UNL     1      44.324 -21.842   1.913  1.00  0.00    -0.051 Br
HETATM   21  C   UNL     1      43.050 -19.301   2.099  1.00  0.00     0.035 A 
BRANCH  15  22
HETATM   22  O   UNL     1      43.052 -16.553   4.564  1.00  0.00    -0.358 OA
HETATM   23  H   UNL     1      43.859 -15.998   4.524  1.00  0.00     0.218 HD
ENDBRANCH  15  22
ENDBRANCH   2  14
TORSDOF 4
ENDMDL
MODEL 2
REMARK VINA RESULT:      -7.6      1.733      2.246
REMARK  4 active torsions:
REMARK  status: ('A' for Active; 'I' for Inactive)
REMARK    1  A    between atoms: C_4  and  N_5 
REMARK    2  A    between atoms: N_5  and  N_6 
REMARK    3  A    between atoms: C_7  and  C_8 
REMARK    4  A    between atoms: C_9  and  O_10 
ROOT
HETATM    1  N   UNL     1      40.955 -16.688   2.000  1.00  0.00    -0.172 NA
HETATM    2  C   UNL     1      42.026 -17.260   1.542  1.00  0.00     0.153 C 
ENDROOT
BRANCH   1   3
HETATM    3  N   UNL     1      40.294 -15.923   1.085  1.00  0.00    -0.108 N 
HETATM    4  H   UNL     1      39.293 -16.028   0.928  1.00  0.00     0.208 HD
BRANCH   3   5
HETATM    5  C   UNL     1      40.850 -14.961   0.283  1.00  0.00     0.723 A 
HETATM    6  N   UNL     1      40.850 -15.100  -1.011  1.00  0.00    -0.068 NA
HETATM    7  C   UNL     1      41.430 -14.105  -1.762  1.00  0.00     0.055 A 
HETATM    8  C   UNL     1      41.421 -14.317  -3.250  1.00  0.00     0.071 C 
HETATM    9  C   UNL     1      41.992 -13.006  -1.242  1.00  0.00     0.102 A 
HETATM   10  C   UNL     1      41.979 -12.847   0.217  1.00  0.00     0.261 A 
HETATM   11  N   UNL     1      41.394 -13.869   0.896  1.00  0.00    -0.153 N 
HETATM   12  O   UNL     1      42.465 -11.862   0.759  1.00  0.00    -0.268 OA
HETATM   13  H   UNL     1      41.357 -13.819   1.900  1.00  0.00     0.187 HD
ENDBRANCH   3   5
ENDBRANCH   1   3
BRANCH   2  14
HETATM   14  C   UNL     1      42.869 -18.130   2.390  1.00  0.00     0.019 A 
HETATM   15  C   UNL     1      43.346 -17.725   3.647  1.00  0.00     0.094 A 
HETATM   16  C   UNL     1      44.138 -18.599   4.400  1.00  0.00     0.046 A 
HETATM   17 BR   UNL     1      44.811 -18.110   6.106  1.00  0.00    -0.048 Br
HETATM   18  C   UNL     1      44.455 -19.867   3.907  1.00  0.00     0.041 A 
HETATM   19  C   UNL     1      43.977 -20.259   2.659  1.00  0.00     0.013 A 
HETATM   20 BR   UNL     1      44.403 -21.975   1.990  1.00  0.00    -0.051 Br
HETATM   21  C   UNL     1      43.187 -19.400   1.895  1.00  0.00     0.035 A 
BRANCH  15  22
HETATM   22  O   UNL     1      43.055 -16.489   4.162  1.00  0.00    -0.358 OA
HETATM   23  H   UNL     1      43.087 -15.839   3.430  1.00  0.00     0.218 HD
ENDBRANCH  15  22
ENDBRANCH   2  14
TORSDOF 4
ENDMDL
MODEL 3
REMARK VINA RESULT:      -7.4      1.476      1.766
REMARK  4 active torsions:
REMARK  status: ('A' for Active; 'I' for Inactive)
REMARK    1  A    between atoms: C_4  and  N_5 
REMARK    2  A    between atoms: N_5  and  N_6 
REMARK    3  A    between atoms: C_7  and  C_8 
REMARK    4  A    between atoms: C_9  and  O_10 
ROOT
HETATM    1  N   UNL     1      42.220 -15.884   1.858  1.00  0.00    -0.172 NA
HETATM    2  C   UNL     1      43.336 -16.539   1.754  1.00  0.00     0.153 C 
ENDROOT
BRANCH   1   3
HETATM    3  N   UNL     1      42.122 -14.809   1.026  1.00  0.00    -0.108 N 
HETATM    4  H   UNL     1      42.700 -13.980   1.157  1.00  0.00     0.208 HD
BRANCH   3   5
HETATM    5  C   UNL     1      41.276 -14.690  -0.046  1.00  0.00     0.723 A 
HETATM    6  N   UNL     1      40.087 -14.186   0.106  1.00  0.00    -0.068 NA
HETATM    7  C   UNL     1      39.280 -14.100  -1.004  1.00  0.00     0.055 A 
HETATM    8  C   UNL     1      37.910 -13.527  -0.777  1.00  0.00     0.071 C 
HETATM    9  C   UNL     1      39.646 -14.504  -2.228  1.00  0.00     0.102 A 
HETATM   10  C   UNL     1      40.994 -15.062  -2.397  1.00  0.00     0.261 A 
HETATM   11  N   UNL     1      41.733 -15.119  -1.258  1.00  0.00    -0.153 N 
HETATM   12  O   UNL     1      41.397 -15.440  -3.489  1.00  0.00    -0.268 OA
HETATM   13  H   UNL     1      42.665 -15.495  -1.310  1.00  0.00     0.187 HD
ENDBRANCH   3   5
ENDBRANCH   1   3
BRANCH   2  14
HETATM   14  C   UNL     1      43.617 -17.736   2.576  1.00  0.00     0.019 A 
HETATM   15  C   UNL     1      43.746 -17.679   3.973  1.00  0.00     0.094 A 
HETATM   16  C   UNL     1      44.009 -18.851   4.691  1.00  0.00     0.046 A 
HETATM   17 BR   UNL     1      44.194 -18.838   6.580  1.00  0.00    -0.048 Br
HETATM   18  C   UNL     1      44.145 -20.071   4.025  1.00  0.00     0.041 A 
HETATM   19  C   UNL     1      44.015 -20.117   2.639  1.00  0.00     0.013 A 
HETATM   20 BR   UNL     1      44.196 -21.768   1.736  1.00  0.00    -0.051 Br
HETATM   21  C   UNL     1      43.752 -18.958   1.909  1.00  0.00     0.035 A 
BRANCH  15  22
HETATM   22  O   UNL     1      43.619 -16.500   4.659  1.00  0.00    -0.358 OA
HETATM   23  H   UNL     1      43.235 -15.834   4.052  1.00  0.00     0.218 HD
ENDBRANCH  15  22
ENDBRANCH   2  14
TORSDOF 4
ENDMDL
MODEL 4
REMARK VINA RESULT:      -7.3      3.035      3.303
REMARK  4 active torsions:
REMARK  status: ('A' for Active; 'I' for Inactive)
REMARK    1  A    between atoms: C_4  and  N_5 
REMARK    2  A    between atoms: N_5  and  N_6 
REMARK    3  A    between atoms: C_7  and  C_8 
REMARK    4  A    between atoms: C_9  and  O_10 
ROOT
HETATM    1  N   UNL     1      40.794 -16.971   2.312  1.00  0.00    -0.172 NA
HETATM    2  C   UNL     1      41.866 -17.482   1.787  1.00  0.00     0.153 C 
ENDROOT
BRANCH   1   3
HETATM    3  N   UNL     1      40.042 -16.235   1.444  1.00  0.00    -0.108 N 
HETATM    4  H   UNL     1      39.784 -16.595   0.527  1.00  0.00     0.208 HD
BRANCH   3   5
HETATM    5  C   UNL     1      39.557 -14.973   1.665  1.00  0.00     0.723 A 
HETATM    6  N   UNL     1      40.150 -14.176   2.505  1.00  0.00    -0.068 NA
HETATM    7  C   UNL     1      39.611 -12.924   2.690  1.00  0.00     0.055 A 
HETATM    8  C   UNL     1      40.320 -12.045   3.681  1.00  0.00     0.071 C 
HETATM    9  C   UNL     1      38.515 -12.480   2.059  1.00  0.00     0.102 A 
HETATM   10  C   UNL     1      37.856 -13.379   1.104  1.00  0.00     0.261 A 
HETATM   11  N   UNL     1      38.440 -14.599   0.974  1.00  0.00    -0.153 N 
HETATM   12  O   UNL     1      36.858 -13.034   0.485  1.00  0.00    -0.268 OA
HETATM   13  H   UNL     1      38.032 -15.261   0.335  1.00  0.00     0.187 HD
ENDBRANCH   3   5
ENDBRANCH   1   3
BRANCH   2  14
HETATM   14  C   UNL     1      42.801 -18.312   2.576  1.00  0.00     0.019 A 
HETATM   15  C   UNL     1      43.323 -17.895   3.810  1.00  0.00     0.094 A 
HETATM   16  C   UNL     1      44.202 -18.732   4.507  1.00  0.00     0.046 A 
HETATM   17 BR   UNL     1      44.941 -18.223   6.180  1.00  0.00    -0.048 Br
HETATM   18  C   UNL     1      44.560 -19.974   3.981  1.00  0.00     0.041 A 
HETATM   19  C   UNL     1      44.036 -20.379   2.755  1.00  0.00     0.013 A 
HETATM   20 BR   UNL     1      44.519 -22.062   2.041  1.00  0.00    -0.051 Br
HETATM   21  C   UNL     1      43.160 -19.558   2.047  1.00  0.00     0.035 A 
BRANCH  15  22
HETATM   22  O   UNL     1      42.994 -16.683   4.358  1.00  0.00    -0.358 OA
HETATM   23  H   UNL     1      42.585 -16.133   3.656  1.00  0.00     0.218 HD
ENDBRANCH  15  22
ENDBRANCH   2  14
TORSDOF 4
ENDMDL
MODEL 5
REMARK VINA RESULT:      -7.3      1.403      2.451
REMARK  4 active torsions:
REMARK  status: ('A' for Active; 'I' for Inactive)
REMARK    1  A    between atoms: C_4  and  N_5 
REMARK    2  A    between atoms: N_5  and  N_6 
REMARK    3  A    between atoms: C_7  and  C_8 
REMARK    4  A    between atoms: C_9  and  O_10 
ROOT
HETATM    1  N   UNL     1      41.597 -16.201   1.212  1.00  0.00    -0.172 NA
HETATM    2  C   UNL     1      41.098 -16.912   2.177  1.00  0.00     0.153 C 
ENDROOT
BRANCH   1   3
HETATM    3  N   UNL     1      40.665 -15.654   0.381  1.00  0.00    -0.108 N 
HETATM    4  H   UNL     1      39.679 -15.621   0.635  1.00  0.00     0.208 HD
BRANCH   3   5
HETATM    5  C   UNL     1      40.903 -15.104  -0.851  1.00  0.00     0.723 A 
HETATM    6  N   UNL     1      41.690 -14.075  -0.973  1.00  0.00    -0.068 NA
HETATM    7  C   UNL     1      41.884 -13.562  -2.234  1.00  0.00     0.055 A 
HETATM    8  C   UNL     1      42.787 -12.364  -2.324  1.00  0.00     0.071 C 
HETATM    9  C   UNL     1      41.312 -14.058  -3.340  1.00  0.00     0.102 A 
HETATM   10  C   UNL     1      40.435 -15.227  -3.199  1.00  0.00     0.261 A 
HETATM   11  N   UNL     1      40.286 -15.677  -1.925  1.00  0.00    -0.153 N 
HETATM   12  O   UNL     1      39.889 -15.738  -4.168  1.00  0.00    -0.268 OA
HETATM   13  H   UNL     1      39.694 -16.474  -1.764  1.00  0.00     0.187 HD
ENDBRANCH   3   5
ENDBRANCH   1   3
BRANCH   2  14
HETATM   14  C   UNL     1      41.959 -17.580   3.178  1.00  0.00     0.019 A 
HETATM   15  C   UNL     1      42.847 -18.612   2.840  1.00  0.00     0.094 A 
HETATM   16  C   UNL     1      43.635 -19.200   3.837  1.00  0.00     0.046 A 
HETATM   17 BR   UNL     1      44.855 -20.598   3.442  1.00  0.00    -0.048 Br
HETATM   18  C   UNL     1      43.539 -18.765   5.160  1.00  0.00     0.041 A 
HETATM   19  C   UNL     1      42.653 -17.739   5.485  1.00  0.00     0.013 A 
HETATM   20 BR   UNL     1      42.523 -17.148   7.276  1.00  0.00    -0.051 Br
HETATM   21  C   UNL     1      41.862 -17.143   4.504  1.00  0.00     0.035 A 
BRANCH  15  22
HETATM   22  O   UNL     1      42.969 -19.064   1.553  1.00  0.00    -0.358 OA
HETATM   23  H   UNL     1      42.083 -19.350   1.246  1.00  0.00     0.218 HD
ENDBRANCH  15  22
ENDBRANCH   2  14
TORSDOF 4
ENDMDL
MODEL 6
REMARK VINA RESULT:      -7.0      1.866      2.196
REMARK  4 active torsions:
REMARK  status: ('A' for Active; 'I' for Inactive)
REMARK    1  A    between atoms: C_4  and  N_5 
REMARK    2  A    between atoms: N_5  and  N_6 
REMARK    3  A    between atoms: C_7  and  C_8 
REMARK    4  A    between atoms: C_9  and  O_10 
ROOT
HETATM    1  N   UNL     1      39.577 -15.203   1.124  1.00  0.00    -0.172 NA
HETATM    2  C   UNL     1      40.838 -15.483   1.251  1.00  0.00     0.153 C 
ENDROOT
BRANCH   1   3
HETATM    3  N   UNL     1      39.294 -14.346   0.101  1.00  0.00    -0.108 N 
HETATM    4  H   UNL     1      38.528 -13.678   0.163  1.00  0.00     0.208 HD
BRANCH   3   5
HETATM    5  C   UNL     1      39.959 -14.268  -1.095  1.00  0.00     0.723 A 
HETATM    6  N   UNL     1      40.963 -13.454  -1.240  1.00  0.00    -0.068 NA
HETATM    7  C   UNL     1      41.584 -13.414  -2.466  1.00  0.00     0.055 A 
HETATM    8  C   UNL     1      42.728 -12.448  -2.590  1.00  0.00     0.071 C 
HETATM    9  C   UNL     1      41.217 -14.161  -3.516  1.00  0.00     0.102 A 
HETATM   10  C   UNL     1      40.090 -15.087  -3.345  1.00  0.00     0.261 A 
HETATM   11  N   UNL     1      39.522 -15.071  -2.110  1.00  0.00    -0.153 N 
HETATM   12  O   UNL     1      39.708 -15.806  -4.258  1.00  0.00    -0.268 OA
HETATM   13  H   UNL     1      38.743 -15.681  -1.932  1.00  0.00     0.187 HD
ENDBRANCH   3   5
ENDBRANCH   1   3
BRANCH   2  14
HETATM   14  C   UNL     1      41.331 -16.398   2.303  1.00  0.00     0.019 A 
HETATM   15  C   UNL     1      40.996 -16.240   3.657  1.00  0.00     0.094 A 
HETATM   16  C   UNL     1      41.495 -17.144   4.602  1.00  0.00     0.046 A 
HETATM   17 BR   UNL     1      41.078 -16.984   6.446  1.00  0.00    -0.048 Br
HETATM   18  C   UNL     1      42.322 -18.197   4.204  1.00  0.00     0.041 A 
HETATM   19  C   UNL     1      42.648 -18.345   2.857  1.00  0.00     0.013 A 
HETATM   20 BR   UNL     1      43.765 -19.770   2.316  1.00  0.00    -0.051 Br
HETATM   21  C   UNL     1      42.159 -17.453   1.903  1.00  0.00     0.035 A 
BRANCH  15  22
HETATM   22  O   UNL     1      40.188 -15.220   4.084  1.00  0.00    -0.358 OA
HETATM   23  H   UNL     1      40.719 -14.396   4.097  1.00  0.00     0.218 HD
ENDBRANCH  15  22
ENDBRANCH   2  14
TORSDOF 4
ENDMDL
MODEL 7
REMARK VINA RESULT:      -7.0      6.303      8.729
REMARK  4 active torsions:
REMARK  status: ('A' for Active; 'I' for Inactive)
REMARK    1  A    between atoms: C_4  and  N_5 
REMARK    2  A    between atoms: N_5  and  N_6 
REMARK    3  A    between atoms: C_7  and  C_8 
REMARK    4  A    between atoms: C_9  and  O_10 
ROOT
HETATM    1  N   UNL     1      43.919 -14.709   6.985  1.00  0.00    -0.172 NA
HETATM    2  C   UNL     1      43.271 -15.077   5.923  1.00  0.00     0.153 C 
ENDROOT
BRANCH   1   3
HETATM    3  N   UNL     1      43.633 -13.443   7.405  1.00  0.00    -0.108 N 
HETATM    4  H   UNL     1      42.765 -12.979   7.143  1.00  0.00     0.208 HD
BRANCH   3   5
HETATM    5  C   UNL     1      44.430 -12.652   8.191  1.00  0.00     0.723 A 
HETATM    6  N   UNL     1      43.988 -12.190   9.324  1.00  0.00    -0.068 NA
HETATM    7  C   UNL     1      44.831 -11.394  10.064  1.00  0.00     0.055 A 
HETATM    8  C   UNL     1      44.271 -10.870  11.356  1.00  0.00     0.071 C 
HETATM    9  C   UNL     1      46.075 -11.070   9.688  1.00  0.00     0.102 A 
HETATM   10  C   UNL     1      46.574 -11.603   8.415  1.00  0.00     0.261 A 
HETATM   11  N   UNL     1      45.687 -12.377   7.735  1.00  0.00    -0.153 N 
HETATM   12  O   UNL     1      47.705 -11.356   8.016  1.00  0.00    -0.268 OA
HETATM   13  H   UNL     1      45.970 -12.770   6.853  1.00  0.00     0.187 HD
ENDBRANCH   3   5
ENDBRANCH   1   3
BRANCH   2  14
HETATM   14  C   UNL     1      43.451 -16.418   5.326  1.00  0.00     0.019 A 
HETATM   15  C   UNL     1      43.572 -17.580   6.103  1.00  0.00     0.094 A 
HETATM   16  C   UNL     1      43.738 -18.819   5.473  1.00  0.00     0.046 A 
HETATM   17 BR   UNL     1      43.907 -20.425   6.470  1.00  0.00    -0.048 Br
HETATM   18  C   UNL     1      43.784 -18.902   4.080  1.00  0.00     0.041 A 
HETATM   19  C   UNL     1      43.663 -17.742   3.317  1.00  0.00     0.013 A 
HETATM   20 BR   UNL     1      43.724 -17.852   1.431  1.00  0.00    -0.051 Br
HETATM   21  C   UNL     1      43.497 -16.500   3.929  1.00  0.00     0.035 A 
BRANCH  15  22
HETATM   22  O   UNL     1      43.531 -17.538   7.472  1.00  0.00    -0.358 OA
HETATM   23  H   UNL     1      43.241 -18.416   7.795  1.00  0.00     0.218 HD
ENDBRANCH  15  22
ENDBRANCH   2  14
TORSDOF 4
ENDMDL
MODEL 8
REMARK VINA RESULT:      -6.9      1.754      3.081
REMARK  4 active torsions:
REMARK  status: ('A' for Active; 'I' for Inactive)
REMARK    1  A    between atoms: C_4  and  N_5 
REMARK    2  A    between atoms: N_5  and  N_6 
REMARK    3  A    between atoms: C_7  and  C_8 
REMARK    4  A    between atoms: C_9  and  O_10 
ROOT
HETATM    1  N   UNL     1      42.010 -15.813   1.239  1.00  0.00    -0.172 NA
HETATM    2  C   UNL     1      42.805 -15.715   2.260  1.00  0.00     0.153 C 
ENDROOT
BRANCH   1   3
HETATM    3  N   UNL     1      41.799 -14.639   0.578  1.00  0.00    -0.108 N 
HETATM    4  H   UNL     1      41.762 -13.749   1.073  1.00  0.00     0.208 HD
BRANCH   3   5
HETATM    5  C   UNL     1      41.610 -14.494  -0.772  1.00  0.00     0.723 A 
HETATM    6  N   UNL     1      40.842 -15.317  -1.423  1.00  0.00    -0.068 NA
HETATM    7  C   UNL     1      40.698 -15.125  -2.776  1.00  0.00     0.055 A 
HETATM    8  C   UNL     1      39.814 -16.109  -3.488  1.00  0.00     0.071 C 
HETATM    9  C   UNL     1      41.301 -14.144  -3.462  1.00  0.00     0.102 A 
HETATM   10  C   UNL     1      42.159 -13.210  -2.721  1.00  0.00     0.261 A 
HETATM   11  N   UNL     1      42.257 -13.462  -1.389  1.00  0.00    -0.153 N 
HETATM   12  O   UNL     1      42.731 -12.285  -3.281  1.00  0.00    -0.268 OA
HETATM   13  H   UNL     1      42.834 -12.858  -0.827  1.00  0.00     0.187 HD
ENDBRANCH   3   5
ENDBRANCH   1   3
BRANCH   2  14
HETATM   14  C   UNL     1      43.152 -16.886   3.094  1.00  0.00     0.019 A 
HETATM   15  C   UNL     1      43.606 -18.095   2.545  1.00  0.00     0.094 A 
HETATM   16  C   UNL     1      43.920 -19.164   3.392  1.00  0.00     0.046 A 
HETATM   17 BR   UNL     1      44.539 -20.823   2.710  1.00  0.00    -0.048 Br
HETATM   18  C   UNL     1      43.781 -19.032   4.776  1.00  0.00     0.041 A 
HETATM   19  C   UNL     1      43.329 -17.828   5.311  1.00  0.00     0.013 A 
HETATM   20 BR   UNL     1      43.142 -17.647   7.183  1.00  0.00    -0.051 Br
HETATM   21  C   UNL     1      43.013 -16.753   4.480  1.00  0.00     0.035 A 
BRANCH  15  22
HETATM   22  O   UNL     1      43.755 -18.260   1.193  1.00  0.00    -0.358 OA
HETATM   23  H   UNL     1      44.684 -18.050   0.962  1.00  0.00     0.218 HD
ENDBRANCH  15  22
ENDBRANCH   2  14
TORSDOF 4
ENDMDL
MODEL 9
REMARK VINA RESULT:      -6.9      6.643      9.282
REMARK  4 active torsions:
REMARK  status: ('A' for Active; 'I' for Inactive)
REMARK    1  A    between atoms: C_4  and  N_5 
REMARK    2  A    between atoms: N_5  and  N_6 
REMARK    3  A    between atoms: C_7  and  C_8 
REMARK    4  A    between atoms: C_9  and  O_10 
ROOT
HETATM    1  N   UNL     1      44.271 -14.721   6.730  1.00  0.00    -0.172 NA
HETATM    2  C   UNL     1      43.145 -14.607   6.095  1.00  0.00     0.153 C 
ENDROOT
BRANCH   1   3
HETATM    3  N   UNL     1      44.202 -14.400   8.054  1.00  0.00    -0.108 N 
HETATM    4  H   UNL     1      43.740 -15.010   8.726  1.00  0.00     0.208 HD
BRANCH   3   5
HETATM    5  C   UNL     1      44.710 -13.270   8.640  1.00  0.00     0.723 A 
HETATM    6  N   UNL     1      44.174 -12.791   9.723  1.00  0.00    -0.068 NA
HETATM    7  C   UNL     1      44.722 -11.649  10.260  1.00  0.00     0.055 A 
HETATM    8  C   UNL     1      44.059 -11.124  11.501  1.00  0.00     0.071 C 
HETATM    9  C   UNL     1      45.772 -11.005   9.733  1.00  0.00     0.102 A 
HETATM   10  C   UNL     1      46.381 -11.555   8.516  1.00  0.00     0.261 A 
HETATM   11  N   UNL     1      45.787 -12.681   8.040  1.00  0.00    -0.153 N 
HETATM   12  O   UNL     1      47.350 -11.024   7.989  1.00  0.00    -0.268 OA
HETATM   13  H   UNL     1      46.158 -13.104   7.207  1.00  0.00     0.187 HD
ENDBRANCH   3   5
ENDBRANCH   1   3
BRANCH   2  14
HETATM   14  C   UNL     1      43.029 -14.916   4.653  1.00  0.00     0.019 A 
HETATM   15  C   UNL     1      43.337 -16.178   4.125  1.00  0.00     0.094 A 
HETATM   16  C   UNL     1      43.202 -16.404   2.750  1.00  0.00     0.046 A 
HETATM   17 BR   UNL     1      43.604 -18.090   1.976  1.00  0.00    -0.048 Br
HETATM   18  C   UNL     1      42.765 -15.380   1.906  1.00  0.00     0.041 A 
HETATM   19  C   UNL     1      42.462 -14.130   2.441  1.00  0.00     0.013 A 
HETATM   20 BR   UNL     1      41.869 -12.744   1.301  1.00  0.00    -0.051 Br
HETATM   21  C   UNL     1      42.591 -13.889   3.808  1.00  0.00     0.035 A 
BRANCH  15  22
HETATM   22  O   UNL     1      43.768 -17.206   4.922  1.00  0.00    -0.358 OA
HETATM   23  H   UNL     1      44.537 -17.628   4.484  1.00  0.00     0.218 HD
ENDBRANCH  15  22
ENDBRANCH   2  14
TORSDOF 4
ENDMDL
MODEL 10
REMARK VINA RESULT:      -6.8      4.047      7.586
REMARK  4 active torsions:
REMARK  status: ('A' for Active; 'I' for Inactive)
REMARK    1  A    between atoms: C_4  and  N_5 
REMARK    2  A    between atoms: N_5  and  N_6 
REMARK    3  A    between atoms: C_7  and  C_8 
REMARK    4  A    between atoms: C_9  and  O_10 
ROOT
HETATM    1  N   UNL     1      43.001 -17.462   1.473  1.00  0.00    -0.172 NA
HETATM    2  C   UNL     1      41.775 -17.459   1.900  1.00  0.00     0.153 C 
ENDROOT
BRANCH   1   3
HETATM    3  N   UNL     1      43.562 -18.702   1.393  1.00  0.00    -0.108 N 
HETATM    4  H   UNL     1      43.720 -19.158   0.496  1.00  0.00     0.208 HD
BRANCH   3   5
HETATM    5  C   UNL     1      43.967 -19.476   2.449  1.00  0.00     0.723 A 
HETATM    6  N   UNL     1      44.187 -18.939   3.614  1.00  0.00    -0.068 NA
HETATM    7  C   UNL     1      44.599 -19.765   4.632  1.00  0.00     0.055 A 
HETATM    8  C   UNL     1      44.856 -19.099   5.954  1.00  0.00     0.071 C 
HETATM    9  C   UNL     1      44.788 -21.085   4.496  1.00  0.00     0.102 A 
HETATM   10  C   UNL     1      44.528 -21.688   3.183  1.00  0.00     0.261 A 
HETATM   11  N   UNL     1      44.127 -20.813   2.224  1.00  0.00    -0.153 N 
HETATM   12  O   UNL     1      44.669 -22.889   2.991  1.00  0.00    -0.268 OA
HETATM   13  H   UNL     1      43.936 -21.166   1.301  1.00  0.00     0.187 HD
ENDBRANCH   3   5
ENDBRANCH   1   3
BRANCH   2  14
HETATM   14  C   UNL     1      41.004 -16.206   2.048  1.00  0.00     0.019 A 
HETATM   15  C   UNL     1      40.487 -15.503   0.948  1.00  0.00     0.094 A 
HETATM   16  C   UNL     1      39.764 -14.324   1.159  1.00  0.00     0.046 A 
HETATM   17 BR   UNL     1      39.041 -13.330  -0.287  1.00  0.00    -0.048 Br
HETATM   18  C   UNL     1      39.557 -13.845   2.455  1.00  0.00     0.041 A 
HETATM   19  C   UNL     1      40.074 -14.550   3.540  1.00  0.00     0.013 A 
HETATM   20 BR   UNL     1      39.794 -13.904   5.294  1.00  0.00    -0.051 Br
HETATM   21  C   UNL     1      40.797 -15.727   3.347  1.00  0.00     0.035 A 
BRANCH  15  22
HETATM   22  O   UNL     1      40.671 -15.943  -0.337  1.00  0.00    -0.358 OA
HETATM   23  H   UNL     1      41.587 -16.280  -0.415  1.00  0.00     0.218 HD
ENDBRANCH  15  22
ENDBRANCH   2  14
TORSDOF 4
ENDMDL
