MODEL 1
REMARK VINA RESULT:      -7.4      0.000      0.000
REMARK  6 active torsions:
REMARK  status: ('A' for Active; 'I' for Inactive)
REMARK    1  A    between atoms: C_2  and  O_3 
REMARK    2  A    between atoms: O_3  and  C_4 
REMARK    3  A    between atoms: C_7  and  N_8 
REMARK    4  A    between atoms: C_9  and  O_10 
REMARK    5  A    between atoms: C_9  and  C_11 
REMARK       I    between atoms: C_11  and  N_12 
REMARK    6  A    between atoms: N_12  and  C_13 
ROOT
HETATM    1  N   UNL     1      41.682 -14.849   4.147  1.00  0.00    -0.254 N 
HETATM    2  C   UNL     1      42.149 -15.389   2.863  1.00  0.00     0.256 C 
HETATM    3  C   UNL     1      41.325 -14.814   1.732  1.00  0.00     0.035 A 
HETATM    4  C   UNL     1      39.958 -14.698   1.975  1.00  0.00     0.048 A 
HETATM    5  N   UNL     1      39.501 -14.944   3.268  1.00  0.00    -0.308 N 
HETATM    6  C   UNL     1      40.307 -14.923   4.386  1.00  0.00     0.330 C 
HETATM    7  O   UNL     1      39.749 -14.869   5.481  1.00  0.00    -0.246 OA
HETATM    8  C   UNL     1      41.826 -14.500   0.461  1.00  0.00     0.034 A 
HETATM    9  C   UNL     1      40.948 -14.094  -0.545  1.00  0.00     0.011 A 
HETATM   10 BR   UNL     1      41.622 -13.670  -2.260  1.00  0.00    -0.051 Br
HETATM   11  C   UNL     1      39.576 -14.014  -0.301  1.00  0.00     0.021 A 
HETATM   12  C   UNL     1      39.076 -14.322   0.965  1.00  0.00     0.031 A 
HETATM   13  H   UNL     1      38.514 -14.867   3.481  1.00  0.00     0.170 HD
ENDROOT
BRANCH   1  14
HETATM   14  C   UNL     1      42.589 -14.524   5.200  1.00  0.00     0.043 A 
HETATM   15  C   UNL     1      43.256 -15.512   5.930  1.00  0.00     0.032 A 
HETATM   16  C   UNL     1      44.105 -15.170   6.988  1.00  0.00     0.039 A 
HETATM   17  C   UNL     1      44.294 -13.835   7.351  1.00  0.00     0.068 A 
HETATM   18  C   UNL     1      43.622 -12.843   6.641  1.00  0.00     0.039 A 
HETATM   19  C   UNL     1      42.774 -13.188   5.580  1.00  0.00     0.032 A 
BRANCH  17  20
HETATM   20  O   UNL     1      45.138 -13.638   8.407  1.00  0.00    -0.352 OA
BRANCH  20  21
HETATM   21  C   UNL     1      45.867 -12.412   8.434  1.00  0.00     0.171 C 
HETATM   22  C   UNL     1      45.476 -11.659   9.693  1.00  0.00     0.034 C 
ENDBRANCH  20  21
ENDBRANCH  17  20
ENDBRANCH   1  14
BRANCH   2  23
HETATM   23  O   UNL     1      43.528 -15.104   2.617  1.00  0.00    -0.359 OA
HETATM   24  H   UNL     1      43.993 -15.486   3.386  1.00  0.00     0.213 HD
ENDBRANCH   2  23
BRANCH   2  25
HETATM   25  C   UNL     1      42.065 -16.977   2.943  1.00  0.00     0.279 C 
HETATM   26  N   UNL     1      43.255 -17.668   3.120  1.00  0.00    -0.352 N 
HETATM   27  H   UNL     1      44.131 -17.162   3.170  1.00  0.00     0.163 HD
HETATM   28  O   UNL     1      40.976 -17.563   2.948  1.00  0.00    -0.268 OA
BRANCH  26  29
HETATM   29  C   UNL     1      43.307 -19.093   3.209  1.00  0.00     0.084 A 
HETATM   30  C   UNL     1      43.470 -19.927   1.969  1.00  0.00     0.027 A 
HETATM   31  C   UNL     1      44.595 -19.827   2.955  1.00  0.00     0.027 A 
ENDBRANCH  26  29
ENDBRANCH   2  25
TORSDOF 6
ENDMDL
MODEL 2
REMARK VINA RESULT:      -7.4      3.417      6.106
REMARK  6 active torsions:
REMARK  status: ('A' for Active; 'I' for Inactive)
REMARK    1  A    between atoms: C_2  and  O_3 
REMARK    2  A    between atoms: O_3  and  C_4 
REMARK    3  A    between atoms: C_7  and  N_8 
REMARK    4  A    between atoms: C_9  and  O_10 
REMARK    5  A    between atoms: C_9  and  C_11 
REMARK       I    between atoms: C_11  and  N_12 
REMARK    6  A    between atoms: N_12  and  C_13 
ROOT
HETATM    1  N   UNL     1      42.189 -14.773   1.609  1.00  0.00    -0.254 N 
HETATM    2  C   UNL     1      41.322 -14.509   0.453  1.00  0.00     0.256 C 
HETATM    3  C   UNL     1      41.803 -13.278  -0.282  1.00  0.00     0.035 A 
HETATM    4  C   UNL     1      42.225 -12.219   0.519  1.00  0.00     0.048 A 
HETATM    5  N   UNL     1      42.337 -12.440   1.890  1.00  0.00    -0.308 N 
HETATM    6  C   UNL     1      42.429 -13.692   2.462  1.00  0.00     0.330 C 
HETATM    7  O   UNL     1      42.809 -13.749   3.631  1.00  0.00    -0.246 OA
HETATM    8  C   UNL     1      41.753 -13.110  -1.673  1.00  0.00     0.034 A 
HETATM    9  C   UNL     1      42.107 -11.882  -2.232  1.00  0.00     0.011 A 
HETATM   10 BR   UNL     1      42.040 -11.653  -4.107  1.00  0.00    -0.051 Br
HETATM   11  C   UNL     1      42.496 -10.816  -1.419  1.00  0.00     0.021 A 
HETATM   12  C   UNL     1      42.551 -10.983  -0.034  1.00  0.00     0.031 A 
HETATM   13  H   UNL     1      42.643 -11.694   2.502  1.00  0.00     0.170 HD
ENDROOT
BRANCH   1  14
HETATM   14  C   UNL     1      42.540 -16.101   1.999  1.00  0.00     0.043 A 
HETATM   15  C   UNL     1      41.849 -16.781   3.006  1.00  0.00     0.032 A 
HETATM   16  C   UNL     1      42.242 -18.065   3.401  1.00  0.00     0.039 A 
HETATM   17  C   UNL     1      43.342 -18.690   2.810  1.00  0.00     0.068 A 
HETATM   18  C   UNL     1      44.047 -18.015   1.818  1.00  0.00     0.039 A 
HETATM   19  C   UNL     1      43.651 -16.730   1.422  1.00  0.00     0.032 A 
BRANCH  17  20
HETATM   20  O   UNL     1      43.625 -19.936   3.294  1.00  0.00    -0.352 OA
BRANCH  20  21
HETATM   21  C   UNL     1      44.652 -20.671   2.630  1.00  0.00     0.171 C 
HETATM   22  C   UNL     1      43.991 -21.761   1.805  1.00  0.00     0.034 C 
ENDBRANCH  20  21
ENDBRANCH  17  20
ENDBRANCH   1  14
BRANCH   2  23
HETATM   23  O   UNL     1      41.282 -15.605  -0.464  1.00  0.00    -0.359 OA
HETATM   24  H   UNL     1      42.128 -15.544  -0.948  1.00  0.00     0.213 HD
ENDBRANCH   2  23
BRANCH   2  25
HETATM   25  C   UNL     1      39.829 -14.365   0.986  1.00  0.00     0.279 C 
HETATM   26  N   UNL     1      39.121 -13.237   0.599  1.00  0.00    -0.352 N 
HETATM   27  H   UNL     1      39.566 -12.535   0.019  1.00  0.00     0.163 HD
HETATM   28  O   UNL     1      39.289 -15.269   1.634  1.00  0.00    -0.268 OA
BRANCH  26  29
HETATM   29  C   UNL     1      37.774 -12.998   1.010  1.00  0.00     0.084 A 
HETATM   30  C   UNL     1      37.347 -11.629   1.461  1.00  0.00     0.027 A 
HETATM   31  C   UNL     1      36.849 -12.175   0.156  1.00  0.00     0.027 A 
ENDBRANCH  26  29
ENDBRANCH   2  25
TORSDOF 6
ENDMDL
MODEL 3
REMARK VINA RESULT:      -7.4      3.070      5.295
REMARK  6 active torsions:
REMARK  status: ('A' for Active; 'I' for Inactive)
REMARK    1  A    between atoms: C_2  and  O_3 
REMARK    2  A    between atoms: O_3  and  C_4 
REMARK    3  A    between atoms: C_7  and  N_8 
REMARK    4  A    between atoms: C_9  and  O_10 
REMARK    5  A    between atoms: C_9  and  C_11 
REMARK       I    between atoms: C_11  and  N_12 
REMARK    6  A    between atoms: N_12  and  C_13 
ROOT
HETATM    1  N   UNL     1      41.629 -15.684   5.188  1.00  0.00    -0.254 N 
HETATM    2  C   UNL     1      41.639 -14.507   4.309  1.00  0.00     0.256 C 
HETATM    3  C   UNL     1      41.149 -13.294   5.067  1.00  0.00     0.035 A 
HETATM    4  C   UNL     1      40.069 -13.507   5.921  1.00  0.00     0.048 A 
HETATM    5  N   UNL     1      39.657 -14.821   6.138  1.00  0.00    -0.308 N 
HETATM    6  C   UNL     1      40.443 -15.925   5.886  1.00  0.00     0.330 C 
HETATM    7  O   UNL     1      40.086 -16.994   6.380  1.00  0.00    -0.246 OA
HETATM    8  C   UNL     1      41.635 -11.991   4.887  1.00  0.00     0.034 A 
HETATM    9  C   UNL     1      41.021 -10.928   5.549  1.00  0.00     0.011 A 
HETATM   10 BR   UNL     1      41.675  -9.172   5.308  1.00  0.00    -0.051 Br
HETATM   11  C   UNL     1      39.918 -11.148   6.376  1.00  0.00     0.021 A 
HETATM   12  C   UNL     1      39.435 -12.445   6.560  1.00  0.00     0.031 A 
HETATM   13  H   UNL     1      38.877 -15.014   6.754  1.00  0.00     0.170 HD
ENDROOT
BRANCH   1  14
HETATM   14  C   UNL     1      42.655 -16.677   5.127  1.00  0.00     0.043 A 
HETATM   15  C   UNL     1      42.675 -17.655   4.130  1.00  0.00     0.032 A 
HETATM   16  C   UNL     1      43.666 -18.645   4.119  1.00  0.00     0.039 A 
HETATM   17  C   UNL     1      44.645 -18.687   5.113  1.00  0.00     0.068 A 
HETATM   18  C   UNL     1      44.624 -17.727   6.121  1.00  0.00     0.039 A 
HETATM   19  C   UNL     1      43.633 -16.735   6.128  1.00  0.00     0.032 A 
BRANCH  17  20
HETATM   20  O   UNL     1      45.545 -19.709   4.993  1.00  0.00    -0.352 OA
BRANCH  20  21
HETATM   21  C   UNL     1      45.089 -20.902   4.358  1.00  0.00     0.171 C 
HETATM   22  C   UNL     1      44.701 -21.893   5.441  1.00  0.00     0.034 C 
ENDBRANCH  20  21
ENDBRANCH  17  20
ENDBRANCH   1  14
BRANCH   2  23
HETATM   23  O   UNL     1      42.939 -14.226   3.783  1.00  0.00    -0.359 OA
HETATM   24  H   UNL     1      42.925 -13.265   3.609  1.00  0.00     0.213 HD
ENDBRANCH   2  23
BRANCH   2  25
HETATM   25  C   UNL     1      40.745 -14.842   3.035  1.00  0.00     0.279 C 
HETATM   26  N   UNL     1      41.392 -15.365   1.924  1.00  0.00    -0.352 N 
HETATM   27  H   UNL     1      42.396 -15.496   1.939  1.00  0.00     0.163 HD
HETATM   28  O   UNL     1      39.514 -14.737   3.069  1.00  0.00    -0.268 OA
BRANCH  26  29
HETATM   29  C   UNL     1      40.696 -15.707   0.724  1.00  0.00     0.084 A 
HETATM   30  C   UNL     1      40.590 -14.717  -0.403  1.00  0.00     0.027 A 
HETATM   31  C   UNL     1      41.452 -15.935  -0.557  1.00  0.00     0.027 A 
ENDBRANCH  26  29
ENDBRANCH   2  25
TORSDOF 6
ENDMDL
MODEL 4
REMARK VINA RESULT:      -7.3      2.666      5.435
REMARK  6 active torsions:
REMARK  status: ('A' for Active; 'I' for Inactive)
REMARK    1  A    between atoms: C_2  and  O_3 
REMARK    2  A    between atoms: O_3  and  C_4 
REMARK    3  A    between atoms: C_7  and  N_8 
REMARK    4  A    between atoms: C_9  and  O_10 
REMARK    5  A    between atoms: C_9  and  C_11 
REMARK       I    between atoms: C_11  and  N_12 
REMARK    6  A    between atoms: N_12  and  C_13 
ROOT
HETATM    1  N   UNL     1      42.355 -15.036   3.227  1.00  0.00    -0.254 N 
HETATM    2  C   UNL     1      40.915 -14.890   2.979  1.00  0.00     0.256 C 
HETATM    3  C   UNL     1      40.687 -14.089   1.716  1.00  0.00     0.035 A 
HETATM    4  C   UNL     1      41.534 -12.999   1.528  1.00  0.00     0.048 A 
HETATM    5  N   UNL     1      42.607 -12.846   2.404  1.00  0.00    -0.308 N 
HETATM    6  C   UNL     1      43.113 -13.863   3.186  1.00  0.00     0.330 C 
HETATM    7  O   UNL     1      44.221 -13.687   3.690  1.00  0.00    -0.246 OA
HETATM    8  C   UNL     1      39.644 -14.313   0.807  1.00  0.00     0.034 A 
HETATM    9  C   UNL     1      39.456 -13.432  -0.258  1.00  0.00     0.011 A 
HETATM   10 BR   UNL     1      38.050 -13.732  -1.485  1.00  0.00    -0.051 Br
HETATM   11  C   UNL     1      40.289 -12.323  -0.418  1.00  0.00     0.021 A 
HETATM   12  C   UNL     1      41.332 -12.101   0.484  1.00  0.00     0.031 A 
HETATM   13  H   UNL     1      43.244 -12.066   2.296  1.00  0.00     0.170 HD
ENDROOT
BRANCH   1  14
HETATM   14  C   UNL     1      42.909 -16.245   3.749  1.00  0.00     0.043 A 
HETATM   15  C   UNL     1      43.071 -16.448   5.122  1.00  0.00     0.032 A 
HETATM   16  C   UNL     1      43.659 -17.622   5.607  1.00  0.00     0.039 A 
HETATM   17  C   UNL     1      44.112 -18.610   4.731  1.00  0.00     0.068 A 
HETATM   18  C   UNL     1      43.970 -18.410   3.360  1.00  0.00     0.039 A 
HETATM   19  C   UNL     1      43.380 -17.235   2.877  1.00  0.00     0.032 A 
BRANCH  17  20
HETATM   20  O   UNL     1      44.675 -19.700   5.332  1.00  0.00    -0.352 OA
BRANCH  20  21
HETATM   21  C   UNL     1      45.079 -20.772   4.482  1.00  0.00     0.171 C 
HETATM   22  C   UNL     1      44.853 -22.075   5.229  1.00  0.00     0.034 C 
ENDBRANCH  20  21
ENDBRANCH  17  20
ENDBRANCH   1  14
BRANCH   2  23
HETATM   23  O   UNL     1      40.249 -16.149   2.850  1.00  0.00    -0.359 OA
HETATM   24  H   UNL     1      39.739 -16.067   2.021  1.00  0.00     0.213 HD
ENDBRANCH   2  23
BRANCH   2  25
HETATM   25  C   UNL     1      40.265 -14.212   4.265  1.00  0.00     0.279 C 
HETATM   26  N   UNL     1      39.754 -12.930   4.118  1.00  0.00    -0.352 N 
HETATM   27  H   UNL     1      39.825 -12.457   3.225  1.00  0.00     0.163 HD
HETATM   28  O   UNL     1      40.130 -14.838   5.322  1.00  0.00    -0.268 OA
BRANCH  26  29
HETATM   29  C   UNL     1      39.145 -12.220   5.198  1.00  0.00     0.084 A 
HETATM   30  C   UNL     1      39.993 -11.501   6.210  1.00  0.00     0.027 A 
HETATM   31  C   UNL     1      39.169 -10.716   5.232  1.00  0.00     0.027 A 
ENDBRANCH  26  29
ENDBRANCH   2  25
TORSDOF 6
ENDMDL
MODEL 5
REMARK VINA RESULT:      -7.2      3.356      5.982
REMARK  6 active torsions:
REMARK  status: ('A' for Active; 'I' for Inactive)
REMARK    1  A    between atoms: C_2  and  O_3 
REMARK    2  A    between atoms: O_3  and  C_4 
REMARK    3  A    between atoms: C_7  and  N_8 
REMARK    4  A    between atoms: C_9  and  O_10 
REMARK    5  A    between atoms: C_9  and  C_11 
REMARK       I    between atoms: C_11  and  N_12 
REMARK    6  A    between atoms: N_12  and  C_13 
ROOT
HETATM    1  N   UNL     1      41.598 -15.260   2.610  1.00  0.00    -0.254 N 
HETATM    2  C   UNL     1      42.108 -13.883   2.574  1.00  0.00     0.256 C 
HETATM    3  C   UNL     1      41.258 -12.995   3.455  1.00  0.00     0.035 A 
HETATM    4  C   UNL     1      39.884 -13.223   3.402  1.00  0.00     0.048 A 
HETATM    5  N   UNL     1      39.434 -14.339   2.698  1.00  0.00    -0.308 N 
HETATM    6  C   UNL     1      40.229 -15.419   2.379  1.00  0.00     0.330 C 
HETATM    7  O   UNL     1      39.660 -16.449   2.020  1.00  0.00    -0.246 OA
HETATM    8  C   UNL     1      41.747 -11.925   4.217  1.00  0.00     0.034 A 
HETATM    9  C   UNL     1      40.853 -11.094   4.893  1.00  0.00     0.011 A 
HETATM   10 BR   UNL     1      41.511  -9.651   5.921  1.00  0.00    -0.051 Br
HETATM   11  C   UNL     1      39.477 -11.311   4.806  1.00  0.00     0.021 A 
HETATM   12  C   UNL     1      38.988 -12.379   4.051  1.00  0.00     0.031 A 
HETATM   13  H   UNL     1      38.442 -14.537   2.640  1.00  0.00     0.170 HD
ENDROOT
BRANCH   1  14
HETATM   14  C   UNL     1      42.475 -16.387   2.603  1.00  0.00     0.043 A 
HETATM   15  C   UNL     1      43.072 -16.849   1.427  1.00  0.00     0.032 A 
HETATM   16  C   UNL     1      43.891 -17.984   1.439  1.00  0.00     0.039 A 
HETATM   17  C   UNL     1      44.118 -18.690   2.622  1.00  0.00     0.068 A 
HETATM   18  C   UNL     1      43.514 -18.249   3.796  1.00  0.00     0.039 A 
HETATM   19  C   UNL     1      42.696 -17.111   3.783  1.00  0.00     0.032 A 
BRANCH  17  20
HETATM   20  O   UNL     1      44.926 -19.785   2.495  1.00  0.00    -0.352 OA
BRANCH  20  21
HETATM   21  C   UNL     1      44.385 -21.041   2.897  1.00  0.00     0.171 C 
HETATM   22  C   UNL     1      43.992 -21.807   1.646  1.00  0.00     0.034 C 
ENDBRANCH  20  21
ENDBRANCH  17  20
ENDBRANCH   1  14
BRANCH   2  23
HETATM   23  O   UNL     1      43.468 -13.791   3.005  1.00  0.00    -0.359 OA
HETATM   24  H   UNL     1      43.685 -14.692   3.311  1.00  0.00     0.213 HD
ENDBRANCH   2  23
BRANCH   2  25
HETATM   25  C   UNL     1      42.126 -13.410   1.054  1.00  0.00     0.279 C 
HETATM   26  N   UNL     1      41.536 -14.248   0.120  1.00  0.00    -0.352 N 
HETATM   27  H   UNL     1      41.138 -15.132   0.414  1.00  0.00     0.163 HD
HETATM   28  O   UNL     1      42.556 -12.296   0.734  1.00  0.00    -0.268 OA
BRANCH  26  29
HETATM   29  C   UNL     1      41.488 -13.931  -1.272  1.00  0.00     0.084 A 
HETATM   30  C   UNL     1      41.102 -14.978  -2.279  1.00  0.00     0.027 A 
HETATM   31  C   UNL     1      40.168 -13.841  -1.989  1.00  0.00     0.027 A 
ENDBRANCH  26  29
ENDBRANCH   2  25
TORSDOF 6
ENDMDL
MODEL 6
REMARK VINA RESULT:      -7.1      2.911      5.367
REMARK  6 active torsions:
REMARK  status: ('A' for Active; 'I' for Inactive)
REMARK    1  A    between atoms: C_2  and  O_3 
REMARK    2  A    between atoms: O_3  and  C_4 
REMARK    3  A    between atoms: C_7  and  N_8 
REMARK    4  A    between atoms: C_9  and  O_10 
REMARK    5  A    between atoms: C_9  and  C_11 
REMARK       I    between atoms: C_11  and  N_12 
REMARK    6  A    between atoms: N_12  and  C_13 
ROOT
HETATM    1  N   UNL     1      42.344 -15.436   1.904  1.00  0.00    -0.254 N 
HETATM    2  C   UNL     1      41.015 -15.339   1.287  1.00  0.00     0.256 C 
HETATM    3  C   UNL     1      41.027 -14.287   0.200  1.00  0.00     0.035 A 
HETATM    4  C   UNL     1      41.740 -13.125   0.489  1.00  0.00     0.048 A 
HETATM    5  N   UNL     1      42.512 -13.103   1.649  1.00  0.00    -0.308 N 
HETATM    6  C   UNL     1      42.922 -14.234   2.322  1.00  0.00     0.330 C 
HETATM    7  O   UNL     1      43.823 -14.102   3.148  1.00  0.00    -0.246 OA
HETATM    8  C   UNL     1      40.301 -14.368  -0.996  1.00  0.00     0.034 A 
HETATM    9  C   UNL     1      40.288 -13.280  -1.870  1.00  0.00     0.011 A 
HETATM   10 BR   UNL     1      39.310 -13.387  -3.484  1.00  0.00    -0.051 Br
HETATM   11  C   UNL     1      40.978 -12.108  -1.556  1.00  0.00     0.021 A 
HETATM   12  C   UNL     1      41.705 -12.027  -0.366  1.00  0.00     0.031 A 
HETATM   13  H   UNL     1      43.045 -12.276   1.889  1.00  0.00     0.170 HD
ENDROOT
BRANCH   1  14
HETATM   14  C   UNL     1      42.894 -16.690   2.309  1.00  0.00     0.043 A 
HETATM   15  C   UNL     1      43.729 -17.434   1.472  1.00  0.00     0.032 A 
HETATM   16  C   UNL     1      44.219 -18.682   1.874  1.00  0.00     0.039 A 
HETATM   17  C   UNL     1      43.872 -19.220   3.115  1.00  0.00     0.068 A 
HETATM   18  C   UNL     1      43.028 -18.494   3.951  1.00  0.00     0.039 A 
HETATM   19  C   UNL     1      42.540 -17.244   3.547  1.00  0.00     0.032 A 
BRANCH  17  20
HETATM   20  O   UNL     1      44.408 -20.448   3.381  1.00  0.00    -0.352 OA
BRANCH  20  21
HETATM   21  C   UNL     1      45.053 -20.615   4.643  1.00  0.00     0.171 C 
HETATM   22  C   UNL     1      44.777 -22.026   5.130  1.00  0.00     0.034 C 
ENDBRANCH  20  21
ENDBRANCH  17  20
ENDBRANCH   1  14
BRANCH   2  23
HETATM   23  O   UNL     1      40.581 -16.578   0.720  1.00  0.00    -0.359 OA
HETATM   24  H   UNL     1      39.684 -16.708   1.084  1.00  0.00     0.213 HD
ENDBRANCH   2  23
BRANCH   2  25
HETATM   25  C   UNL     1      39.963 -15.024   2.439  1.00  0.00     0.279 C 
HETATM   26  N   UNL     1      40.464 -14.565   3.649  1.00  0.00    -0.352 N 
HETATM   27  H   UNL     1      41.464 -14.465   3.777  1.00  0.00     0.163 HD
HETATM   28  O   UNL     1      38.746 -15.088   2.233  1.00  0.00    -0.268 OA
BRANCH  26  29
HETATM   29  C   UNL     1      39.619 -14.246   4.756  1.00  0.00     0.084 A 
HETATM   30  C   UNL     1      40.215 -13.890   6.090  1.00  0.00     0.027 A 
HETATM   31  C   UNL     1      39.535 -12.835   5.270  1.00  0.00     0.027 A 
ENDBRANCH  26  29
ENDBRANCH   2  25
TORSDOF 6
ENDMDL
MODEL 7
REMARK VINA RESULT:      -7.1      3.513      6.289
REMARK  6 active torsions:
REMARK  status: ('A' for Active; 'I' for Inactive)
REMARK    1  A    between atoms: C_2  and  O_3 
REMARK    2  A    between atoms: O_3  and  C_4 
REMARK    3  A    between atoms: C_7  and  N_8 
REMARK    4  A    between atoms: C_9  and  O_10 
REMARK    5  A    between atoms: C_9  and  C_11 
REMARK       I    between atoms: C_11  and  N_12 
REMARK    6  A    between atoms: N_12  and  C_13 
ROOT
HETATM    1  N   UNL     1      41.396 -15.020   2.428  1.00  0.00    -0.254 N 
HETATM    2  C   UNL     1      41.886 -13.639   2.330  1.00  0.00     0.256 C 
HETATM    3  C   UNL     1      41.066 -12.736   3.223  1.00  0.00     0.035 A 
HETATM    4  C   UNL     1      39.694 -12.981   3.239  1.00  0.00     0.048 A 
HETATM    5  N   UNL     1      39.227 -14.121   2.588  1.00  0.00    -0.308 N 
HETATM    6  C   UNL     1      40.020 -15.201   2.263  1.00  0.00     0.330 C 
HETATM    7  O   UNL     1      39.448 -16.247   1.960  1.00  0.00    -0.246 OA
HETATM    8  C   UNL     1      41.576 -11.639   3.932  1.00  0.00     0.034 A 
HETATM    9  C   UNL     1      40.703 -10.799   4.625  1.00  0.00     0.011 A 
HETATM   10 BR   UNL     1      41.388  -9.320   5.581  1.00  0.00    -0.051 Br
HETATM   11  C   UNL     1      39.327 -11.034   4.606  1.00  0.00     0.021 A 
HETATM   12  C   UNL     1      38.818 -12.128   3.905  1.00  0.00     0.031 A 
HETATM   13  H   UNL     1      38.236 -14.332   2.581  1.00  0.00     0.170 HD
ENDROOT
BRANCH   1  14
HETATM   14  C   UNL     1      42.286 -16.137   2.412  1.00  0.00     0.043 A 
HETATM   15  C   UNL     1      42.834 -16.626   1.223  1.00  0.00     0.032 A 
HETATM   16  C   UNL     1      43.667 -17.751   1.229  1.00  0.00     0.039 A 
HETATM   17  C   UNL     1      43.957 -18.420   2.420  1.00  0.00     0.068 A 
HETATM   18  C   UNL     1      43.403 -17.951   3.608  1.00  0.00     0.039 A 
HETATM   19  C   UNL     1      42.570 -16.823   3.600  1.00  0.00     0.032 A 
BRANCH  17  20
HETATM   20  O   UNL     1      44.773 -19.508   2.286  1.00  0.00    -0.352 OA
BRANCH  20  21
HETATM   21  C   UNL     1      44.323 -20.730   2.869  1.00  0.00     0.171 C 
HETATM   22  C   UNL     1      43.979 -21.689   1.743  1.00  0.00     0.034 C 
ENDBRANCH  20  21
ENDBRANCH  17  20
ENDBRANCH   1  14
BRANCH   2  23
HETATM   23  O   UNL     1      43.264 -13.519   2.696  1.00  0.00    -0.359 OA
HETATM   24  H   UNL     1      43.743 -13.570   1.846  1.00  0.00     0.213 HD
ENDBRANCH   2  23
BRANCH   2  25
HETATM   25  C   UNL     1      41.829 -13.209   0.798  1.00  0.00     0.279 C 
HETATM   26  N   UNL     1      42.516 -12.059   0.434  1.00  0.00    -0.352 N 
HETATM   27  H   UNL     1      43.007 -11.520   1.137  1.00  0.00     0.163 HD
HETATM   28  O   UNL     1      41.281 -13.923  -0.049  1.00  0.00    -0.268 OA
BRANCH  26  29
HETATM   29  C   UNL     1      42.541 -11.575  -0.909  1.00  0.00     0.084 A 
HETATM   30  C   UNL     1      41.902 -10.259  -1.256  1.00  0.00     0.027 A 
HETATM   31  C   UNL     1      43.396 -10.392  -1.279  1.00  0.00     0.027 A 
ENDBRANCH  26  29
ENDBRANCH   2  25
TORSDOF 6
ENDMDL
MODEL 8
REMARK VINA RESULT:      -6.8      3.938      6.295
REMARK  6 active torsions:
REMARK  status: ('A' for Active; 'I' for Inactive)
REMARK    1  A    between atoms: C_2  and  O_3 
REMARK    2  A    between atoms: O_3  and  C_4 
REMARK    3  A    between atoms: C_7  and  N_8 
REMARK    4  A    between atoms: C_9  and  O_10 
REMARK    5  A    between atoms: C_9  and  C_11 
REMARK       I    between atoms: C_11  and  N_12 
REMARK    6  A    between atoms: N_12  and  C_13 
ROOT
HETATM    1  N   UNL     1      41.289 -14.555   1.272  1.00  0.00    -0.254 N 
HETATM    2  C   UNL     1      41.096 -13.912  -0.034  1.00  0.00     0.256 C 
HETATM    3  C   UNL     1      41.493 -12.454   0.045  1.00  0.00     0.035 A 
HETATM    4  C   UNL     1      41.112 -11.785   1.206  1.00  0.00     0.048 A 
HETATM    5  N   UNL     1      40.572 -12.537   2.248  1.00  0.00    -0.308 N 
HETATM    6  C   UNL     1      40.728 -13.901   2.373  1.00  0.00     0.330 C 
HETATM    7  O   UNL     1      40.459 -14.401   3.464  1.00  0.00    -0.246 OA
HETATM    8  C   UNL     1      42.108 -11.738  -0.991  1.00  0.00     0.034 A 
HETATM    9  C   UNL     1      42.313 -10.364  -0.852  1.00  0.00     0.011 A 
HETATM   10 BR   UNL     1      43.143  -9.397  -2.247  1.00  0.00    -0.051 Br
HETATM   11  C   UNL     1      41.898  -9.697   0.302  1.00  0.00     0.021 A 
HETATM   12  C   UNL     1      41.288 -10.410   1.336  1.00  0.00     0.031 A 
HETATM   13  H   UNL     1      40.287 -12.084   3.108  1.00  0.00     0.170 HD
ENDROOT
BRANCH   1  14
HETATM   14  C   UNL     1      41.770 -15.895   1.386  1.00  0.00     0.043 A 
HETATM   15  C   UNL     1      40.921 -16.997   1.254  1.00  0.00     0.032 A 
HETATM   16  C   UNL     1      41.409 -18.299   1.416  1.00  0.00     0.039 A 
HETATM   17  C   UNL     1      42.749 -18.527   1.730  1.00  0.00     0.068 A 
HETATM   18  C   UNL     1      43.600 -17.435   1.881  1.00  0.00     0.039 A 
HETATM   19  C   UNL     1      43.111 -16.132   1.716  1.00  0.00     0.032 A 
BRANCH  17  20
HETATM   20  O   UNL     1      43.093 -19.842   1.872  1.00  0.00    -0.352 OA
BRANCH  20  21
HETATM   21  C   UNL     1      44.252 -20.128   2.653  1.00  0.00     0.171 C 
HETATM   22  C   UNL     1      44.553 -21.610   2.524  1.00  0.00     0.034 C 
ENDBRANCH  20  21
ENDBRANCH  17  20
ENDBRANCH   1  14
BRANCH   2  23
HETATM   23  O   UNL     1      41.856 -14.538  -1.072  1.00  0.00    -0.359 OA
HETATM   24  H   UNL     1      42.569 -13.899  -1.266  1.00  0.00     0.213 HD
ENDBRANCH   2  23
BRANCH   2  25
HETATM   25  C   UNL     1      39.576 -14.115  -0.459  1.00  0.00     0.279 C 
HETATM   26  N   UNL     1      39.307 -14.260  -1.813  1.00  0.00    -0.352 N 
HETATM   27  H   UNL     1      40.062 -14.211  -2.486  1.00  0.00     0.163 HD
HETATM   28  O   UNL     1      38.684 -14.241   0.388  1.00  0.00    -0.268 OA
BRANCH  26  29
HETATM   29  C   UNL     1      37.984 -14.452  -2.315  1.00  0.00     0.084 A 
HETATM   30  C   UNL     1      37.552 -13.789  -3.594  1.00  0.00     0.027 A 
HETATM   31  C   UNL     1      37.748 -15.276  -3.552  1.00  0.00     0.027 A 
ENDBRANCH  26  29
ENDBRANCH   2  25
TORSDOF 6
ENDMDL
MODEL 9
REMARK VINA RESULT:      -6.6      2.957      5.586
REMARK  6 active torsions:
REMARK  status: ('A' for Active; 'I' for Inactive)
REMARK    1  A    between atoms: C_2  and  O_3 
REMARK    2  A    between atoms: O_3  and  C_4 
REMARK    3  A    between atoms: C_7  and  N_8 
REMARK    4  A    between atoms: C_9  and  O_10 
REMARK    5  A    between atoms: C_9  and  C_11 
REMARK       I    between atoms: C_11  and  N_12 
REMARK    6  A    between atoms: N_12  and  C_13 
ROOT
HETATM    1  N   UNL     1      42.090 -14.210   4.121  1.00  0.00    -0.254 N 
HETATM    2  C   UNL     1      40.791 -13.531   4.208  1.00  0.00     0.256 C 
HETATM    3  C   UNL     1      40.356 -13.071   2.834  1.00  0.00     0.035 A 
HETATM    4  C   UNL     1      41.360 -12.538   2.027  1.00  0.00     0.048 A 
HETATM    5  N   UNL     1      42.677 -12.637   2.472  1.00  0.00    -0.308 N 
HETATM    6  C   UNL     1      43.100 -13.529   3.434  1.00  0.00     0.330 C 
HETATM    7  O   UNL     1      44.311 -13.721   3.532  1.00  0.00    -0.246 OA
HETATM    8  C   UNL     1      39.030 -13.054   2.382  1.00  0.00     0.034 A 
HETATM    9  C   UNL     1      38.732 -12.489   1.141  1.00  0.00     0.011 A 
HETATM   10 BR   UNL     1      36.944 -12.467   0.528  1.00  0.00    -0.051 Br
HETATM   11  C   UNL     1      39.740 -11.928   0.355  1.00  0.00     0.021 A 
HETATM   12  C   UNL     1      41.062 -11.948   0.802  1.00  0.00     0.031 A 
HETATM   13  H   UNL     1      43.433 -12.264   1.910  1.00  0.00     0.170 HD
ENDROOT
BRANCH   1  14
HETATM   14  C   UNL     1      42.394 -15.356   4.917  1.00  0.00     0.043 A 
HETATM   15  C   UNL     1      42.147 -16.655   4.465  1.00  0.00     0.032 A 
HETATM   16  C   UNL     1      42.412 -17.760   5.282  1.00  0.00     0.039 A 
HETATM   17  C   UNL     1      42.912 -17.590   6.574  1.00  0.00     0.068 A 
HETATM   18  C   UNL     1      43.147 -16.299   7.042  1.00  0.00     0.039 A 
HETATM   19  C   UNL     1      42.883 -15.194   6.221  1.00  0.00     0.032 A 
BRANCH  17  20
HETATM   20  O   UNL     1      43.115 -18.748   7.271  1.00  0.00    -0.352 OA
BRANCH  20  21
HETATM   21  C   UNL     1      43.953 -19.730   6.665  1.00  0.00     0.171 C 
HETATM   22  C   UNL     1      43.572 -21.087   7.231  1.00  0.00     0.034 C 
ENDBRANCH  20  21
ENDBRANCH  17  20
ENDBRANCH   1  14
BRANCH   2  23
HETATM   23  O   UNL     1      39.769 -14.369   4.756  1.00  0.00    -0.359 OA
HETATM   24  H   UNL     1      39.892 -14.297   5.722  1.00  0.00     0.213 HD
ENDBRANCH   2  23
BRANCH   2  25
HETATM   25  C   UNL     1      40.936 -12.331   5.244  1.00  0.00     0.279 C 
HETATM   26  N   UNL     1      40.365 -12.499   6.497  1.00  0.00    -0.352 N 
HETATM   27  H   UNL     1      39.861 -13.351   6.712  1.00  0.00     0.163 HD
HETATM   28  O   UNL     1      41.615 -11.332   4.978  1.00  0.00    -0.268 OA
BRANCH  26  29
HETATM   29  C   UNL     1      40.432 -11.495   7.511  1.00  0.00     0.084 A 
HETATM   30  C   UNL     1      39.491 -10.323   7.484  1.00  0.00     0.027 A 
HETATM   31  C   UNL     1      39.341 -11.376   8.541  1.00  0.00     0.027 A 
ENDBRANCH  26  29
ENDBRANCH   2  25
TORSDOF 6
ENDMDL
MODEL 10
REMARK VINA RESULT:      -6.5      3.266      4.857
REMARK  6 active torsions:
REMARK  status: ('A' for Active; 'I' for Inactive)
REMARK    1  A    between atoms: C_2  and  O_3 
REMARK    2  A    between atoms: O_3  and  C_4 
REMARK    3  A    between atoms: C_7  and  N_8 
REMARK    4  A    between atoms: C_9  and  O_10 
REMARK    5  A    between atoms: C_9  and  C_11 
REMARK       I    between atoms: C_11  and  N_12 
REMARK    6  A    between atoms: N_12  and  C_13 
ROOT
HETATM    1  N   UNL     1      40.543 -14.798   2.884  1.00  0.00    -0.254 N 
HETATM    2  C   UNL     1      40.519 -13.355   2.611  1.00  0.00     0.256 C 
HETATM    3  C   UNL     1      39.180 -12.963   2.027  1.00  0.00     0.035 A 
HETATM    4  C   UNL     1      38.641 -13.849   1.097  1.00  0.00     0.048 A 
HETATM    5  N   UNL     1      39.275 -15.078   0.921  1.00  0.00    -0.308 N 
HETATM    6  C   UNL     1      40.145 -15.633   1.836  1.00  0.00     0.330 C 
HETATM    7  O   UNL     1      40.409 -16.827   1.708  1.00  0.00    -0.246 OA
HETATM    8  C   UNL     1      38.523 -11.751   2.281  1.00  0.00     0.034 A 
HETATM    9  C   UNL     1      37.352 -11.442   1.587  1.00  0.00     0.011 A 
HETATM   10 BR   UNL     1      36.465  -9.809   1.929  1.00  0.00    -0.051 Br
HETATM   11  C   UNL     1      36.839 -12.322   0.633  1.00  0.00     0.021 A 
HETATM   12  C   UNL     1      37.489 -13.531   0.381  1.00  0.00     0.031 A 
HETATM   13  H   UNL     1      38.909 -15.748   0.256  1.00  0.00     0.170 HD
ENDROOT
BRANCH   1  14
HETATM   14  C   UNL     1      41.191 -15.334   4.038  1.00  0.00     0.043 A 
HETATM   15  C   UNL     1      40.492 -15.608   5.216  1.00  0.00     0.032 A 
HETATM   16  C   UNL     1      41.160 -16.091   6.348  1.00  0.00     0.039 A 
HETATM   17  C   UNL     1      42.541 -16.293   6.332  1.00  0.00     0.068 A 
HETATM   18  C   UNL     1      43.250 -16.007   5.169  1.00  0.00     0.039 A 
HETATM   19  C   UNL     1      42.580 -15.527   4.035  1.00  0.00     0.032 A 
BRANCH  17  20
HETATM   20  O   UNL     1      43.070 -16.755   7.504  1.00  0.00    -0.352 OA
BRANCH  20  21
HETATM   21  C   UNL     1      44.166 -17.662   7.407  1.00  0.00     0.171 C 
HETATM   22  C   UNL     1      43.606 -19.057   7.196  1.00  0.00     0.034 C 
ENDBRANCH  20  21
ENDBRANCH  17  20
ENDBRANCH   1  14
BRANCH   2  23
HETATM   23  O   UNL     1      40.754 -12.571   3.784  1.00  0.00    -0.359 OA
HETATM   24  H   UNL     1      39.873 -12.225   4.023  1.00  0.00     0.213 HD
ENDBRANCH   2  23
BRANCH   2  25
HETATM   25  C   UNL     1      41.737 -13.021   1.642  1.00  0.00     0.279 C 
HETATM   26  N   UNL     1      41.429 -12.566   0.368  1.00  0.00    -0.352 N 
HETATM   27  H   UNL     1      40.462 -12.482   0.081  1.00  0.00     0.163 HD
HETATM   28  O   UNL     1      42.906 -13.067   2.041  1.00  0.00    -0.268 OA
BRANCH  26  29
HETATM   29  C   UNL     1      42.435 -12.232  -0.589  1.00  0.00     0.084 A 
HETATM   30  C   UNL     1      42.372 -12.787  -1.985  1.00  0.00     0.027 A 
HETATM   31  C   UNL     1      42.115 -11.328  -1.749  1.00  0.00     0.027 A 
ENDBRANCH  26  29
ENDBRANCH   2  25
TORSDOF 6
ENDMDL
