MODEL 1
REMARK VINA RESULT:     -10.4      0.000      0.000
REMARK  7 active torsions:
REMARK  status: ('A' for Active; 'I' for Inactive)
REMARK    1  A    between atoms: C_3  and  C_4 
REMARK       I    between atoms: C_4  and  N_5 
REMARK    2  A    between atoms: N_5  and  C_6 
REMARK    3  A    between atoms: C_6  and  C_7 
REMARK    4  A    between atoms: N_23  and  C_24 
REMARK    5  A    between atoms: C_24  and  C_25 
REMARK       I    between atoms: C_25  and  N_26 
REMARK    6  A    between atoms: N_26  and  C_27 
REMARK    7  A    between atoms: C_29  and  C_30 
ROOT
HETATM    1  C   UNL     1      42.373 -12.897   5.238  1.00  0.00     0.051 C 
HETATM    2  C   UNL     1      41.116 -12.662   4.457  1.00  0.00    -0.021 C 
HETATM    3  C   UNL     1      39.982 -12.016   4.953  1.00  0.00     0.081 C 
HETATM    4  S   UNL     1      38.785 -11.831   3.734  1.00  0.00    -0.063 SA
HETATM    5  C   UNL     1      39.673 -12.735   2.606  1.00  0.00     0.116 A 
HETATM    6  C   UNL     1      40.884 -13.145   3.117  1.00  0.00     0.075 A 
HETATM    7  C   UNL     1      41.705 -13.999   2.270  1.00  0.00     0.262 A 
HETATM    8  O   UNL     1      42.826 -14.398   2.585  1.00  0.00    -0.267 OA
HETATM    9  N   UNL     1      41.108 -14.346   1.061  1.00  0.00    -0.299 N 
HETATM   10  C   UNL     1      39.905 -13.799   0.662  1.00  0.00     0.214 A 
HETATM   11  N   UNL     1      39.172 -13.005   1.374  1.00  0.00    -0.235 NA
ENDROOT
BRANCH   3  12
HETATM   12  C   UNL     1      39.732 -11.549   6.318  1.00  0.00     0.259 C 
HETATM   13  N   UNL     1      40.294 -10.335   6.657  1.00  0.00    -0.354 N 
HETATM   14  H   UNL     1      40.946  -9.911   6.006  1.00  0.00     0.162 HD
HETATM   15  O   UNL     1      39.035 -12.158   7.128  1.00  0.00    -0.267 OA
BRANCH  13  16
HETATM   16  C   UNL     1      40.076  -9.706   7.947  1.00  0.00     0.157 C 
BRANCH  16  17
HETATM   17  C   UNL     1      41.028 -10.216   9.034  1.00  0.00     0.171 C 
HETATM   18  O   UNL     1      42.205 -10.734   8.385  1.00  0.00    -0.339 OA
HETATM   19  C   UNL     1      43.228 -10.926   9.277  1.00  0.00     0.102 A 
HETATM   20  C   UNL     1      43.253 -10.351  10.551  1.00  0.00     0.102 A 
HETATM   21  C   UNL     1      44.285 -11.730   8.855  1.00  0.00     0.039 A 
HETATM   22  O   UNL     1      42.263  -9.527  11.024  1.00  0.00    -0.346 OA
HETATM   23  C   UNL     1      44.315 -10.609  11.414  1.00  0.00     0.039 A 
HETATM   24  C   UNL     1      41.415  -9.068   9.966  1.00  0.00     0.209 C 
HETATM   25  C   UNL     1      45.368 -11.425  10.996  1.00  0.00     0.003 A 
HETATM   26  C   UNL     1      45.355 -11.981   9.716  1.00  0.00     0.003 A 
ENDBRANCH  16  17
ENDBRANCH  13  16
ENDBRANCH   3  12
BRANCH   9  27
HETATM   27  C   UNL     1      41.764 -15.340   0.231  1.00  0.00     0.236 C 
BRANCH  27  28
HETATM   28  C   UNL     1      41.865 -16.676   0.957  1.00  0.00     0.240 C 
HETATM   29  N   UNL     1      43.161 -16.992   1.328  1.00  0.00    -0.326 N 
HETATM   30  H   UNL     1      43.903 -16.442   0.893  1.00  0.00     0.169 HD
HETATM   31  O   UNL     1      40.866 -17.370   1.128  1.00  0.00    -0.271 OA
BRANCH  29  32
HETATM   32  C   UNL     1      43.577 -18.046   2.163  1.00  0.00     0.035 A 
HETATM   33  C   UNL     1      43.657 -19.378   1.749  1.00  0.00     0.045 A 
HETATM   34  C   UNL     1      44.032 -20.391   2.650  1.00  0.00     0.050 A 
HETATM   35  C   UNL     1      44.339 -20.047   3.975  1.00  0.00     0.016 A 
HETATM   36  C   UNL     1      44.264 -18.720   4.393  1.00  0.00     0.003 A 
HETATM   37  C   UNL     1      43.879 -17.727   3.492  1.00  0.00     0.029 A 
BRANCH  34  38
HETATM   38  C   UNL     1      44.099 -21.834   2.216  1.00  0.00     0.417 C 
HETATM   39  F   UNL     1      44.219 -22.718   3.245  1.00  0.00    -0.166 F 
HETATM   40  F   UNL     1      42.995 -22.221   1.518  1.00  0.00    -0.166 F 
HETATM   41  F   UNL     1      45.160 -22.078   1.394  1.00  0.00    -0.166 F 
ENDBRANCH  34  38
ENDBRANCH  29  32
ENDBRANCH  27  28
ENDBRANCH   9  27
TORSDOF 7
ENDMDL
MODEL 2
REMARK VINA RESULT:     -10.1      4.254      6.183
REMARK  7 active torsions:
REMARK  status: ('A' for Active; 'I' for Inactive)
REMARK    1  A    between atoms: C_3  and  C_4 
REMARK       I    between atoms: C_4  and  N_5 
REMARK    2  A    between atoms: N_5  and  C_6 
REMARK    3  A    between atoms: C_6  and  C_7 
REMARK    4  A    between atoms: N_23  and  C_24 
REMARK    5  A    between atoms: C_24  and  C_25 
REMARK       I    between atoms: C_25  and  N_26 
REMARK    6  A    between atoms: N_26  and  C_27 
REMARK    7  A    between atoms: C_29  and  C_30 
ROOT
HETATM    1  C   UNL     1      42.347 -12.878   5.320  1.00  0.00     0.051 C 
HETATM    2  C   UNL     1      42.877 -14.258   5.568  1.00  0.00    -0.021 C 
HETATM    3  C   UNL     1      43.939 -14.558   6.421  1.00  0.00     0.081 C 
HETATM    4  S   UNL     1      44.187 -16.255   6.536  1.00  0.00    -0.063 SA
HETATM    5  C   UNL     1      43.019 -16.591   5.352  1.00  0.00     0.116 A 
HETATM    6  C   UNL     1      42.410 -15.445   4.893  1.00  0.00     0.075 A 
HETATM    7  C   UNL     1      41.444 -15.595   3.814  1.00  0.00     0.262 A 
HETATM    8  O   UNL     1      40.796 -14.661   3.343  1.00  0.00    -0.267 OA
HETATM    9  N   UNL     1      41.318 -16.898   3.338  1.00  0.00    -0.299 N 
HETATM   10  C   UNL     1      41.957 -17.958   3.949  1.00  0.00     0.214 A 
HETATM   11  N   UNL     1      42.788 -17.862   4.936  1.00  0.00    -0.235 NA
ENDROOT
BRANCH   3  12
HETATM   12  C   UNL     1      44.812 -13.629   7.142  1.00  0.00     0.259 C 
HETATM   13  N   UNL     1      44.325 -13.146   8.340  1.00  0.00    -0.354 N 
HETATM   14  H   UNL     1      43.361 -13.346   8.581  1.00  0.00     0.162 HD
HETATM   15  O   UNL     1      45.933 -13.307   6.751  1.00  0.00    -0.267 OA
BRANCH  13  16
HETATM   16  C   UNL     1      45.101 -12.274   9.203  1.00  0.00     0.157 C 
BRANCH  16  17
HETATM   17  C   UNL     1      44.255 -11.579  10.275  1.00  0.00     0.171 C 
HETATM   18  O   UNL     1      42.970 -11.278   9.698  1.00  0.00    -0.339 OA
HETATM   19  C   UNL     1      42.054 -10.938  10.660  1.00  0.00     0.102 A 
HETATM   20  C   UNL     1      42.233 -11.212  12.019  1.00  0.00     0.102 A 
HETATM   21  C   UNL     1      40.893 -10.303  10.223  1.00  0.00     0.039 A 
HETATM   22  O   UNL     1      43.334 -11.859  12.518  1.00  0.00    -0.346 OA
HETATM   23  C   UNL     1      41.269 -10.816  12.944  1.00  0.00     0.039 A 
HETATM   24  C   UNL     1      44.078 -12.503  11.478  1.00  0.00     0.209 C 
HETATM   25  C   UNL     1      40.112 -10.168  12.508  1.00  0.00     0.003 A 
HETATM   26  C   UNL     1      39.923  -9.915  11.149  1.00  0.00     0.003 A 
ENDBRANCH  16  17
ENDBRANCH  13  16
ENDBRANCH   3  12
BRANCH   9  27
HETATM   27  C   UNL     1      40.522 -17.120   2.146  1.00  0.00     0.236 C 
BRANCH  27  28
HETATM   28  C   UNL     1      41.269 -16.662   0.898  1.00  0.00     0.240 C 
HETATM   29  N   UNL     1      40.556 -15.741   0.150  1.00  0.00    -0.326 N 
HETATM   30  H   UNL     1      39.564 -15.647   0.373  1.00  0.00     0.169 HD
HETATM   31  O   UNL     1      42.370 -17.132   0.623  1.00  0.00    -0.271 OA
BRANCH  29  32
HETATM   32  C   UNL     1      41.020 -14.987  -0.944  1.00  0.00     0.035 A 
HETATM   33  C   UNL     1      41.530 -13.691  -0.832  1.00  0.00     0.045 A 
HETATM   34  C   UNL     1      41.930 -12.973  -1.974  1.00  0.00     0.050 A 
HETATM   35  C   UNL     1      41.822 -13.579  -3.234  1.00  0.00     0.016 A 
HETATM   36  C   UNL     1      41.317 -14.872  -3.352  1.00  0.00     0.003 A 
HETATM   37  C   UNL     1      40.913 -15.569  -2.213  1.00  0.00     0.029 A 
BRANCH  34  38
HETATM   38  C   UNL     1      42.461 -11.565  -1.862  1.00  0.00     0.417 C 
HETATM   39  F   UNL     1      41.600 -10.693  -1.269  1.00  0.00    -0.166 F 
HETATM   40  F   UNL     1      43.616 -11.499  -1.142  1.00  0.00    -0.166 F 
HETATM   41  F   UNL     1      42.752 -11.025  -3.080  1.00  0.00    -0.166 F 
ENDBRANCH  34  38
ENDBRANCH  29  32
ENDBRANCH  27  28
ENDBRANCH   9  27
TORSDOF 7
ENDMDL
MODEL 3
REMARK VINA RESULT:     -10.0      3.679      9.370
REMARK  7 active torsions:
REMARK  status: ('A' for Active; 'I' for Inactive)
REMARK    1  A    between atoms: C_3  and  C_4 
REMARK       I    between atoms: C_4  and  N_5 
REMARK    2  A    between atoms: N_5  and  C_6 
REMARK    3  A    between atoms: C_6  and  C_7 
REMARK    4  A    between atoms: N_23  and  C_24 
REMARK    5  A    between atoms: C_24  and  C_25 
REMARK       I    between atoms: C_25  and  N_26 
REMARK    6  A    between atoms: N_26  and  C_27 
REMARK    7  A    between atoms: C_29  and  C_30 
ROOT
HETATM    1  C   UNL     1      40.176 -14.814   5.549  1.00  0.00     0.051 C 
HETATM    2  C   UNL     1      39.864 -13.762   4.528  1.00  0.00    -0.021 C 
HETATM    3  C   UNL     1      39.913 -13.958   3.147  1.00  0.00     0.081 C 
HETATM    4  S   UNL     1      39.382 -12.560   2.299  1.00  0.00    -0.063 SA
HETATM    5  C   UNL     1      39.244 -11.646   3.722  1.00  0.00     0.116 A 
HETATM    6  C   UNL     1      39.553 -12.388   4.840  1.00  0.00     0.075 A 
HETATM    7  C   UNL     1      39.549 -11.691   6.118  1.00  0.00     0.262 A 
HETATM    8  O   UNL     1      39.763 -12.243   7.197  1.00  0.00    -0.267 OA
HETATM    9  N   UNL     1      39.294 -10.325   6.022  1.00  0.00    -0.299 N 
HETATM   10  C   UNL     1      38.938  -9.735   4.826  1.00  0.00     0.214 A 
HETATM   11  N   UNL     1      38.891 -10.336   3.681  1.00  0.00    -0.235 NA
ENDROOT
BRANCH   3  12
HETATM   12  C   UNL     1      40.371 -15.141   2.417  1.00  0.00     0.259 C 
HETATM   13  N   UNL     1      41.723 -15.201   2.146  1.00  0.00    -0.354 N 
HETATM   14  H   UNL     1      42.288 -14.382   2.341  1.00  0.00     0.162 HD
HETATM   15  O   UNL     1      39.629 -16.063   2.082  1.00  0.00    -0.267 OA
BRANCH  13  16
HETATM   16  C   UNL     1      42.339 -16.343   1.494  1.00  0.00     0.157 C 
BRANCH  16  17
HETATM   17  C   UNL     1      42.640 -17.497   2.457  1.00  0.00     0.171 C 
HETATM   18  O   UNL     1      43.048 -18.634   1.671  1.00  0.00    -0.339 OA
HETATM   19  C   UNL     1      43.625 -19.603   2.450  1.00  0.00     0.102 A 
HETATM   20  C   UNL     1      44.092 -19.366   3.747  1.00  0.00     0.102 A 
HETATM   21  C   UNL     1      43.748 -20.871   1.885  1.00  0.00     0.039 A 
HETATM   22  O   UNL     1      44.032 -18.139   4.356  1.00  0.00    -0.346 OA
HETATM   23  C   UNL     1      44.647 -20.406   4.490  1.00  0.00     0.039 A 
HETATM   24  C   UNL     1      43.764 -17.098   3.411  1.00  0.00     0.209 C 
HETATM   25  C   UNL     1      44.758 -21.680   3.929  1.00  0.00     0.003 A 
HETATM   26  C   UNL     1      44.312 -21.910   2.626  1.00  0.00     0.003 A 
ENDBRANCH  16  17
ENDBRANCH  13  16
ENDBRANCH   3  12
BRANCH   9  27
HETATM   27  C   UNL     1      39.451  -9.512   7.214  1.00  0.00     0.236 C 
BRANCH  27  28
HETATM   28  C   UNL     1      40.912  -9.456   7.648  1.00  0.00     0.240 C 
HETATM   29  N   UNL     1      41.117  -9.965   8.919  1.00  0.00    -0.326 N 
HETATM   30  H   UNL     1      40.283 -10.099   9.493  1.00  0.00     0.169 HD
HETATM   31  O   UNL     1      41.762  -8.962   6.913  1.00  0.00    -0.271 OA
BRANCH  29  32
HETATM   32  C   UNL     1      42.350 -10.230   9.544  1.00  0.00     0.035 A 
HETATM   33  C   UNL     1      43.378 -10.966   8.950  1.00  0.00     0.045 A 
HETATM   34  C   UNL     1      44.566 -11.239   9.650  1.00  0.00     0.050 A 
HETATM   35  C   UNL     1      44.717 -10.751  10.957  1.00  0.00     0.016 A 
HETATM   36  C   UNL     1      43.696 -10.014  11.554  1.00  0.00     0.003 A 
HETATM   37  C   UNL     1      42.517  -9.761  10.852  1.00  0.00     0.029 A 
BRANCH  34  38
HETATM   38  C   UNL     1      45.672 -12.052   9.022  1.00  0.00     0.417 C 
HETATM   39  F   UNL     1      45.244 -12.933   8.078  1.00  0.00    -0.166 F 
HETATM   40  F   UNL     1      46.608 -11.273   8.411  1.00  0.00    -0.166 F 
HETATM   41  F   UNL     1      46.352 -12.796   9.941  1.00  0.00    -0.166 F 
ENDBRANCH  34  38
ENDBRANCH  29  32
ENDBRANCH  27  28
ENDBRANCH   9  27
TORSDOF 7
ENDMDL
MODEL 4
REMARK VINA RESULT:      -9.9      1.592      2.241
REMARK  7 active torsions:
REMARK  status: ('A' for Active; 'I' for Inactive)
REMARK    1  A    between atoms: C_3  and  C_4 
REMARK       I    between atoms: C_4  and  N_5 
REMARK    2  A    between atoms: N_5  and  C_6 
REMARK    3  A    between atoms: C_6  and  C_7 
REMARK    4  A    between atoms: N_23  and  C_24 
REMARK    5  A    between atoms: C_24  and  C_25 
REMARK       I    between atoms: C_25  and  N_26 
REMARK    6  A    between atoms: N_26  and  C_27 
REMARK    7  A    between atoms: C_29  and  C_30 
ROOT
HETATM    1  C   UNL     1      39.840 -13.399   6.255  1.00  0.00     0.051 C 
HETATM    2  C   UNL     1      40.195 -12.567   5.060  1.00  0.00    -0.021 C 
HETATM    3  C   UNL     1      40.157 -11.172   5.025  1.00  0.00     0.081 C 
HETATM    4  S   UNL     1      40.740 -10.570   3.524  1.00  0.00    -0.063 SA
HETATM    5  C   UNL     1      40.888 -12.125   2.861  1.00  0.00     0.116 A 
HETATM    6  C   UNL     1      40.543 -13.103   3.766  1.00  0.00     0.075 A 
HETATM    7  C   UNL     1      40.552 -14.478   3.289  1.00  0.00     0.262 A 
HETATM    8  O   UNL     1      40.309 -15.450   4.005  1.00  0.00    -0.267 OA
HETATM    9  N   UNL     1      40.848 -14.611   1.935  1.00  0.00    -0.299 N 
HETATM   10  C   UNL     1      41.236 -13.531   1.168  1.00  0.00     0.214 A 
HETATM   11  N   UNL     1      41.279 -12.303   1.574  1.00  0.00    -0.235 NA
ENDROOT
BRANCH   3  12
HETATM   12  C   UNL     1      39.673 -10.253   6.057  1.00  0.00     0.259 C 
HETATM   13  N   UNL     1      40.520 -10.042   7.126  1.00  0.00    -0.354 N 
HETATM   14  H   UNL     1      41.347 -10.622   7.204  1.00  0.00     0.162 HD
HETATM   15  O   UNL     1      38.598  -9.660   5.989  1.00  0.00    -0.267 OA
BRANCH  13  16
HETATM   16  C   UNL     1      40.213  -9.105   8.191  1.00  0.00     0.157 C 
BRANCH  16  17
HETATM   17  C   UNL     1      41.320  -9.010   9.248  1.00  0.00     0.171 C 
HETATM   18  O   UNL     1      40.690  -8.889  10.538  1.00  0.00    -0.339 OA
HETATM   19  C   UNL     1      41.583  -9.106  11.556  1.00  0.00     0.102 A 
HETATM   20  C   UNL     1      42.823  -9.724  11.368  1.00  0.00     0.102 A 
HETATM   21  C   UNL     1      41.197  -8.689  12.828  1.00  0.00     0.039 A 
HETATM   22  O   UNL     1      43.258 -10.186  10.152  1.00  0.00    -0.346 OA
HETATM   23  C   UNL     1      43.690  -9.890  12.446  1.00  0.00     0.039 A 
HETATM   24  C   UNL     1      42.183 -10.269   9.210  1.00  0.00     0.209 C 
HETATM   25  C   UNL     1      43.309  -9.461  13.718  1.00  0.00     0.003 A 
HETATM   26  C   UNL     1      42.062  -8.864  13.909  1.00  0.00     0.003 A 
ENDBRANCH  16  17
ENDBRANCH  13  16
ENDBRANCH   3  12
BRANCH   9  27
HETATM   27  C   UNL     1      40.701 -15.919   1.324  1.00  0.00     0.236 C 
BRANCH  27  28
HETATM   28  C   UNL     1      41.971 -16.745   1.492  1.00  0.00     0.240 C 
HETATM   29  N   UNL     1      42.037 -17.390   2.715  1.00  0.00    -0.326 N 
HETATM   30  H   UNL     1      41.379 -17.075   3.430  1.00  0.00     0.169 HD
HETATM   31  O   UNL     1      42.825 -16.761   0.610  1.00  0.00    -0.271 OA
BRANCH  29  32
HETATM   32  C   UNL     1      42.969 -18.366   3.116  1.00  0.00     0.035 A 
HETATM   33  C   UNL     1      43.163 -19.576   2.446  1.00  0.00     0.045 A 
HETATM   34  C   UNL     1      44.075 -20.531   2.930  1.00  0.00     0.050 A 
HETATM   35  C   UNL     1      44.804 -20.249   4.095  1.00  0.00     0.016 A 
HETATM   36  C   UNL     1      44.617 -19.043   4.767  1.00  0.00     0.003 A 
HETATM   37  C   UNL     1      43.700 -18.110   4.282  1.00  0.00     0.029 A 
BRANCH  34  38
HETATM   38  C   UNL     1      44.273 -21.849   2.223  1.00  0.00     0.417 C 
HETATM   39  F   UNL     1      45.361 -21.881   1.406  1.00  0.00    -0.166 F 
HETATM   40  F   UNL     1      44.424 -22.888   3.090  1.00  0.00    -0.166 F 
HETATM   41  F   UNL     1      43.209 -22.176   1.434  1.00  0.00    -0.166 F 
ENDBRANCH  34  38
ENDBRANCH  29  32
ENDBRANCH  27  28
ENDBRANCH   9  27
TORSDOF 7
ENDMDL
MODEL 5
REMARK VINA RESULT:      -9.9      1.497      1.959
REMARK  7 active torsions:
REMARK  status: ('A' for Active; 'I' for Inactive)
REMARK    1  A    between atoms: C_3  and  C_4 
REMARK       I    between atoms: C_4  and  N_5 
REMARK    2  A    between atoms: N_5  and  C_6 
REMARK    3  A    between atoms: C_6  and  C_7 
REMARK    4  A    between atoms: N_23  and  C_24 
REMARK    5  A    between atoms: C_24  and  C_25 
REMARK       I    between atoms: C_25  and  N_26 
REMARK    6  A    between atoms: N_26  and  C_27 
REMARK    7  A    between atoms: C_29  and  C_30 
ROOT
HETATM    1  C   UNL     1      42.409 -13.086   4.972  1.00  0.00     0.051 C 
HETATM    2  C   UNL     1      41.187 -12.816   4.148  1.00  0.00    -0.021 C 
HETATM    3  C   UNL     1      40.095 -12.057   4.573  1.00  0.00     0.081 C 
HETATM    4  S   UNL     1      38.936 -11.873   3.317  1.00  0.00    -0.063 SA
HETATM    5  C   UNL     1      39.776 -12.915   2.274  1.00  0.00     0.116 A 
HETATM    6  C   UNL     1      40.944 -13.374   2.839  1.00  0.00     0.075 A 
HETATM    7  C   UNL     1      41.715 -14.342   2.072  1.00  0.00     0.262 A 
HETATM    8  O   UNL     1      42.799 -14.797   2.439  1.00  0.00    -0.267 OA
HETATM    9  N   UNL     1      41.116 -14.729   0.876  1.00  0.00    -0.299 N 
HETATM   10  C   UNL     1      39.964 -14.127   0.414  1.00  0.00     0.214 A 
HETATM   11  N   UNL     1      39.279 -13.234   1.052  1.00  0.00    -0.235 NA
ENDROOT
BRANCH   3  12
HETATM   12  C   UNL     1      39.855 -11.479   5.896  1.00  0.00     0.259 C 
HETATM   13  N   UNL     1      40.571 -10.340   6.199  1.00  0.00    -0.354 N 
HETATM   14  H   UNL     1      41.305 -10.051   5.562  1.00  0.00     0.162 HD
HETATM   15  O   UNL     1      39.042 -11.935   6.700  1.00  0.00    -0.267 OA
BRANCH  13  16
HETATM   16  C   UNL     1      40.390  -9.611   7.442  1.00  0.00     0.157 C 
BRANCH  16  17
HETATM   17  C   UNL     1      41.220 -10.176   8.599  1.00  0.00     0.171 C 
HETATM   18  O   UNL     1      42.431 -10.730   8.047  1.00  0.00    -0.339 OA
HETATM   19  C   UNL     1      43.361 -10.978   9.022  1.00  0.00     0.102 A 
HETATM   20  C   UNL     1      43.293 -10.425  10.305  1.00  0.00     0.102 A 
HETATM   21  C   UNL     1      44.421 -11.815   8.680  1.00  0.00     0.039 A 
HETATM   22  O   UNL     1      42.297  -9.571  10.704  1.00  0.00    -0.346 OA
HETATM   23  C   UNL     1      44.263 -10.741  11.254  1.00  0.00     0.039 A 
HETATM   24  C   UNL     1      41.565  -9.061   9.585  1.00  0.00     0.209 C 
HETATM   25  C   UNL     1      45.317 -11.591  10.915  1.00  0.00     0.003 A 
HETATM   26  C   UNL     1      45.398 -12.124   9.627  1.00  0.00     0.003 A 
ENDBRANCH  16  17
ENDBRANCH  13  16
ENDBRANCH   3  12
BRANCH   9  27
HETATM   27  C   UNL     1      41.713 -15.823   0.131  1.00  0.00     0.236 C 
BRANCH  27  28
HETATM   28  C   UNL     1      41.788 -17.085   0.983  1.00  0.00     0.240 C 
HETATM   29  N   UNL     1      43.087 -17.464   1.273  1.00  0.00    -0.326 N 
HETATM   30  H   UNL     1      43.823 -17.018   0.723  1.00  0.00     0.169 HD
HETATM   31  O   UNL     1      40.764 -17.679   1.308  1.00  0.00    -0.271 OA
BRANCH  29  32
HETATM   32  C   UNL     1      43.505 -18.459   2.176  1.00  0.00     0.035 A 
HETATM   33  C   UNL     1      43.668 -18.244   3.547  1.00  0.00     0.045 A 
HETATM   34  C   UNL     1      44.139 -19.270   4.386  1.00  0.00     0.050 A 
HETATM   35  C   UNL     1      44.433 -20.525   3.832  1.00  0.00     0.016 A 
HETATM   36  C   UNL     1      44.270 -20.746   2.467  1.00  0.00     0.003 A 
HETATM   37  C   UNL     1      43.814 -19.716   1.643  1.00  0.00     0.029 A 
BRANCH  34  38
HETATM   38  C   UNL     1      44.338 -19.038   5.864  1.00  0.00     0.417 C 
HETATM   39  F   UNL     1      45.534 -18.467   6.179  1.00  0.00    -0.166 F 
HETATM   40  F   UNL     1      43.384 -18.226   6.397  1.00  0.00    -0.166 F 
HETATM   41  F   UNL     1      44.282 -20.197   6.581  1.00  0.00    -0.166 F 
ENDBRANCH  34  38
ENDBRANCH  29  32
ENDBRANCH  27  28
ENDBRANCH   9  27
TORSDOF 7
ENDMDL
MODEL 6
REMARK VINA RESULT:      -9.9      3.960      8.388
REMARK  7 active torsions:
REMARK  status: ('A' for Active; 'I' for Inactive)
REMARK    1  A    between atoms: C_3  and  C_4 
REMARK       I    between atoms: C_4  and  N_5 
REMARK    2  A    between atoms: N_5  and  C_6 
REMARK    3  A    between atoms: C_6  and  C_7 
REMARK    4  A    between atoms: N_23  and  C_24 
REMARK    5  A    between atoms: C_24  and  C_25 
REMARK       I    between atoms: C_25  and  N_26 
REMARK    6  A    between atoms: N_26  and  C_27 
REMARK    7  A    between atoms: C_29  and  C_30 
ROOT
HETATM    1  C   UNL     1      40.605 -16.039   3.373  1.00  0.00     0.051 C 
HETATM    2  C   UNL     1      41.472 -14.985   3.993  1.00  0.00    -0.021 C 
HETATM    3  C   UNL     1      41.658 -13.704   3.472  1.00  0.00     0.081 C 
HETATM    4  S   UNL     1      42.628 -12.741   4.514  1.00  0.00    -0.063 SA
HETATM    5  C   UNL     1      42.941 -14.039   5.561  1.00  0.00     0.116 A 
HETATM    6  C   UNL     1      42.292 -15.186   5.163  1.00  0.00     0.075 A 
HETATM    7  C   UNL     1      42.547 -16.393   5.937  1.00  0.00     0.262 A 
HETATM    8  O   UNL     1      41.998 -17.473   5.717  1.00  0.00    -0.267 OA
HETATM    9  N   UNL     1      43.485 -16.232   6.954  1.00  0.00    -0.299 N 
HETATM   10  C   UNL     1      44.005 -14.993   7.271  1.00  0.00     0.214 A 
HETATM   11  N   UNL     1      43.766 -13.895   6.629  1.00  0.00    -0.235 NA
ENDROOT
BRANCH   3  12
HETATM   12  C   UNL     1      41.167 -13.162   2.204  1.00  0.00     0.259 C 
HETATM   13  N   UNL     1      42.100 -13.039   1.195  1.00  0.00    -0.354 N 
HETATM   14  H   UNL     1      43.075 -13.195   1.422  1.00  0.00     0.162 HD
HETATM   15  O   UNL     1      39.991 -12.860   2.003  1.00  0.00    -0.267 OA
BRANCH  13  16
HETATM   16  C   UNL     1      41.752 -12.586  -0.140  1.00  0.00     0.157 C 
BRANCH  16  17
HETATM   17  C   UNL     1      41.213 -13.707  -1.035  1.00  0.00     0.171 C 
HETATM   18  O   UNL     1      39.810 -13.463  -1.254  1.00  0.00    -0.339 OA
HETATM   19  C   UNL     1      39.319 -14.230  -2.278  1.00  0.00     0.102 A 
HETATM   20  C   UNL     1      40.136 -14.868  -3.216  1.00  0.00     0.102 A 
HETATM   21  C   UNL     1      37.933 -14.346  -2.366  1.00  0.00     0.039 A 
HETATM   22  O   UNL     1      41.504 -14.776  -3.210  1.00  0.00    -0.346 OA
HETATM   23  C   UNL     1      39.567 -15.652  -4.218  1.00  0.00     0.039 A 
HETATM   24  C   UNL     1      41.952 -13.705  -2.372  1.00  0.00     0.209 C 
HETATM   25  C   UNL     1      38.179 -15.780  -4.298  1.00  0.00     0.003 A 
HETATM   26  C   UNL     1      37.363 -15.123  -3.376  1.00  0.00     0.003 A 
ENDBRANCH  16  17
ENDBRANCH  13  16
ENDBRANCH   3  12
BRANCH   9  27
HETATM   27  C   UNL     1      43.943 -17.414   7.660  1.00  0.00     0.236 C 
BRANCH  27  28
HETATM   28  C   UNL     1      44.652 -18.375   6.712  1.00  0.00     0.240 C 
HETATM   29  N   UNL     1      43.909 -19.511   6.441  1.00  0.00    -0.326 N 
HETATM   30  H   UNL     1      43.112 -19.688   7.054  1.00  0.00     0.169 HD
HETATM   31  O   UNL     1      45.781 -18.124   6.299  1.00  0.00    -0.271 OA
BRANCH  29  32
HETATM   32  C   UNL     1      44.182 -20.499   5.477  1.00  0.00     0.035 A 
HETATM   33  C   UNL     1      43.866 -20.370   4.122  1.00  0.00     0.045 A 
HETATM   34  C   UNL     1      44.119 -21.418   3.219  1.00  0.00     0.050 A 
HETATM   35  C   UNL     1      44.708 -22.599   3.692  1.00  0.00     0.016 A 
HETATM   36  C   UNL     1      45.029 -22.734   5.041  1.00  0.00     0.003 A 
HETATM   37  C   UNL     1      44.761 -21.691   5.929  1.00  0.00     0.029 A 
BRANCH  34  38
HETATM   38  C   UNL     1      43.759 -21.292   1.759  1.00  0.00     0.417 C 
HETATM   39  F   UNL     1      43.783 -20.014   1.290  1.00  0.00    -0.166 F 
HETATM   40  F   UNL     1      44.597 -22.002   0.953  1.00  0.00    -0.166 F 
HETATM   41  F   UNL     1      42.506 -21.760   1.494  1.00  0.00    -0.166 F 
ENDBRANCH  34  38
ENDBRANCH  29  32
ENDBRANCH  27  28
ENDBRANCH   9  27
TORSDOF 7
ENDMDL
MODEL 7
REMARK VINA RESULT:      -9.6      4.005      8.986
REMARK  7 active torsions:
REMARK  status: ('A' for Active; 'I' for Inactive)
REMARK    1  A    between atoms: C_3  and  C_4 
REMARK       I    between atoms: C_4  and  N_5 
REMARK    2  A    between atoms: N_5  and  C_6 
REMARK    3  A    between atoms: C_6  and  C_7 
REMARK    4  A    between atoms: N_23  and  C_24 
REMARK    5  A    between atoms: C_24  and  C_25 
REMARK       I    between atoms: C_25  and  N_26 
REMARK    6  A    between atoms: N_26  and  C_27 
REMARK    7  A    between atoms: C_29  and  C_30 
ROOT
HETATM    1  C   UNL     1      39.866 -14.416   5.485  1.00  0.00     0.051 C 
HETATM    2  C   UNL     1      40.004 -13.339   4.451  1.00  0.00    -0.021 C 
HETATM    3  C   UNL     1      40.418 -13.551   3.135  1.00  0.00     0.081 C 
HETATM    4  S   UNL     1      40.345 -12.100   2.217  1.00  0.00    -0.063 SA
HETATM    5  C   UNL     1      39.932 -11.164   3.570  1.00  0.00     0.116 A 
HETATM    6  C   UNL     1      39.806 -11.932   4.706  1.00  0.00     0.075 A 
HETATM    7  C   UNL     1      39.533 -11.231   5.952  1.00  0.00     0.262 A 
HETATM    8  O   UNL     1      39.353 -11.799   7.030  1.00  0.00    -0.267 OA
HETATM    9  N   UNL     1      39.503  -9.844   5.832  1.00  0.00    -0.299 N 
HETATM   10  C   UNL     1      39.586  -9.221   4.603  1.00  0.00     0.214 A 
HETATM   11  N   UNL     1      39.787  -9.818   3.474  1.00  0.00    -0.235 NA
ENDROOT
BRANCH   3  12
HETATM   12  C   UNL     1      40.900 -14.792   2.527  1.00  0.00     0.259 C 
HETATM   13  N   UNL     1      42.243 -15.066   2.691  1.00  0.00    -0.354 N 
HETATM   14  H   UNL     1      42.833 -14.347   3.093  1.00  0.00     0.162 HD
HETATM   15  O   UNL     1      40.172 -15.585   1.931  1.00  0.00    -0.267 OA
BRANCH  13  16
HETATM   16  C   UNL     1      42.854 -16.292   2.209  1.00  0.00     0.157 C 
BRANCH  16  17
HETATM   17  C   UNL     1      43.502 -17.121   3.323  1.00  0.00     0.171 C 
HETATM   18  O   UNL     1      43.068 -16.582   4.586  1.00  0.00    -0.339 OA
HETATM   19  C   UNL     1      43.345 -17.437   5.620  1.00  0.00     0.102 A 
HETATM   20  C   UNL     1      43.655 -18.788   5.435  1.00  0.00     0.102 A 
HETATM   21  C   UNL     1      43.295 -16.903   6.906  1.00  0.00     0.039 A 
HETATM   22  O   UNL     1      43.695 -19.389   4.204  1.00  0.00    -0.346 OA
HETATM   23  C   UNL     1      43.949 -19.593   6.533  1.00  0.00     0.039 A 
HETATM   24  C   UNL     1      43.063 -18.580   3.205  1.00  0.00     0.209 C 
HETATM   25  C   UNL     1      43.911 -19.055   7.821  1.00  0.00     0.003 A 
HETATM   26  C   UNL     1      43.580 -17.712   8.007  1.00  0.00     0.003 A 
ENDBRANCH  16  17
ENDBRANCH  13  16
ENDBRANCH   3  12
BRANCH   9  27
HETATM   27  C   UNL     1      39.423  -9.051   7.044  1.00  0.00     0.236 C 
BRANCH  27  28
HETATM   28  C   UNL     1      40.784  -8.954   7.724  1.00  0.00     0.240 C 
HETATM   29  N   UNL     1      40.810  -9.559   8.970  1.00  0.00    -0.326 N 
HETATM   30  H   UNL     1      39.903  -9.787   9.381  1.00  0.00     0.169 HD
HETATM   31  O   UNL     1      41.709  -8.353   7.185  1.00  0.00    -0.271 OA
BRANCH  29  32
HETATM   32  C   UNL     1      41.937  -9.810   9.774  1.00  0.00     0.035 A 
HETATM   33  C   UNL     1      42.992 -10.644   9.392  1.00  0.00     0.045 A 
HETATM   34  C   UNL     1      44.065 -10.894  10.266  1.00  0.00     0.050 A 
HETATM   35  C   UNL     1      44.073 -10.283  11.529  1.00  0.00     0.016 A 
HETATM   36  C   UNL     1      43.026  -9.449  11.914  1.00  0.00     0.003 A 
HETATM   37  C   UNL     1      41.961  -9.220  11.043  1.00  0.00     0.029 A 
BRANCH  34  38
HETATM   38  C   UNL     1      45.196 -11.810   9.869  1.00  0.00     0.417 C 
HETATM   39  F   UNL     1      44.819 -12.836   9.058  1.00  0.00    -0.166 F 
HETATM   40  F   UNL     1      46.189 -11.154   9.206  1.00  0.00    -0.166 F 
HETATM   41  F   UNL     1      45.793 -12.392  10.948  1.00  0.00    -0.166 F 
ENDBRANCH  34  38
ENDBRANCH  29  32
ENDBRANCH  27  28
ENDBRANCH   9  27
TORSDOF 7
ENDMDL
MODEL 8
REMARK VINA RESULT:      -9.5      1.798      2.384
REMARK  7 active torsions:
REMARK  status: ('A' for Active; 'I' for Inactive)
REMARK    1  A    between atoms: C_3  and  C_4 
REMARK       I    between atoms: C_4  and  N_5 
REMARK    2  A    between atoms: N_5  and  C_6 
REMARK    3  A    between atoms: C_6  and  C_7 
REMARK    4  A    between atoms: N_23  and  C_24 
REMARK    5  A    between atoms: C_24  and  C_25 
REMARK       I    between atoms: C_25  and  N_26 
REMARK    6  A    between atoms: N_26  and  C_27 
REMARK    7  A    between atoms: C_29  and  C_30 
ROOT
HETATM    1  C   UNL     1      40.201 -10.054   3.403  1.00  0.00     0.051 C 
HETATM    2  C   UNL     1      40.051 -11.207   4.347  1.00  0.00    -0.021 C 
HETATM    3  C   UNL     1      39.601 -11.101   5.664  1.00  0.00     0.081 C 
HETATM    4  S   UNL     1      39.453 -12.647   6.401  1.00  0.00    -0.063 SA
HETATM    5  C   UNL     1      40.129 -13.442   5.062  1.00  0.00     0.116 A 
HETATM    6  C   UNL     1      40.430 -12.566   4.044  1.00  0.00     0.075 A 
HETATM    7  C   UNL     1      41.091 -13.118   2.870  1.00  0.00     0.262 A 
HETATM    8  O   UNL     1      41.376 -12.456   1.872  1.00  0.00    -0.267 OA
HETATM    9  N   UNL     1      41.395 -14.474   2.971  1.00  0.00    -0.299 N 
HETATM   10  C   UNL     1      40.968 -15.235   4.040  1.00  0.00     0.214 A 
HETATM   11  N   UNL     1      40.342 -14.782   5.078  1.00  0.00    -0.235 NA
ENDROOT
BRANCH   3  12
HETATM   12  C   UNL     1      39.300  -9.885   6.422  1.00  0.00     0.259 C 
HETATM   13  N   UNL     1      40.157  -9.592   7.463  1.00  0.00    -0.354 N 
HETATM   14  H   UNL     1      40.847 -10.286   7.726  1.00  0.00     0.162 HD
HETATM   15  O   UNL     1      38.369  -9.128   6.151  1.00  0.00    -0.267 OA
BRANCH  13  16
HETATM   16  C   UNL     1      40.033  -8.385   8.261  1.00  0.00     0.157 C 
BRANCH  16  17
HETATM   17  C   UNL     1      40.334  -8.610   9.746  1.00  0.00     0.171 C 
HETATM   18  O   UNL     1      41.647  -9.196   9.848  1.00  0.00    -0.339 OA
HETATM   19  C   UNL     1      42.121  -9.149  11.133  1.00  0.00     0.102 A 
HETATM   20  C   UNL     1      41.580  -8.319  12.119  1.00  0.00     0.102 A 
HETATM   21  C   UNL     1      43.205  -9.972  11.432  1.00  0.00     0.039 A 
HETATM   22  O   UNL     1      40.533  -7.462  11.891  1.00  0.00    -0.346 OA
HETATM   23  C   UNL     1      42.098  -8.341  13.412  1.00  0.00     0.039 A 
HETATM   24  C   UNL     1      40.305  -7.276  10.490  1.00  0.00     0.209 C 
HETATM   25  C   UNL     1      43.176  -9.175  13.715  1.00  0.00     0.003 A 
HETATM   26  C   UNL     1      43.731  -9.987  12.725  1.00  0.00     0.003 A 
ENDBRANCH  16  17
ENDBRANCH  13  16
ENDBRANCH   3  12
BRANCH   9  27
HETATM   27  C   UNL     1      42.216 -15.073   1.935  1.00  0.00     0.236 C 
BRANCH  27  28
HETATM   28  C   UNL     1      42.364 -16.574   2.157  1.00  0.00     0.240 C 
HETATM   29  N   UNL     1      43.551 -16.913   2.784  1.00  0.00    -0.326 N 
HETATM   30  H   UNL     1      44.269 -16.186   2.818  1.00  0.00     0.169 HD
HETATM   31  O   UNL     1      41.500 -17.351   1.760  1.00  0.00    -0.271 OA
BRANCH  29  32
HETATM   32  C   UNL     1      43.918 -18.171   3.296  1.00  0.00     0.035 A 
HETATM   33  C   UNL     1      43.947 -19.341   2.533  1.00  0.00     0.045 A 
HETATM   34  C   UNL     1      44.272 -20.577   3.121  1.00  0.00     0.050 A 
HETATM   35  C   UNL     1      44.582 -20.622   4.488  1.00  0.00     0.016 A 
HETATM   36  C   UNL     1      44.557 -19.459   5.254  1.00  0.00     0.003 A 
HETATM   37  C   UNL     1      44.220 -18.241   4.661  1.00  0.00     0.029 A 
BRANCH  34  38
HETATM   38  C   UNL     1      44.284 -21.847   2.307  1.00  0.00     0.417 C 
HETATM   39  F   UNL     1      43.095 -22.134   1.709  1.00  0.00    -0.166 F 
HETATM   40  F   UNL     1      45.209 -21.817   1.307  1.00  0.00    -0.166 F 
HETATM   41  F   UNL     1      44.591 -22.941   3.062  1.00  0.00    -0.166 F 
ENDBRANCH  34  38
ENDBRANCH  29  32
ENDBRANCH  27  28
ENDBRANCH   9  27
TORSDOF 7
ENDMDL
MODEL 9
REMARK VINA RESULT:      -9.4      4.783      7.976
REMARK  7 active torsions:
REMARK  status: ('A' for Active; 'I' for Inactive)
REMARK    1  A    between atoms: C_3  and  C_4 
REMARK       I    between atoms: C_4  and  N_5 
REMARK    2  A    between atoms: N_5  and  C_6 
REMARK    3  A    between atoms: C_6  and  C_7 
REMARK    4  A    between atoms: N_23  and  C_24 
REMARK    5  A    between atoms: C_24  and  C_25 
REMARK       I    between atoms: C_25  and  N_26 
REMARK    6  A    between atoms: N_26  and  C_27 
REMARK    7  A    between atoms: C_29  and  C_30 
ROOT
HETATM    1  C   UNL     1      43.787 -14.373   3.283  1.00  0.00     0.051 C 
HETATM    2  C   UNL     1      42.920 -13.508   4.146  1.00  0.00    -0.021 C 
HETATM    3  C   UNL     1      42.734 -13.688   5.517  1.00  0.00     0.081 C 
HETATM    4  S   UNL     1      41.763 -12.436   6.185  1.00  0.00    -0.063 SA
HETATM    5  C   UNL     1      41.450 -11.752   4.664  1.00  0.00     0.116 A 
HETATM    6  C   UNL     1      42.099 -12.427   3.655  1.00  0.00     0.075 A 
HETATM    7  C   UNL     1      41.845 -11.983   2.292  1.00  0.00     0.262 A 
HETATM    8  O   UNL     1      42.393 -12.469   1.302  1.00  0.00    -0.267 OA
HETATM    9  N   UNL     1      40.906 -10.959   2.191  1.00  0.00    -0.299 N 
HETATM   10  C   UNL     1      40.386 -10.339   3.309  1.00  0.00     0.214 A 
HETATM   11  N   UNL     1      40.625 -10.683   4.533  1.00  0.00    -0.235 NA
ENDROOT
BRANCH   3  12
HETATM   12  C   UNL     1      43.225 -14.778   6.362  1.00  0.00     0.259 C 
HETATM   13  N   UNL     1      42.337 -15.806   6.604  1.00  0.00    -0.354 N 
HETATM   14  H   UNL     1      41.375 -15.688   6.306  1.00  0.00     0.162 HD
HETATM   15  O   UNL     1      44.369 -14.825   6.814  1.00  0.00    -0.267 OA
BRANCH  13  16
HETATM   16  C   UNL     1      42.700 -16.989   7.362  1.00  0.00     0.157 C 
BRANCH  16  17
HETATM   17  C   UNL     1      43.012 -18.201   6.476  1.00  0.00     0.171 C 
HETATM   18  O   UNL     1      42.760 -17.826   5.108  1.00  0.00    -0.339 OA
HETATM   19  C   UNL     1      43.297 -18.732   4.231  1.00  0.00     0.102 A 
HETATM   20  C   UNL     1      44.266 -19.670   4.597  1.00  0.00     0.102 A 
HETATM   21  C   UNL     1      42.840 -18.677   2.916  1.00  0.00     0.039 A 
HETATM   22  O   UNL     1      44.783 -19.763   5.863  1.00  0.00    -0.346 OA
HETATM   23  C   UNL     1      44.751 -20.577   3.656  1.00  0.00     0.039 A 
HETATM   24  C   UNL     1      44.477 -18.601   6.641  1.00  0.00     0.209 C 
HETATM   25  C   UNL     1      44.283 -20.531   2.341  1.00  0.00     0.003 A 
HETATM   26  C   UNL     1      43.332 -19.579   1.971  1.00  0.00     0.003 A 
ENDBRANCH  16  17
ENDBRANCH  13  16
ENDBRANCH   3  12
BRANCH   9  27
HETATM   27  C   UNL     1      40.447 -10.575   0.869  1.00  0.00     0.236 C 
BRANCH  27  28
HETATM   28  C   UNL     1      39.817 -11.760   0.145  1.00  0.00     0.240 C 
HETATM   29  N   UNL     1      40.484 -12.098  -1.020  1.00  0.00    -0.326 N 
HETATM   30  H   UNL     1      41.151 -11.410  -1.376  1.00  0.00     0.169 HD
HETATM   31  O   UNL     1      38.800 -12.288   0.583  1.00  0.00    -0.271 OA
BRANCH  29  32
HETATM   32  C   UNL     1      40.283 -13.238  -1.820  1.00  0.00     0.035 A 
HETATM   33  C   UNL     1      39.105 -13.490  -2.528  1.00  0.00     0.045 A 
HETATM   34  C   UNL     1      38.949 -14.676  -3.267  1.00  0.00     0.050 A 
HETATM   35  C   UNL     1      39.999 -15.606  -3.298  1.00  0.00     0.016 A 
HETATM   36  C   UNL     1      41.177 -15.359  -2.596  1.00  0.00     0.003 A 
HETATM   37  C   UNL     1      41.314 -14.184  -1.856  1.00  0.00     0.029 A 
BRANCH  34  38
HETATM   38  C   UNL     1      37.671 -14.965  -4.017  1.00  0.00     0.417 C 
HETATM   39  F   UNL     1      36.745 -15.650  -3.291  1.00  0.00    -0.166 F 
HETATM   40  F   UNL     1      37.049 -13.830  -4.442  1.00  0.00    -0.166 F 
HETATM   41  F   UNL     1      37.888 -15.711  -5.138  1.00  0.00    -0.166 F 
ENDBRANCH  34  38
ENDBRANCH  29  32
ENDBRANCH  27  28
ENDBRANCH   9  27
TORSDOF 7
ENDMDL
MODEL 10
REMARK VINA RESULT:      -9.3      5.127      9.733
REMARK  7 active torsions:
REMARK  status: ('A' for Active; 'I' for Inactive)
REMARK    1  A    between atoms: C_3  and  C_4 
REMARK       I    between atoms: C_4  and  N_5 
REMARK    2  A    between atoms: N_5  and  C_6 
REMARK    3  A    between atoms: C_6  and  C_7 
REMARK    4  A    between atoms: N_23  and  C_24 
REMARK    5  A    between atoms: C_24  and  C_25 
REMARK       I    between atoms: C_25  and  N_26 
REMARK    6  A    between atoms: N_26  and  C_27 
REMARK    7  A    between atoms: C_29  and  C_30 
ROOT
HETATM    1  C   UNL     1      40.201 -14.729   5.297  1.00  0.00     0.051 C 
HETATM    2  C   UNL     1      40.334 -13.631   4.286  1.00  0.00    -0.021 C 
HETATM    3  C   UNL     1      40.795 -13.806   2.980  1.00  0.00     0.081 C 
HETATM    4  S   UNL     1      40.701 -12.342   2.084  1.00  0.00    -0.063 SA
HETATM    5  C   UNL     1      40.216 -11.444   3.440  1.00  0.00     0.116 A 
HETATM    6  C   UNL     1      40.082 -12.236   4.557  1.00  0.00     0.075 A 
HETATM    7  C   UNL     1      39.748 -11.567   5.806  1.00  0.00     0.262 A 
HETATM    8  O   UNL     1      39.554 -12.159   6.868  1.00  0.00    -0.267 OA
HETATM    9  N   UNL     1      39.676 -10.179   5.709  1.00  0.00    -0.299 N 
HETATM   10  C   UNL     1      39.775  -9.532   4.494  1.00  0.00     0.214 A 
HETATM   11  N   UNL     1      40.029 -10.102   3.361  1.00  0.00    -0.235 NA
ENDROOT
BRANCH   3  12
HETATM   12  C   UNL     1      41.336 -15.019   2.366  1.00  0.00     0.259 C 
HETATM   13  N   UNL     1      42.685 -15.243   2.553  1.00  0.00    -0.354 N 
HETATM   14  H   UNL     1      43.239 -14.507   2.974  1.00  0.00     0.162 HD
HETATM   15  O   UNL     1      40.651 -15.832   1.747  1.00  0.00    -0.267 OA
BRANCH  13  16
HETATM   16  C   UNL     1      43.353 -16.438   2.068  1.00  0.00     0.157 C 
BRANCH  16  17
HETATM   17  C   UNL     1      43.844 -17.354   3.194  1.00  0.00     0.171 C 
HETATM   18  O   UNL     1      43.428 -16.776   4.447  1.00  0.00    -0.339 OA
HETATM   19  C   UNL     1      43.552 -17.670   5.478  1.00  0.00     0.102 A 
HETATM   20  C   UNL     1      43.696 -19.048   5.286  1.00  0.00     0.102 A 
HETATM   21  C   UNL     1      43.515 -17.147   6.769  1.00  0.00     0.039 A 
HETATM   22  O   UNL     1      43.713 -19.637   4.047  1.00  0.00    -0.346 OA
HETATM   23  C   UNL     1      43.841 -19.895   6.382  1.00  0.00     0.039 A 
HETATM   24  C   UNL     1      43.231 -18.744   3.037  1.00  0.00     0.209 C 
HETATM   25  C   UNL     1      43.817 -19.369   7.675  1.00  0.00     0.003 A 
HETATM   26  C   UNL     1      43.650 -17.997   7.868  1.00  0.00     0.003 A 
ENDBRANCH  16  17
ENDBRANCH  13  16
ENDBRANCH   3  12
BRANCH   9  27
HETATM   27  C   UNL     1      39.532  -9.411   6.931  1.00  0.00     0.236 C 
BRANCH  27  28
HETATM   28  C   UNL     1      40.852  -9.345   7.692  1.00  0.00     0.240 C 
HETATM   29  N   UNL     1      40.775  -9.905   8.956  1.00  0.00    -0.326 N 
HETATM   30  H   UNL     1      39.836 -10.083   9.316  1.00  0.00     0.169 HD
HETATM   31  O   UNL     1      41.832  -8.801   7.193  1.00  0.00    -0.271 OA
BRANCH  29  32
HETATM   32  C   UNL     1      41.839 -10.173   9.837  1.00  0.00     0.035 A 
HETATM   33  C   UNL     1      41.828  -9.833  11.192  1.00  0.00     0.045 A 
HETATM   34  C   UNL     1      42.947 -10.083  12.007  1.00  0.00     0.050 A 
HETATM   35  C   UNL     1      44.078 -10.693  11.445  1.00  0.00     0.016 A 
HETATM   36  C   UNL     1      44.094 -11.037  10.096  1.00  0.00     0.003 A 
HETATM   37  C   UNL     1      42.982 -10.772   9.296  1.00  0.00     0.029 A 
BRANCH  34  38
HETATM   38  C   UNL     1      42.949  -9.698  13.466  1.00  0.00     0.417 C 
HETATM   39  F   UNL     1      44.140  -9.206  13.907  1.00  0.00    -0.166 F 
HETATM   40  F   UNL     1      42.020  -8.746  13.756  1.00  0.00    -0.166 F 
HETATM   41  F   UNL     1      42.663 -10.755  14.279  1.00  0.00    -0.166 F 
ENDBRANCH  34  38
ENDBRANCH  29  32
ENDBRANCH  27  28
ENDBRANCH   9  27
TORSDOF 7
ENDMDL
