MODEL 1
REMARK VINA RESULT:      -9.2      0.000      0.000
REMARK  8 active torsions:
REMARK  status: ('A' for Active; 'I' for Inactive)
REMARK    1  A    between atoms: C_2  and  O_3 
REMARK    2  A    between atoms: O_3  and  C_4 
REMARK    3  A    between atoms: C_4  and  C_5 
REMARK    4  A    between atoms: C_10  and  C_11 
REMARK       I    between atoms: C_11  and  N_12 
REMARK    5  A    between atoms: N_12  and  C_13 
REMARK    6  A    between atoms: C_15  and  C_16 
REMARK    7  A    between atoms: C_16  and  C_17 
REMARK    8  A    between atoms: C_17  and  C_18 
ROOT
HETATM    1  C   UNL     1      45.155 -13.645   7.663  1.00  0.00     0.725 A 
HETATM    2  N   UNL     1      44.816 -13.173   8.836  1.00  0.00    -0.046 NA
HETATM    3  C   UNL     1      45.705 -12.160   9.063  1.00  0.00     0.166 A 
HETATM    4  N   UNL     1      46.581 -11.955   8.070  1.00  0.00    -0.144 NA
HETATM    5  N   UNL     1      46.205 -12.904   7.193  1.00  0.00    -0.106 N 
HETATM    6  H   UNL     1      46.704 -12.988   6.317  1.00  0.00     0.208 HD
ENDROOT
BRANCH   1   7
HETATM    7  N   UNL     1      44.599 -14.684   6.959  1.00  0.00    -0.152 N 
HETATM    8  C   UNL     1      43.491 -14.491   6.157  1.00  0.00     0.272 C 
HETATM    9  O   UNL     1      42.845 -13.455   6.052  1.00  0.00    -0.267 OA
HETATM   10  H   UNL     1      44.965 -15.615   7.057  1.00  0.00     0.187 HD
BRANCH   8  11
HETATM   11  C   UNL     1      43.076 -15.698   5.418  1.00  0.00     0.063 A 
HETATM   12  C   UNL     1      42.639 -16.913   5.941  1.00  0.00     0.022 A 
HETATM   13  N   UNL     1      42.437 -17.767   4.886  1.00  0.00    -0.354 N 
HETATM   14  C   UNL     1      42.452 -17.399   7.335  1.00  0.00     0.069 C 
HETATM   15  C   UNL     1      42.818 -17.188   3.698  1.00  0.00     0.115 A 
HETATM   16  H   UNL     1      42.149 -18.735   4.957  1.00  0.00     0.166 HD
HETATM   17  C   UNL     1      43.140 -15.865   3.983  1.00  0.00    -0.011 A 
HETATM   18  C   UNL     1      43.539 -14.804   3.008  1.00  0.00     0.052 C 
BRANCH  15  19
HETATM   19  C   UNL     1      42.847 -17.969   2.480  1.00  0.00     0.310 C 
HETATM   20  O   UNL     1      41.901 -18.066   1.709  1.00  0.00    -0.258 OA
BRANCH  19  21
HETATM   21  O   UNL     1      44.027 -18.632   2.361  1.00  0.00    -0.317 OA
BRANCH  21  22
HETATM   22  C   UNL     1      44.079 -19.943   2.937  1.00  0.00     0.175 C 
HETATM   23  C   UNL     1      43.804 -20.985   1.868  1.00  0.00     0.034 C 
ENDBRANCH  21  22
ENDBRANCH  19  21
ENDBRANCH  15  19
ENDBRANCH   8  11
ENDBRANCH   1   7
BRANCH   3  24
HETATM   24  C   UNL     1      45.672 -11.374  10.321  1.00  0.00     0.087 C 
BRANCH  24  25
HETATM   25  C   UNL     1      44.654 -10.235  10.240  1.00  0.00     0.048 C 
BRANCH  25  26
HETATM   26  C   UNL     1      43.348 -10.585  10.880  1.00  0.00    -0.030 A 
HETATM   27  C   UNL     1      42.953 -10.270  12.220  1.00  0.00    -0.002 A 
HETATM   28  C   UNL     1      41.663 -10.766  12.406  1.00  0.00     0.042 A 
HETATM   29  C   UNL     1      43.580  -9.602  13.294  1.00  0.00     0.014 A 
HETATM   30  C   UNL     1      40.965 -10.629  13.611  1.00  0.00     0.030 A 
HETATM   31  N   UNL     1      41.287 -11.358  11.223  1.00  0.00    -0.365 N 
HETATM   32  C   UNL     1      41.609  -9.965  14.661  1.00  0.00     0.002 A 
HETATM   33  C   UNL     1      42.897  -9.459  14.508  1.00  0.00     0.001 A 
HETATM   34  H   UNL     1      40.392 -11.800  11.065  1.00  0.00     0.165 HD
HETATM   35  C   UNL     1      42.292 -11.259  10.298  1.00  0.00     0.096 A 
ENDBRANCH  25  26
ENDBRANCH  24  25
ENDBRANCH   3  24
TORSDOF 8
ENDMDL
MODEL 2
REMARK VINA RESULT:      -8.8      5.835      9.292
REMARK  8 active torsions:
REMARK  status: ('A' for Active; 'I' for Inactive)
REMARK    1  A    between atoms: C_2  and  O_3 
REMARK    2  A    between atoms: O_3  and  C_4 
REMARK    3  A    between atoms: C_4  and  C_5 
REMARK    4  A    between atoms: C_10  and  C_11 
REMARK       I    between atoms: C_11  and  N_12 
REMARK    5  A    between atoms: N_12  and  C_13 
REMARK    6  A    between atoms: C_15  and  C_16 
REMARK    7  A    between atoms: C_16  and  C_17 
REMARK    8  A    between atoms: C_17  and  C_18 
ROOT
HETATM    1  C   UNL     1      40.904 -14.961   3.961  1.00  0.00     0.725 A 
HETATM    2  N   UNL     1      42.001 -15.482   4.448  1.00  0.00    -0.046 NA
HETATM    3  C   UNL     1      41.670 -15.835   5.726  1.00  0.00     0.166 A 
HETATM    4  N   UNL     1      40.399 -15.580   6.062  1.00  0.00    -0.144 NA
HETATM    5  N   UNL     1      39.934 -15.034   4.925  1.00  0.00    -0.106 N 
HETATM    6  H   UNL     1      38.968 -14.736   4.881  1.00  0.00     0.208 HD
ENDROOT
BRANCH   1   7
HETATM    7  N   UNL     1      40.681 -14.428   2.716  1.00  0.00    -0.152 N 
HETATM    8  C   UNL     1      39.774 -15.001   1.846  1.00  0.00     0.272 C 
HETATM    9  O   UNL     1      39.160 -16.046   2.025  1.00  0.00    -0.267 OA
HETATM   10  H   UNL     1      41.216 -13.637   2.400  1.00  0.00     0.187 HD
BRANCH   8  11
HETATM   11  C   UNL     1      39.608 -14.254   0.585  1.00  0.00     0.063 A 
HETATM   12  C   UNL     1      38.766 -13.173   0.336  1.00  0.00     0.022 A 
HETATM   13  N   UNL     1      38.889 -12.853  -0.993  1.00  0.00    -0.354 N 
HETATM   14  C   UNL     1      37.794 -12.437   1.189  1.00  0.00     0.069 C 
HETATM   15  C   UNL     1      39.707 -13.745  -1.645  1.00  0.00     0.115 A 
HETATM   16  H   UNL     1      38.372 -12.127  -1.475  1.00  0.00     0.166 HD
HETATM   17  C   UNL     1      40.243 -14.581  -0.672  1.00  0.00    -0.011 A 
HETATM   18  C   UNL     1      41.250 -15.669  -0.873  1.00  0.00     0.052 C 
BRANCH  15  19
HETATM   19  C   UNL     1      39.842 -13.695  -3.086  1.00  0.00     0.310 C 
HETATM   20  O   UNL     1      40.895 -13.461  -3.665  1.00  0.00    -0.258 OA
BRANCH  19  21
HETATM   21  O   UNL     1      38.636 -13.863  -3.689  1.00  0.00    -0.317 OA
BRANCH  21  22
HETATM   22  C   UNL     1      38.055 -15.170  -3.591  1.00  0.00     0.175 C 
HETATM   23  C   UNL     1      38.913 -16.170  -4.345  1.00  0.00     0.034 C 
ENDBRANCH  21  22
ENDBRANCH  19  21
ENDBRANCH  15  19
ENDBRANCH   8  11
ENDBRANCH   1   7
BRANCH   3  24
HETATM   24  C   UNL     1      42.667 -16.448   6.638  1.00  0.00     0.087 C 
BRANCH  24  25
HETATM   25  C   UNL     1      44.008 -16.665   5.933  1.00  0.00     0.048 C 
BRANCH  25  26
HETATM   26  C   UNL     1      44.205 -18.082   5.496  1.00  0.00    -0.030 A 
HETATM   27  C   UNL     1      44.027 -18.589   4.168  1.00  0.00    -0.002 A 
HETATM   28  C   UNL     1      44.324 -19.951   4.195  1.00  0.00     0.042 A 
HETATM   29  C   UNL     1      43.642 -18.007   2.942  1.00  0.00     0.014 A 
HETATM   30  C   UNL     1      44.256 -20.764   3.058  1.00  0.00     0.030 A 
HETATM   31  N   UNL     1      44.671 -20.261   5.489  1.00  0.00    -0.365 N 
HETATM   32  C   UNL     1      43.869 -20.164   1.855  1.00  0.00     0.002 A 
HETATM   33  C   UNL     1      43.565 -18.805   1.795  1.00  0.00     0.001 A 
HETATM   34  H   UNL     1      44.942 -21.182   5.803  1.00  0.00     0.165 HD
HETATM   35  C   UNL     1      44.600 -19.146   6.283  1.00  0.00     0.096 A 
ENDBRANCH  25  26
ENDBRANCH  24  25
ENDBRANCH   3  24
TORSDOF 8
ENDMDL
MODEL 3
REMARK VINA RESULT:      -8.7      2.557      3.522
REMARK  8 active torsions:
REMARK  status: ('A' for Active; 'I' for Inactive)
REMARK    1  A    between atoms: C_2  and  O_3 
REMARK    2  A    between atoms: O_3  and  C_4 
REMARK    3  A    between atoms: C_4  and  C_5 
REMARK    4  A    between atoms: C_10  and  C_11 
REMARK       I    between atoms: C_11  and  N_12 
REMARK    5  A    between atoms: N_12  and  C_13 
REMARK    6  A    between atoms: C_15  and  C_16 
REMARK    7  A    between atoms: C_16  and  C_17 
REMARK    8  A    between atoms: C_17  and  C_18 
ROOT
HETATM    1  C   UNL     1      41.108 -13.606   5.894  1.00  0.00     0.725 A 
HETATM    2  N   UNL     1      41.603 -12.443   6.236  1.00  0.00    -0.046 NA
HETATM    3  C   UNL     1      40.542 -11.768   6.771  1.00  0.00     0.166 A 
HETATM    4  N   UNL     1      39.399 -12.464   6.804  1.00  0.00    -0.144 NA
HETATM    5  N   UNL     1      39.787 -13.627   6.250  1.00  0.00    -0.106 N 
HETATM    6  H   UNL     1      39.110 -14.371   6.144  1.00  0.00     0.208 HD
ENDROOT
BRANCH   1   7
HETATM    7  N   UNL     1      41.738 -14.668   5.296  1.00  0.00    -0.152 N 
HETATM    8  C   UNL     1      41.362 -15.968   5.569  1.00  0.00     0.272 C 
HETATM    9  O   UNL     1      40.534 -16.322   6.400  1.00  0.00    -0.267 OA
HETATM   10  H   UNL     1      42.521 -14.513   4.683  1.00  0.00     0.187 HD
BRANCH   8  11
HETATM   11  C   UNL     1      42.095 -16.977   4.781  1.00  0.00     0.063 A 
HETATM   12  C   UNL     1      41.823 -17.413   3.487  1.00  0.00     0.022 A 
HETATM   13  N   UNL     1      42.717 -18.412   3.192  1.00  0.00    -0.354 N 
HETATM   14  C   UNL     1      40.766 -17.050   2.504  1.00  0.00     0.069 C 
HETATM   15  C   UNL     1      43.503 -18.712   4.281  1.00  0.00     0.115 A 
HETATM   16  H   UNL     1      42.744 -18.945   2.331  1.00  0.00     0.166 HD
HETATM   17  C   UNL     1      43.200 -17.775   5.263  1.00  0.00    -0.011 A 
HETATM   18  C   UNL     1      43.845 -17.635   6.605  1.00  0.00     0.052 C 
BRANCH  15  19
HETATM   19  C   UNL     1      44.399 -19.848   4.244  1.00  0.00     0.310 C 
HETATM   20  O   UNL     1      44.932 -20.328   5.236  1.00  0.00    -0.258 OA
BRANCH  19  21
HETATM   21  O   UNL     1      44.621 -20.246   2.964  1.00  0.00    -0.317 OA
BRANCH  21  22
HETATM   22  C   UNL     1      44.504 -21.652   2.708  1.00  0.00     0.175 C 
HETATM   23  C   UNL     1      43.847 -21.874   1.358  1.00  0.00     0.034 C 
ENDBRANCH  21  22
ENDBRANCH  19  21
ENDBRANCH  15  19
ENDBRANCH   8  11
ENDBRANCH   1   7
BRANCH   3  24
HETATM   24  C   UNL     1      40.685 -10.376   7.264  1.00  0.00     0.087 C 
BRANCH  24  25
HETATM   25  C   UNL     1      41.759 -10.277   8.350  1.00  0.00     0.048 C 
BRANCH  25  26
HETATM   26  C   UNL     1      41.222 -10.563   9.716  1.00  0.00    -0.030 A 
HETATM   27  C   UNL     1      41.931 -10.408  10.952  1.00  0.00    -0.002 A 
HETATM   28  C   UNL     1      41.064 -10.772  11.982  1.00  0.00     0.042 A 
HETATM   29  C   UNL     1      43.235  -9.986  11.286  1.00  0.00     0.014 A 
HETATM   30  C   UNL     1      41.434 -10.735  13.331  1.00  0.00     0.030 A 
HETATM   31  N   UNL     1      39.873 -11.133  11.396  1.00  0.00    -0.365 N 
HETATM   32  C   UNL     1      42.733 -10.316  13.636  1.00  0.00     0.002 A 
HETATM   33  C   UNL     1      43.623  -9.946  12.630  1.00  0.00     0.001 A 
HETATM   34  H   UNL     1      39.056 -11.438  11.905  1.00  0.00     0.165 HD
HETATM   35  C   UNL     1      39.956 -11.015  10.034  1.00  0.00     0.096 A 
ENDBRANCH  25  26
ENDBRANCH  24  25
ENDBRANCH   3  24
TORSDOF 8
ENDMDL
MODEL 4
REMARK VINA RESULT:      -8.5      6.586      9.975
REMARK  8 active torsions:
REMARK  status: ('A' for Active; 'I' for Inactive)
REMARK    1  A    between atoms: C_2  and  O_3 
REMARK    2  A    between atoms: O_3  and  C_4 
REMARK    3  A    between atoms: C_4  and  C_5 
REMARK    4  A    between atoms: C_10  and  C_11 
REMARK       I    between atoms: C_11  and  N_12 
REMARK    5  A    between atoms: N_12  and  C_13 
REMARK    6  A    between atoms: C_15  and  C_16 
REMARK    7  A    between atoms: C_16  and  C_17 
REMARK    8  A    between atoms: C_17  and  C_18 
ROOT
HETATM    1  C   UNL     1      40.559 -15.586   3.367  1.00  0.00     0.725 A 
HETATM    2  N   UNL     1      41.383 -16.533   3.737  1.00  0.00    -0.046 NA
HETATM    3  C   UNL     1      41.372 -16.478   5.102  1.00  0.00     0.166 A 
HETATM    4  N   UNL     1      40.555 -15.548   5.615  1.00  0.00    -0.144 NA
HETATM    5  N   UNL     1      40.047 -15.003   4.495  1.00  0.00    -0.106 N 
HETATM    6  H   UNL     1      39.376 -14.250   4.575  1.00  0.00     0.208 HD
ENDROOT
BRANCH   1   7
HETATM    7  N   UNL     1      40.208 -15.195   2.099  1.00  0.00    -0.152 N 
HETATM    8  C   UNL     1      40.165 -13.860   1.749  1.00  0.00     0.272 C 
HETATM    9  O   UNL     1      40.332 -12.909   2.503  1.00  0.00    -0.267 OA
HETATM   10  H   UNL     1      39.927 -15.880   1.418  1.00  0.00     0.187 HD
BRANCH   8  11
HETATM   11  C   UNL     1      39.843 -13.629   0.328  1.00  0.00     0.063 A 
HETATM   12  C   UNL     1      40.715 -13.283  -0.701  1.00  0.00     0.022 A 
HETATM   13  N   UNL     1      39.963 -13.097  -1.833  1.00  0.00    -0.354 N 
HETATM   14  C   UNL     1      42.182 -13.033  -0.736  1.00  0.00     0.069 C 
HETATM   15  C   UNL     1      38.619 -13.215  -1.562  1.00  0.00     0.115 A 
HETATM   16  H   UNL     1      40.317 -12.806  -2.737  1.00  0.00     0.166 HD
HETATM   17  C   UNL     1      38.514 -13.633  -0.240  1.00  0.00    -0.011 A 
HETATM   18  C   UNL     1      37.260 -13.974   0.500  1.00  0.00     0.052 C 
BRANCH  15  19
HETATM   19  C   UNL     1      37.637 -12.892  -2.576  1.00  0.00     0.310 C 
HETATM   20  O   UNL     1      36.756 -12.056  -2.430  1.00  0.00    -0.258 OA
BRANCH  19  21
HETATM   21  O   UNL     1      37.785 -13.695  -3.663  1.00  0.00    -0.317 OA
BRANCH  21  22
HETATM   22  C   UNL     1      37.488 -15.084  -3.469  1.00  0.00     0.175 C 
HETATM   23  C   UNL     1      38.574 -15.934  -4.104  1.00  0.00     0.034 C 
ENDBRANCH  21  22
ENDBRANCH  19  21
ENDBRANCH  15  19
ENDBRANCH   8  11
ENDBRANCH   1   7
BRANCH   3  24
HETATM   24  C   UNL     1      42.211 -17.391   5.916  1.00  0.00     0.087 C 
BRANCH  24  25
HETATM   25  C   UNL     1      43.620 -17.521   5.333  1.00  0.00     0.048 C 
BRANCH  25  26
HETATM   26  C   UNL     1      44.016 -18.945   5.102  1.00  0.00    -0.030 A 
HETATM   27  C   UNL     1      43.947 -19.649   3.856  1.00  0.00    -0.002 A 
HETATM   28  C   UNL     1      44.422 -20.941   4.077  1.00  0.00     0.042 A 
HETATM   29  C   UNL     1      43.525 -19.299   2.556  1.00  0.00     0.014 A 
HETATM   30  C   UNL     1      44.496 -21.904   3.064  1.00  0.00     0.030 A 
HETATM   31  N   UNL     1      44.767 -21.020   5.406  1.00  0.00    -0.365 N 
HETATM   32  C   UNL     1      44.069 -21.533   1.785  1.00  0.00     0.002 A 
HETATM   33  C   UNL     1      43.590 -20.250   1.532  1.00  0.00     0.001 A 
HETATM   34  H   UNL     1      45.149 -21.844   5.848  1.00  0.00     0.165 HD
HETATM   35  C   UNL     1      44.526 -19.827   6.034  1.00  0.00     0.096 A 
ENDBRANCH  25  26
ENDBRANCH  24  25
ENDBRANCH   3  24
TORSDOF 8
ENDMDL
MODEL 5
REMARK VINA RESULT:      -8.4      7.760     11.698
REMARK  8 active torsions:
REMARK  status: ('A' for Active; 'I' for Inactive)
REMARK    1  A    between atoms: C_2  and  O_3 
REMARK    2  A    between atoms: O_3  and  C_4 
REMARK    3  A    between atoms: C_4  and  C_5 
REMARK    4  A    between atoms: C_10  and  C_11 
REMARK       I    between atoms: C_11  and  N_12 
REMARK    5  A    between atoms: N_12  and  C_13 
REMARK    6  A    between atoms: C_15  and  C_16 
REMARK    7  A    between atoms: C_16  and  C_17 
REMARK    8  A    between atoms: C_17  and  C_18 
ROOT
HETATM    1  C   UNL     1      40.470 -14.613   0.032  1.00  0.00     0.725 A 
HETATM    2  N   UNL     1      41.026 -15.610   0.672  1.00  0.00    -0.046 NA
HETATM    3  C   UNL     1      41.968 -15.019   1.466  1.00  0.00     0.166 A 
HETATM    4  N   UNL     1      42.017 -13.684   1.373  1.00  0.00    -0.144 NA
HETATM    5  N   UNL     1      41.053 -13.452   0.464  1.00  0.00    -0.106 N 
HETATM    6  H   UNL     1      40.856 -12.499   0.188  1.00  0.00     0.208 HD
ENDROOT
BRANCH   1   7
HETATM    7  N   UNL     1      39.469 -14.642  -0.907  1.00  0.00    -0.152 N 
HETATM    8  C   UNL     1      39.555 -13.898  -2.067  1.00  0.00     0.272 C 
HETATM    9  O   UNL     1      40.436 -13.093  -2.346  1.00  0.00    -0.267 OA
HETATM   10  H   UNL     1      38.631 -15.172  -0.737  1.00  0.00     0.187 HD
BRANCH   8  11
HETATM   11  C   UNL     1      38.427 -14.109  -2.993  1.00  0.00     0.063 A 
HETATM   12  C   UNL     1      38.250 -15.151  -3.900  1.00  0.00     0.022 A 
HETATM   13  N   UNL     1      37.099 -14.895  -4.602  1.00  0.00    -0.354 N 
HETATM   14  C   UNL     1      39.079 -16.338  -4.243  1.00  0.00     0.069 C 
HETATM   15  C   UNL     1      36.566 -13.675  -4.254  1.00  0.00     0.115 A 
HETATM   16  H   UNL     1      36.728 -15.461  -5.355  1.00  0.00     0.166 HD
HETATM   17  C   UNL     1      37.322 -13.197  -3.190  1.00  0.00    -0.011 A 
HETATM   18  C   UNL     1      37.091 -11.942  -2.411  1.00  0.00     0.052 C 
BRANCH  15  19
HETATM   19  C   UNL     1      35.444 -13.130  -4.990  1.00  0.00     0.310 C 
HETATM   20  O   UNL     1      34.285 -13.490  -4.831  1.00  0.00    -0.258 OA
BRANCH  19  21
HETATM   21  O   UNL     1      35.868 -12.236  -5.922  1.00  0.00    -0.317 OA
BRANCH  21  22
HETATM   22  C   UNL     1      35.631 -10.854  -5.626  1.00  0.00     0.175 C 
HETATM   23  C   UNL     1      36.845 -10.031  -6.015  1.00  0.00     0.034 C 
ENDBRANCH  21  22
ENDBRANCH  19  21
ENDBRANCH  15  19
ENDBRANCH   8  11
ENDBRANCH   1   7
BRANCH   3  24
HETATM   24  C   UNL     1      42.848 -15.827   2.347  1.00  0.00     0.087 C 
BRANCH  24  25
HETATM   25  C   UNL     1      42.867 -17.296   1.920  1.00  0.00     0.048 C 
BRANCH  25  26
HETATM   26  C   UNL     1      43.502 -18.183   2.943  1.00  0.00    -0.030 A 
HETATM   27  C   UNL     1      43.774 -19.582   2.796  1.00  0.00    -0.002 A 
HETATM   28  C   UNL     1      44.378 -20.019   3.975  1.00  0.00     0.042 A 
HETATM   29  C   UNL     1      43.562 -20.517   1.760  1.00  0.00     0.014 A 
HETATM   30  C   UNL     1      44.782 -21.344   4.172  1.00  0.00     0.030 A 
HETATM   31  N   UNL     1      44.471 -18.928   4.806  1.00  0.00    -0.365 N 
HETATM   32  C   UNL     1      44.559 -22.252   3.132  1.00  0.00     0.002 A 
HETATM   33  C   UNL     1      43.958 -21.847   1.942  1.00  0.00     0.001 A 
HETATM   34  H   UNL     1      44.875 -18.948   5.732  1.00  0.00     0.165 HD
HETATM   35  C   UNL     1      43.945 -17.818   4.199  1.00  0.00     0.096 A 
ENDBRANCH  25  26
ENDBRANCH  24  25
ENDBRANCH   3  24
TORSDOF 8
ENDMDL
MODEL 6
REMARK VINA RESULT:      -8.4      5.627      9.991
REMARK  8 active torsions:
REMARK  status: ('A' for Active; 'I' for Inactive)
REMARK    1  A    between atoms: C_2  and  O_3 
REMARK    2  A    between atoms: O_3  and  C_4 
REMARK    3  A    between atoms: C_4  and  C_5 
REMARK    4  A    between atoms: C_10  and  C_11 
REMARK       I    between atoms: C_11  and  N_12 
REMARK    5  A    between atoms: N_12  and  C_13 
REMARK    6  A    between atoms: C_15  and  C_16 
REMARK    7  A    between atoms: C_16  and  C_17 
REMARK    8  A    between atoms: C_17  and  C_18 
ROOT
HETATM    1  C   UNL     1      40.784 -14.684   3.238  1.00  0.00     0.725 A 
HETATM    2  N   UNL     1      39.968 -14.652   2.215  1.00  0.00    -0.046 NA
HETATM    3  C   UNL     1      39.630 -13.333   2.092  1.00  0.00     0.166 A 
HETATM    4  N   UNL     1      40.217 -12.524   2.982  1.00  0.00    -0.144 NA
HETATM    5  N   UNL     1      40.949 -13.403   3.690  1.00  0.00    -0.106 N 
HETATM    6  H   UNL     1      41.519 -13.065   4.455  1.00  0.00     0.208 HD
ENDROOT
BRANCH   1   7
HETATM    7  N   UNL     1      41.413 -15.764   3.805  1.00  0.00    -0.152 N 
HETATM    8  C   UNL     1      42.783 -15.918   3.723  1.00  0.00     0.272 C 
HETATM    9  O   UNL     1      43.554 -15.206   3.091  1.00  0.00    -0.267 OA
HETATM   10  H   UNL     1      40.874 -16.487   4.249  1.00  0.00     0.187 HD
BRANCH   8  11
HETATM   11  C   UNL     1      43.293 -17.093   4.453  1.00  0.00     0.063 A 
HETATM   12  C   UNL     1      43.899 -17.124   5.706  1.00  0.00     0.022 A 
HETATM   13  N   UNL     1      44.280 -18.420   5.948  1.00  0.00    -0.354 N 
HETATM   14  C   UNL     1      44.234 -16.058   6.689  1.00  0.00     0.069 C 
HETATM   15  C   UNL     1      44.031 -19.222   4.858  1.00  0.00     0.115 A 
HETATM   16  H   UNL     1      44.776 -18.747   6.768  1.00  0.00     0.166 HD
HETATM   17  C   UNL     1      43.335 -18.444   3.939  1.00  0.00    -0.011 A 
HETATM   18  C   UNL     1      42.774 -18.886   2.625  1.00  0.00     0.052 C 
BRANCH  15  19
HETATM   19  C   UNL     1      44.507 -20.590   4.833  1.00  0.00     0.310 C 
HETATM   20  O   UNL     1      44.514 -21.327   5.810  1.00  0.00    -0.258 OA
BRANCH  19  21
HETATM   21  O   UNL     1      45.010 -20.902   3.610  1.00  0.00    -0.317 OA
BRANCH  21  22
HETATM   22  C   UNL     1      44.575 -22.146   3.046  1.00  0.00     0.175 C 
HETATM   23  C   UNL     1      44.160 -21.937   1.601  1.00  0.00     0.034 C 
ENDBRANCH  21  22
ENDBRANCH  19  21
ENDBRANCH  15  19
ENDBRANCH   8  11
ENDBRANCH   1   7
BRANCH   3  24
HETATM   24  C   UNL     1      38.683 -12.875   1.045  1.00  0.00     0.087 C 
BRANCH  24  25
HETATM   25  C   UNL     1      39.425 -12.306  -0.166  1.00  0.00     0.048 C 
BRANCH  25  26
HETATM   26  C   UNL     1      40.015 -13.374  -1.032  1.00  0.00    -0.030 A 
HETATM   27  C   UNL     1      39.314 -14.147  -2.014  1.00  0.00    -0.002 A 
HETATM   28  C   UNL     1      40.235 -15.016  -2.599  1.00  0.00     0.042 A 
HETATM   29  C   UNL     1      37.976 -14.183  -2.460  1.00  0.00     0.014 A 
HETATM   30  C   UNL     1      39.886 -15.921  -3.608  1.00  0.00     0.030 A 
HETATM   31  N   UNL     1      41.448 -14.780  -1.997  1.00  0.00    -0.365 N 
HETATM   32  C   UNL     1      38.553 -15.939  -4.031  1.00  0.00     0.002 A 
HETATM   33  C   UNL     1      37.610 -15.083  -3.467  1.00  0.00     0.001 A 
HETATM   34  H   UNL     1      42.304 -15.265  -2.228  1.00  0.00     0.165 HD
HETATM   35  C   UNL     1      41.329 -13.796  -1.051  1.00  0.00     0.096 A 
ENDBRANCH  25  26
ENDBRANCH  24  25
ENDBRANCH   3  24
TORSDOF 8
ENDMDL
MODEL 7
REMARK VINA RESULT:      -8.3      1.651      2.403
REMARK  8 active torsions:
REMARK  status: ('A' for Active; 'I' for Inactive)
REMARK    1  A    between atoms: C_2  and  O_3 
REMARK    2  A    between atoms: O_3  and  C_4 
REMARK    3  A    between atoms: C_4  and  C_5 
REMARK    4  A    between atoms: C_10  and  C_11 
REMARK       I    between atoms: C_11  and  N_12 
REMARK    5  A    between atoms: N_12  and  C_13 
REMARK    6  A    between atoms: C_15  and  C_16 
REMARK    7  A    between atoms: C_16  and  C_17 
REMARK    8  A    between atoms: C_17  and  C_18 
ROOT
HETATM    1  C   UNL     1      44.516 -13.307   7.516  1.00  0.00     0.725 A 
HETATM    2  N   UNL     1      44.296 -12.955   8.758  1.00  0.00    -0.046 NA
HETATM    3  C   UNL     1      45.506 -12.501   9.201  1.00  0.00     0.166 A 
HETATM    4  N   UNL     1      46.482 -12.531   8.283  1.00  0.00    -0.144 NA
HETATM    5  N   UNL     1      45.826 -13.038   7.224  1.00  0.00    -0.106 N 
HETATM    6  H   UNL     1      46.326 -13.174   6.355  1.00  0.00     0.208 HD
ENDROOT
BRANCH   1   7
HETATM    7  N   UNL     1      43.642 -13.844   6.604  1.00  0.00    -0.152 N 
HETATM    8  C   UNL     1      43.717 -15.174   6.240  1.00  0.00     0.272 C 
HETATM    9  O   UNL     1      44.579 -15.972   6.589  1.00  0.00    -0.267 OA
HETATM   10  H   UNL     1      42.962 -13.259   6.150  1.00  0.00     0.187 HD
BRANCH   8  11
HETATM   11  C   UNL     1      42.654 -15.595   5.309  1.00  0.00     0.063 A 
HETATM   12  C   UNL     1      41.563 -16.420   5.574  1.00  0.00     0.022 A 
HETATM   13  N   UNL     1      40.886 -16.598   4.394  1.00  0.00    -0.354 N 
HETATM   14  C   UNL     1      41.112 -17.128   6.802  1.00  0.00     0.069 C 
HETATM   15  C   UNL     1      41.546 -15.999   3.346  1.00  0.00     0.115 A 
HETATM   16  H   UNL     1      40.065 -17.178   4.266  1.00  0.00     0.166 HD
HETATM   17  C   UNL     1      42.608 -15.290   3.896  1.00  0.00    -0.011 A 
HETATM   18  C   UNL     1      43.577 -14.411   3.172  1.00  0.00     0.052 C 
BRANCH  15  19
HETATM   19  C   UNL     1      41.096 -16.204   1.985  1.00  0.00     0.310 C 
HETATM   20  O   UNL     1      40.315 -15.460   1.406  1.00  0.00    -0.258 OA
BRANCH  19  21
HETATM   21  O   UNL     1      41.595 -17.363   1.482  1.00  0.00    -0.317 OA
BRANCH  21  22
HETATM   22  C   UNL     1      42.899 -17.288   0.892  1.00  0.00     0.175 C 
HETATM   23  C   UNL     1      43.839 -18.247   1.600  1.00  0.00     0.034 C 
ENDBRANCH  21  22
ENDBRANCH  19  21
ENDBRANCH  15  19
ENDBRANCH   8  11
ENDBRANCH   1   7
BRANCH   3  24
HETATM   24  C   UNL     1      45.687 -12.025  10.594  1.00  0.00     0.087 C 
BRANCH  24  25
HETATM   25  C   UNL     1      44.917 -10.726  10.843  1.00  0.00     0.048 C 
BRANCH  25  26
HETATM   26  C   UNL     1      43.498 -10.969  11.251  1.00  0.00    -0.030 A 
HETATM   27  C   UNL     1      42.332 -10.641  10.485  1.00  0.00    -0.002 A 
HETATM   28  C   UNL     1      41.219 -11.045  11.222  1.00  0.00     0.042 A 
HETATM   29  C   UNL     1      42.125 -10.039   9.226  1.00  0.00     0.014 A 
HETATM   30  C   UNL     1      39.907 -10.877  10.765  1.00  0.00     0.030 A 
HETATM   31  N   UNL     1      41.689 -11.598  12.390  1.00  0.00    -0.365 N 
HETATM   32  C   UNL     1      39.728 -10.275   9.516  1.00  0.00     0.002 A 
HETATM   33  C   UNL     1      40.819  -9.861   8.755  1.00  0.00     0.001 A 
HETATM   34  H   UNL     1      41.103 -11.983  13.117  1.00  0.00     0.165 HD
HETATM   35  C   UNL     1      43.058 -11.556  12.421  1.00  0.00     0.096 A 
ENDBRANCH  25  26
ENDBRANCH  24  25
ENDBRANCH   3  24
TORSDOF 8
ENDMDL
MODEL 8
REMARK VINA RESULT:      -8.3      1.875      2.529
REMARK  8 active torsions:
REMARK  status: ('A' for Active; 'I' for Inactive)
REMARK    1  A    between atoms: C_2  and  O_3 
REMARK    2  A    between atoms: O_3  and  C_4 
REMARK    3  A    between atoms: C_4  and  C_5 
REMARK    4  A    between atoms: C_10  and  C_11 
REMARK       I    between atoms: C_11  and  N_12 
REMARK    5  A    between atoms: N_12  and  C_13 
REMARK    6  A    between atoms: C_15  and  C_16 
REMARK    7  A    between atoms: C_16  and  C_17 
REMARK    8  A    between atoms: C_17  and  C_18 
ROOT
HETATM    1  C   UNL     1      44.295 -13.334   7.388  1.00  0.00     0.725 A 
HETATM    2  N   UNL     1      44.021 -12.801   8.552  1.00  0.00    -0.046 NA
HETATM    3  C   UNL     1      45.238 -12.435   9.052  1.00  0.00     0.166 A 
HETATM    4  N   UNL     1      46.273 -12.694   8.243  1.00  0.00    -0.144 NA
HETATM    5  N   UNL     1      45.648 -13.256   7.193  1.00  0.00    -0.106 N 
HETATM    6  H   UNL     1      46.196 -13.560   6.399  1.00  0.00     0.208 HD
ENDROOT
BRANCH   1   7
HETATM    7  N   UNL     1      43.438 -13.882   6.467  1.00  0.00    -0.152 N 
HETATM    8  C   UNL     1      43.516 -15.217   6.124  1.00  0.00     0.272 C 
HETATM    9  O   UNL     1      44.367 -16.013   6.502  1.00  0.00    -0.267 OA
HETATM   10  H   UNL     1      42.769 -13.301   5.990  1.00  0.00     0.187 HD
BRANCH   8  11
HETATM   11  C   UNL     1      42.470 -15.649   5.177  1.00  0.00     0.063 A 
HETATM   12  C   UNL     1      41.349 -16.432   5.441  1.00  0.00     0.022 A 
HETATM   13  N   UNL     1      40.703 -16.642   4.249  1.00  0.00    -0.354 N 
HETATM   14  C   UNL     1      40.841 -17.077   6.683  1.00  0.00     0.069 C 
HETATM   15  C   UNL     1      41.412 -16.105   3.199  1.00  0.00     0.115 A 
HETATM   16  H   UNL     1      39.871 -17.205   4.119  1.00  0.00     0.166 HD
HETATM   17  C   UNL     1      42.476 -15.402   3.753  1.00  0.00    -0.011 A 
HETATM   18  C   UNL     1      43.491 -14.580   3.024  1.00  0.00     0.052 C 
BRANCH  15  19
HETATM   19  C   UNL     1      40.998 -16.355   1.834  1.00  0.00     0.310 C 
HETATM   20  O   UNL     1      41.305 -17.357   1.201  1.00  0.00    -0.258 OA
BRANCH  19  21
HETATM   21  O   UNL     1      40.302 -15.298   1.340  1.00  0.00    -0.317 OA
BRANCH  21  22
HETATM   22  C   UNL     1      38.956 -15.150   1.812  1.00  0.00     0.175 C 
HETATM   23  C   UNL     1      38.216 -14.149   0.944  1.00  0.00     0.034 C 
ENDBRANCH  21  22
ENDBRANCH  19  21
ENDBRANCH  15  19
ENDBRANCH   8  11
ENDBRANCH   1   7
BRANCH   3  24
HETATM   24  C   UNL     1      45.363 -11.806  10.390  1.00  0.00     0.087 C 
BRANCH  24  25
HETATM   25  C   UNL     1      44.877 -10.355  10.371  1.00  0.00     0.048 C 
BRANCH  25  26
HETATM   26  C   UNL     1      43.448 -10.222  10.793  1.00  0.00    -0.030 A 
HETATM   27  C   UNL     1      42.983  -9.908  12.112  1.00  0.00    -0.002 A 
HETATM   28  C   UNL     1      41.590  -9.870  12.068  1.00  0.00     0.042 A 
HETATM   29  C   UNL     1      43.626  -9.651  13.341  1.00  0.00     0.014 A 
HETATM   30  C   UNL     1      40.805  -9.587  13.191  1.00  0.00     0.030 A 
HETATM   31  N   UNL     1      41.222 -10.148  10.772  1.00  0.00    -0.365 N 
HETATM   32  C   UNL     1      41.465  -9.337  14.398  1.00  0.00     0.002 A 
HETATM   33  C   UNL     1      42.856  -9.368  14.475  1.00  0.00     0.001 A 
HETATM   34  H   UNL     1      40.266 -10.182  10.445  1.00  0.00     0.165 HD
HETATM   35  C   UNL     1      42.330 -10.364   9.996  1.00  0.00     0.096 A 
ENDBRANCH  25  26
ENDBRANCH  24  25
ENDBRANCH   3  24
TORSDOF 8
ENDMDL
MODEL 9
REMARK VINA RESULT:      -8.2      7.558     11.572
REMARK  8 active torsions:
REMARK  status: ('A' for Active; 'I' for Inactive)
REMARK    1  A    between atoms: C_2  and  O_3 
REMARK    2  A    between atoms: O_3  and  C_4 
REMARK    3  A    between atoms: C_4  and  C_5 
REMARK    4  A    between atoms: C_10  and  C_11 
REMARK       I    between atoms: C_11  and  N_12 
REMARK    5  A    between atoms: N_12  and  C_13 
REMARK    6  A    between atoms: C_15  and  C_16 
REMARK    7  A    between atoms: C_16  and  C_17 
REMARK    8  A    between atoms: C_17  and  C_18 
ROOT
HETATM    1  C   UNL     1      41.182 -15.283  -0.268  1.00  0.00     0.725 A 
HETATM    2  N   UNL     1      42.119 -15.017   0.607  1.00  0.00    -0.046 NA
HETATM    3  C   UNL     1      42.421 -16.230   1.158  1.00  0.00     0.166 A 
HETATM    4  N   UNL     1      41.729 -17.259   0.653  1.00  0.00    -0.144 NA
HETATM    5  N   UNL     1      40.958 -16.633  -0.253  1.00  0.00    -0.106 N 
HETATM    6  H   UNL     1      40.312 -17.178  -0.810  1.00  0.00     0.208 HD
ENDROOT
BRANCH   1   7
HETATM    7  N   UNL     1      40.506 -14.422  -1.097  1.00  0.00    -0.152 N 
HETATM    8  C   UNL     1      40.523 -14.589  -2.467  1.00  0.00     0.272 C 
HETATM    9  O   UNL     1      41.179 -15.418  -3.087  1.00  0.00    -0.267 OA
HETATM   10  H   UNL     1      40.028 -13.624  -0.715  1.00  0.00     0.187 HD
BRANCH   8  11
HETATM   11  C   UNL     1      39.683 -13.618  -3.193  1.00  0.00     0.063 A 
HETATM   12  C   UNL     1      40.033 -12.342  -3.628  1.00  0.00     0.022 A 
HETATM   13  N   UNL     1      38.914 -11.776  -4.187  1.00  0.00    -0.354 N 
HETATM   14  C   UNL     1      41.289 -11.551  -3.520  1.00  0.00     0.069 C 
HETATM   15  C   UNL     1      37.820 -12.598  -4.047  1.00  0.00     0.115 A 
HETATM   16  H   UNL     1      38.852 -10.837  -4.562  1.00  0.00     0.166 HD
HETATM   17  C   UNL     1      38.283 -13.793  -3.509  1.00  0.00    -0.011 A 
HETATM   18  C   UNL     1      37.486 -15.030  -3.241  1.00  0.00     0.052 C 
BRANCH  15  19
HETATM   19  C   UNL     1      36.501 -12.127  -4.415  1.00  0.00     0.310 C 
HETATM   20  O   UNL     1      36.172 -11.846  -5.560  1.00  0.00    -0.258 OA
BRANCH  19  21
HETATM   21  O   UNL     1      35.721 -11.969  -3.314  1.00  0.00    -0.317 OA
BRANCH  21  22
HETATM   22  C   UNL     1      34.709 -10.957  -3.395  1.00  0.00     0.175 C 
HETATM   23  C   UNL     1      34.350 -10.477  -2.000  1.00  0.00     0.034 C 
ENDBRANCH  21  22
ENDBRANCH  19  21
ENDBRANCH  15  19
ENDBRANCH   8  11
ENDBRANCH   1   7
BRANCH   3  24
HETATM   24  C   UNL     1      43.439 -16.356   2.230  1.00  0.00     0.087 C 
BRANCH  24  25
HETATM   25  C   UNL     1      42.830 -16.926   3.513  1.00  0.00     0.048 C 
BRANCH  25  26
HETATM   26  C   UNL     1      43.582 -18.113   4.027  1.00  0.00    -0.030 A 
HETATM   27  C   UNL     1      43.741 -19.368   3.355  1.00  0.00    -0.002 A 
HETATM   28  C   UNL     1      44.517 -20.188   4.174  1.00  0.00     0.042 A 
HETATM   29  C   UNL     1      43.296 -19.878   2.117  1.00  0.00     0.014 A 
HETATM   30  C   UNL     1      44.871 -21.494   3.819  1.00  0.00     0.030 A 
HETATM   31  N   UNL     1      44.818 -19.459   5.301  1.00  0.00    -0.365 N 
HETATM   32  C   UNL     1      44.416 -21.978   2.589  1.00  0.00     0.002 A 
HETATM   33  C   UNL     1      43.639 -21.184   1.748  1.00  0.00     0.001 A 
HETATM   34  H   UNL     1      45.377 -19.802   6.069  1.00  0.00     0.165 HD
HETATM   35  C   UNL     1      44.260 -18.211   5.226  1.00  0.00     0.096 A 
ENDBRANCH  25  26
ENDBRANCH  24  25
ENDBRANCH   3  24
TORSDOF 8
ENDMDL
MODEL 10
REMARK VINA RESULT:      -8.2      2.716      3.549
REMARK  8 active torsions:
REMARK  status: ('A' for Active; 'I' for Inactive)
REMARK    1  A    between atoms: C_2  and  O_3 
REMARK    2  A    between atoms: O_3  and  C_4 
REMARK    3  A    between atoms: C_4  and  C_5 
REMARK    4  A    between atoms: C_10  and  C_11 
REMARK       I    between atoms: C_11  and  N_12 
REMARK    5  A    between atoms: N_12  and  C_13 
REMARK    6  A    between atoms: C_15  and  C_16 
REMARK    7  A    between atoms: C_16  and  C_17 
REMARK    8  A    between atoms: C_17  and  C_18 
ROOT
HETATM    1  C   UNL     1      40.718 -12.179   5.624  1.00  0.00     0.725 A 
HETATM    2  N   UNL     1      41.486 -11.555   6.481  1.00  0.00    -0.046 NA
HETATM    3  C   UNL     1      40.635 -10.728   7.159  1.00  0.00     0.166 A 
HETATM    4  N   UNL     1      39.353 -10.819   6.783  1.00  0.00    -0.144 NA
HETATM    5  N   UNL     1      39.432 -11.750   5.815  1.00  0.00    -0.106 N 
HETATM    6  H   UNL     1      38.587 -12.033   5.335  1.00  0.00     0.208 HD
ENDROOT
BRANCH   1   7
HETATM    7  N   UNL     1      41.060 -13.116   4.682  1.00  0.00    -0.152 N 
HETATM    8  C   UNL     1      40.497 -14.377   4.690  1.00  0.00     0.272 C 
HETATM    9  O   UNL     1      39.739 -14.824   5.542  1.00  0.00    -0.267 OA
HETATM   10  H   UNL     1      41.769 -12.910   3.998  1.00  0.00     0.187 HD
BRANCH   8  11
HETATM   11  C   UNL     1      40.925 -15.225   3.562  1.00  0.00     0.063 A 
HETATM   12  C   UNL     1      40.238 -15.483   2.378  1.00  0.00     0.022 A 
HETATM   13  N   UNL     1      40.981 -16.386   1.659  1.00  0.00    -0.354 N 
HETATM   14  C   UNL     1      38.916 -15.033   1.863  1.00  0.00     0.069 C 
HETATM   15  C   UNL     1      42.082 -16.802   2.371  1.00  0.00     0.115 A 
HETATM   16  H   UNL     1      40.719 -16.788   0.767  1.00  0.00     0.166 HD
HETATM   17  C   UNL     1      42.124 -16.031   3.528  1.00  0.00    -0.011 A 
HETATM   18  C   UNL     1      43.178 -16.055   4.589  1.00  0.00     0.052 C 
BRANCH  15  19
HETATM   19  C   UNL     1      42.912 -17.877   1.871  1.00  0.00     0.310 C 
HETATM   20  O   UNL     1      43.530 -17.827   0.815  1.00  0.00    -0.258 OA
BRANCH  19  21
HETATM   21  O   UNL     1      42.842 -18.960   2.688  1.00  0.00    -0.317 OA
BRANCH  21  22
HETATM   22  C   UNL     1      44.092 -19.559   3.055  1.00  0.00     0.175 C 
HETATM   23  C   UNL     1      44.211 -19.611   4.567  1.00  0.00     0.034 C 
ENDBRANCH  21  22
ENDBRANCH  19  21
ENDBRANCH  15  19
ENDBRANCH   8  11
ENDBRANCH   1   7
BRANCH   3  24
HETATM   24  C   UNL     1      41.131  -9.817   8.220  1.00  0.00     0.087 C 
BRANCH  24  25
HETATM   25  C   UNL     1      42.055 -10.547   9.196  1.00  0.00     0.048 C 
BRANCH  25  26
HETATM   26  C   UNL     1      41.445 -10.712  10.552  1.00  0.00    -0.030 A 
HETATM   27  C   UNL     1      42.032 -10.312  11.796  1.00  0.00    -0.002 A 
HETATM   28  C   UNL     1      41.130 -10.635  12.809  1.00  0.00     0.042 A 
HETATM   29  C   UNL     1      43.253  -9.699  12.150  1.00  0.00     0.014 A 
HETATM   30  C   UNL     1      41.386 -10.377  14.161  1.00  0.00     0.030 A 
HETATM   31  N   UNL     1      40.036 -11.209  12.205  1.00  0.00    -0.365 N 
HETATM   32  C   UNL     1      42.603  -9.771  14.486  1.00  0.00     0.002 A 
HETATM   33  C   UNL     1      43.525  -9.436  13.498  1.00  0.00     0.001 A 
HETATM   34  H   UNL     1      39.218 -11.538  12.698  1.00  0.00     0.165 HD
HETATM   35  C   UNL     1      40.214 -11.263  10.847  1.00  0.00     0.096 A 
ENDBRANCH  25  26
ENDBRANCH  24  25
ENDBRANCH   3  24
TORSDOF 8
ENDMDL
