MODEL 1
REMARK VINA RESULT:      -7.5      0.000      0.000
REMARK  7 active torsions:
REMARK  status: ('A' for Active; 'I' for Inactive)
REMARK    1  A    between atoms: O_2  and  C_3 
REMARK    2  A    between atoms: C_7  and  C_8 
REMARK    3  A    between atoms: C_8  and  C_9 
REMARK       I    between atoms: C_9  and  N_10 
REMARK    4  A    between atoms: N_10  and  C_11 
REMARK    5  A    between atoms: C_11  and  C_12 
REMARK    6  A    between atoms: C_12  and  N_13 
REMARK    7  A    between atoms: C_12  and  C_19 
ROOT
HETATM    1  C   UNL     1      39.892 -14.112   4.148  1.00  0.00     0.222 C 
HETATM    2  N   UNL     1      39.493 -15.210   3.405  1.00  0.00    -0.358 N 
HETATM    3  O   UNL     1      39.894 -12.989   3.657  1.00  0.00    -0.273 OA
HETATM    4  H   UNL     1      39.631 -16.134   3.808  1.00  0.00     0.162 HD
ENDROOT
BRANCH   2   5
HETATM    5  C   UNL     1      39.225 -15.119   1.974  1.00  0.00     0.160 C 
BRANCH   5   6
HETATM    6  C   UNL     1      40.487 -14.934   1.070  1.00  0.00     0.240 C 
BRANCH   6   7
HETATM    7  N   UNL     1      40.134 -14.889  -0.416  1.00  0.00    -0.061 N 
HETATM    8  H   UNL     1      39.843 -15.849  -0.651  1.00  0.00     0.280 HD
HETATM    9  C   UNL     1      41.284 -14.508  -1.337  1.00  0.00     0.236 C 
HETATM   10  C   UNL     1      40.914 -13.140  -1.866  1.00  0.00     0.029 C 
HETATM   11  C   UNL     1      39.417 -13.242  -2.029  1.00  0.00     0.029 C 
HETATM   12  C   UNL     1      38.974 -13.965  -0.771  1.00  0.00     0.236 C 
ENDBRANCH   6   7
BRANCH   6  13
HETATM   13  C   UNL     1      41.557 -15.956   1.447  1.00  0.00    -0.004 A 
HETATM   14  C   UNL     1      42.771 -15.656   2.095  1.00  0.00     0.042 A 
HETATM   15 CL   UNL     1      43.186 -14.057   2.602  1.00  0.00    -0.084 Cl
HETATM   16  C   UNL     1      43.699 -16.663   2.381  1.00  0.00     0.024 A 
HETATM   17  C   UNL     1      43.437 -17.984   2.025  1.00  0.00     0.002 A 
HETATM   18  C   UNL     1      42.247 -18.303   1.383  1.00  0.00     0.001 A 
HETATM   19  C   UNL     1      41.319 -17.302   1.093  1.00  0.00     0.011 A 
ENDBRANCH   6  13
ENDBRANCH   5   6
ENDBRANCH   2   5
BRANCH   1  20
HETATM   20  C   UNL     1      40.240 -14.450   5.592  1.00  0.00     0.144 C 
BRANCH  20  21
HETATM   21  C   UNL     1      41.647 -14.887   5.817  1.00  0.00    -0.014 A 
HETATM   22  C   UNL     1      42.195 -16.208   5.755  1.00  0.00     0.006 A 
HETATM   23  C   UNL     1      43.561 -16.072   5.968  1.00  0.00     0.088 A 
HETATM   24  C   UNL     1      41.689 -17.503   5.539  1.00  0.00     0.017 A 
HETATM   25  C   UNL     1      44.476 -17.125   5.967  1.00  0.00     0.074 A 
HETATM   26  O   UNL     1      43.876 -14.764   6.168  1.00  0.00    -0.321 OA
HETATM   27  C   UNL     1      43.954 -18.401   5.739  1.00  0.00     0.070 A 
HETATM   28  C   UNL     1      42.581 -18.586   5.549  1.00  0.00     0.038 A 
HETATM   29  C   UNL     1      42.722 -14.058   6.077  1.00  0.00     0.151 A 
BRANCH  27  30
HETATM   30  O   UNL     1      44.690 -19.557   5.701  1.00  0.00    -0.356 OA
HETATM   31  C   UNL     1      44.805 -20.185   4.428  1.00  0.00     0.210 C 
ENDBRANCH  27  30
ENDBRANCH  20  21
ENDBRANCH   1  20
TORSDOF 7
ENDMDL
MODEL 2
REMARK VINA RESULT:      -7.1      2.334      3.407
REMARK  7 active torsions:
REMARK  status: ('A' for Active; 'I' for Inactive)
REMARK    1  A    between atoms: O_2  and  C_3 
REMARK    2  A    between atoms: C_7  and  C_8 
REMARK    3  A    between atoms: C_8  and  C_9 
REMARK       I    between atoms: C_9  and  N_10 
REMARK    4  A    between atoms: N_10  and  C_11 
REMARK    5  A    between atoms: C_11  and  C_12 
REMARK    6  A    between atoms: C_12  and  N_13 
REMARK    7  A    between atoms: C_12  and  C_19 
ROOT
HETATM    1  C   UNL     1      43.809 -14.380   5.719  1.00  0.00     0.222 C 
HETATM    2  N   UNL     1      43.856 -14.706   4.374  1.00  0.00    -0.358 N 
HETATM    3  O   UNL     1      43.058 -13.502   6.127  1.00  0.00    -0.273 OA
HETATM    4  H   UNL     1      44.583 -15.346   4.064  1.00  0.00     0.162 HD
ENDROOT
BRANCH   2   5
HETATM    5  C   UNL     1      43.158 -13.918   3.364  1.00  0.00     0.160 C 
BRANCH   5   6
HETATM    6  C   UNL     1      42.036 -14.679   2.585  1.00  0.00     0.240 C 
BRANCH   6   7
HETATM    7  N   UNL     1      40.646 -14.409   3.160  1.00  0.00    -0.061 N 
HETATM    8  H   UNL     1      40.516 -15.121   3.893  1.00  0.00     0.280 HD
HETATM    9  C   UNL     1      39.503 -14.545   2.165  1.00  0.00     0.236 C 
HETATM   10  C   UNL     1      38.994 -13.133   1.973  1.00  0.00     0.029 C 
HETATM   11  C   UNL     1      39.129 -12.541   3.354  1.00  0.00     0.029 C 
HETATM   12  C   UNL     1      40.481 -13.045   3.822  1.00  0.00     0.236 C 
ENDBRANCH   6   7
BRANCH   6  13
HETATM   13  C   UNL     1      42.399 -16.156   2.449  1.00  0.00    -0.004 A 
HETATM   14  C   UNL     1      42.072 -17.160   3.380  1.00  0.00     0.042 A 
HETATM   15 CL   UNL     1      41.151 -16.842   4.807  1.00  0.00    -0.084 Cl
HETATM   16  C   UNL     1      42.469 -18.485   3.174  1.00  0.00     0.024 A 
HETATM   17  C   UNL     1      43.198 -18.835   2.040  1.00  0.00     0.002 A 
HETATM   18  C   UNL     1      43.534 -17.861   1.108  1.00  0.00     0.001 A 
HETATM   19  C   UNL     1      43.143 -16.536   1.310  1.00  0.00     0.011 A 
ENDBRANCH   6  13
ENDBRANCH   5   6
ENDBRANCH   2   5
BRANCH   1  20
HETATM   20  C   UNL     1      44.706 -15.254   6.586  1.00  0.00     0.144 C 
BRANCH  20  21
HETATM   21  C   UNL     1      44.120 -16.568   6.977  1.00  0.00    -0.014 A 
HETATM   22  C   UNL     1      44.368 -17.861   6.415  1.00  0.00     0.006 A 
HETATM   23  C   UNL     1      43.636 -18.763   7.178  1.00  0.00     0.088 A 
HETATM   24  C   UNL     1      45.131 -18.370   5.348  1.00  0.00     0.017 A 
HETATM   25  C   UNL     1      43.615 -20.143   6.977  1.00  0.00     0.074 A 
HETATM   26  O   UNL     1      42.953 -18.104   8.153  1.00  0.00    -0.321 OA
HETATM   27  C   UNL     1      44.389 -20.629   5.920  1.00  0.00     0.070 A 
HETATM   28  C   UNL     1      45.118 -19.752   5.108  1.00  0.00     0.038 A 
HETATM   29  C   UNL     1      43.247 -16.788   8.026  1.00  0.00     0.151 A 
BRANCH  27  30
HETATM   30  O   UNL     1      44.497 -21.948   5.564  1.00  0.00    -0.356 OA
HETATM   31  C   UNL     1      44.727 -22.208   4.183  1.00  0.00     0.210 C 
ENDBRANCH  27  30
ENDBRANCH  20  21
ENDBRANCH   1  20
TORSDOF 7
ENDMDL
MODEL 3
REMARK VINA RESULT:      -7.1      2.435      4.470
REMARK  7 active torsions:
REMARK  status: ('A' for Active; 'I' for Inactive)
REMARK    1  A    between atoms: O_2  and  C_3 
REMARK    2  A    between atoms: C_7  and  C_8 
REMARK    3  A    between atoms: C_8  and  C_9 
REMARK       I    between atoms: C_9  and  N_10 
REMARK    4  A    between atoms: N_10  and  C_11 
REMARK    5  A    between atoms: C_11  and  C_12 
REMARK    6  A    between atoms: C_12  and  N_13 
REMARK    7  A    between atoms: C_12  and  C_19 
ROOT
HETATM    1  C   UNL     1      43.522 -17.665   1.255  1.00  0.00     0.222 C 
HETATM    2  N   UNL     1      42.265 -17.084   1.221  1.00  0.00    -0.358 N 
HETATM    3  O   UNL     1      44.534 -16.974   1.251  1.00  0.00    -0.273 OA
HETATM    4  H   UNL     1      41.461 -17.694   1.095  1.00  0.00     0.162 HD
ENDROOT
BRANCH   2   5
HETATM    5  C   UNL     1      42.081 -15.653   1.007  1.00  0.00     0.160 C 
BRANCH   5   6
HETATM    6  C   UNL     1      41.181 -14.931   2.062  1.00  0.00     0.240 C 
BRANCH   6   7
HETATM    7  N   UNL     1      40.407 -13.760   1.459  1.00  0.00    -0.061 N 
HETATM    8  H   UNL     1      40.521 -13.858   0.440  1.00  0.00     0.280 HD
HETATM    9  C   UNL     1      40.915 -12.383   1.858  1.00  0.00     0.236 C 
HETATM   10  C   UNL     1      39.826 -11.814   2.741  1.00  0.00     0.029 C 
HETATM   11  C   UNL     1      38.567 -12.328   2.088  1.00  0.00     0.029 C 
HETATM   12  C   UNL     1      38.909 -13.767   1.748  1.00  0.00     0.236 C 
ENDBRANCH   6   7
BRANCH   6  13
HETATM   13  C   UNL     1      41.999 -14.590   3.305  1.00  0.00    -0.004 A 
HETATM   14  C   UNL     1      41.483 -14.485   4.611  1.00  0.00     0.042 A 
HETATM   15 CL   UNL     1      39.823 -14.788   4.983  1.00  0.00    -0.084 Cl
HETATM   16  C   UNL     1      42.313 -14.147   5.685  1.00  0.00     0.024 A 
HETATM   17  C   UNL     1      43.669 -13.905   5.479  1.00  0.00     0.002 A 
HETATM   18  C   UNL     1      44.201 -14.000   4.199  1.00  0.00     0.001 A 
HETATM   19  C   UNL     1      43.376 -14.335   3.123  1.00  0.00     0.011 A 
ENDBRANCH   6  13
ENDBRANCH   5   6
ENDBRANCH   2   5
BRANCH   1  20
HETATM   20  C   UNL     1      43.484 -19.184   1.365  1.00  0.00     0.144 C 
BRANCH  20  21
HETATM   21  C   UNL     1      43.945 -19.734   2.671  1.00  0.00    -0.014 A 
HETATM   22  C   UNL     1      43.822 -19.159   3.977  1.00  0.00     0.006 A 
HETATM   23  C   UNL     1      44.341 -20.095   4.863  1.00  0.00     0.088 A 
HETATM   24  C   UNL     1      43.328 -17.954   4.508  1.00  0.00     0.017 A 
HETATM   25  C   UNL     1      44.392 -19.937   6.248  1.00  0.00     0.074 A 
HETATM   26  O   UNL     1      44.781 -21.189   4.184  1.00  0.00    -0.321 OA
HETATM   27  C   UNL     1      43.886 -18.738   6.756  1.00  0.00     0.070 A 
HETATM   28  C   UNL     1      43.382 -17.756   5.896  1.00  0.00     0.038 A 
HETATM   29  C   UNL     1      44.541 -20.965   2.870  1.00  0.00     0.151 A 
BRANCH  27  30
HETATM   30  O   UNL     1      43.849 -18.398   8.084  1.00  0.00    -0.356 OA
HETATM   31  C   UNL     1      43.368 -17.092   8.383  1.00  0.00     0.210 C 
ENDBRANCH  27  30
ENDBRANCH  20  21
ENDBRANCH   1  20
TORSDOF 7
ENDMDL
MODEL 4
REMARK VINA RESULT:      -7.0      2.321      4.387
REMARK  7 active torsions:
REMARK  status: ('A' for Active; 'I' for Inactive)
REMARK    1  A    between atoms: O_2  and  C_3 
REMARK    2  A    between atoms: C_7  and  C_8 
REMARK    3  A    between atoms: C_8  and  C_9 
REMARK       I    between atoms: C_9  and  N_10 
REMARK    4  A    between atoms: N_10  and  C_11 
REMARK    5  A    between atoms: C_11  and  C_12 
REMARK    6  A    between atoms: C_12  and  N_13 
REMARK    7  A    between atoms: C_12  and  C_19 
ROOT
HETATM    1  C   UNL     1      41.459 -15.987   6.160  1.00  0.00     0.222 C 
HETATM    2  N   UNL     1      41.380 -14.903   5.302  1.00  0.00    -0.358 N 
HETATM    3  O   UNL     1      40.473 -16.676   6.396  1.00  0.00    -0.273 OA
HETATM    4  H   UNL     1      42.186 -14.286   5.238  1.00  0.00     0.162 HD
ENDROOT
BRANCH   2   5
HETATM    5  C   UNL     1      40.105 -14.424   4.778  1.00  0.00     0.160 C 
BRANCH   5   6
HETATM    6  C   UNL     1      39.893 -14.638   3.244  1.00  0.00     0.240 C 
BRANCH   6   7
HETATM    7  N   UNL     1      40.991 -15.500   2.622  1.00  0.00    -0.061 N 
HETATM    8  H   UNL     1      41.696 -15.613   3.364  1.00  0.00     0.280 HD
HETATM    9  C   UNL     1      41.677 -14.887   1.410  1.00  0.00     0.236 C 
HETATM   10  C   UNL     1      41.234 -15.743   0.245  1.00  0.00     0.029 C 
HETATM   11  C   UNL     1      41.188 -17.126   0.848  1.00  0.00     0.029 C 
HETATM   12  C   UNL     1      40.546 -16.898   2.204  1.00  0.00     0.236 C 
ENDBRANCH   6   7
BRANCH   6  13
HETATM   13  C   UNL     1      39.660 -13.296   2.554  1.00  0.00    -0.004 A 
HETATM   14  C   UNL     1      38.735 -13.068   1.517  1.00  0.00     0.042 A 
HETATM   15 CL   UNL     1      37.686 -14.303   0.917  1.00  0.00    -0.084 Cl
HETATM   16  C   UNL     1      38.609 -11.803   0.934  1.00  0.00     0.024 A 
HETATM   17  C   UNL     1      39.401 -10.744   1.370  1.00  0.00     0.002 A 
HETATM   18  C   UNL     1      40.323 -10.945   2.390  1.00  0.00     0.001 A 
HETATM   19  C   UNL     1      40.455 -12.206   2.974  1.00  0.00     0.011 A 
ENDBRANCH   6  13
ENDBRANCH   5   6
ENDBRANCH   2   5
BRANCH   1  20
HETATM   20  C   UNL     1      42.866 -16.242   6.686  1.00  0.00     0.144 C 
BRANCH  20  21
HETATM   21  C   UNL     1      43.346 -17.646   6.548  1.00  0.00    -0.014 A 
HETATM   22  C   UNL     1      43.661 -18.371   5.353  1.00  0.00     0.006 A 
HETATM   23  C   UNL     1      44.133 -19.611   5.765  1.00  0.00     0.088 A 
HETATM   24  C   UNL     1      43.603 -18.115   3.971  1.00  0.00     0.017 A 
HETATM   25  C   UNL     1      44.573 -20.620   4.908  1.00  0.00     0.074 A 
HETATM   26  O   UNL     1      44.113 -19.693   7.123  1.00  0.00    -0.321 OA
HETATM   27  C   UNL     1      44.517 -20.341   3.540  1.00  0.00     0.070 A 
HETATM   28  C   UNL     1      44.021 -19.116   3.082  1.00  0.00     0.038 A 
HETATM   29  C   UNL     1      43.638 -18.511   7.586  1.00  0.00     0.151 A 
BRANCH  27  30
HETATM   30  O   UNL     1      44.902 -21.202   2.544  1.00  0.00    -0.356 OA
HETATM   31  C   UNL     1      43.862 -21.695   1.706  1.00  0.00     0.210 C 
ENDBRANCH  27  30
ENDBRANCH  20  21
ENDBRANCH   1  20
TORSDOF 7
ENDMDL
MODEL 5
REMARK VINA RESULT:      -7.0      2.255      5.021
REMARK  7 active torsions:
REMARK  status: ('A' for Active; 'I' for Inactive)
REMARK    1  A    between atoms: O_2  and  C_3 
REMARK    2  A    between atoms: C_7  and  C_8 
REMARK    3  A    between atoms: C_8  and  C_9 
REMARK       I    between atoms: C_9  and  N_10 
REMARK    4  A    between atoms: N_10  and  C_11 
REMARK    5  A    between atoms: C_11  and  C_12 
REMARK    6  A    between atoms: C_12  and  N_13 
REMARK    7  A    between atoms: C_12  and  C_19 
ROOT
HETATM    1  C   UNL     1      42.352 -17.228   0.975  1.00  0.00     0.222 C 
HETATM    2  N   UNL     1      42.333 -16.111   0.156  1.00  0.00    -0.358 N 
HETATM    3  O   UNL     1      41.331 -17.618   1.530  1.00  0.00    -0.273 OA
HETATM    4  H   UNL     1      43.224 -15.749  -0.177  1.00  0.00     0.162 HD
ENDROOT
BRANCH   2   5
HETATM    5  C   UNL     1      41.159 -15.251   0.050  1.00  0.00     0.160 C 
BRANCH   5   6
HETATM    6  C   UNL     1      41.126 -14.044   1.042  1.00  0.00     0.240 C 
BRANCH   6   7
HETATM    7  N   UNL     1      41.611 -14.428   2.439  1.00  0.00    -0.061 N 
HETATM    8  H   UNL     1      41.967 -15.390   2.345  1.00  0.00     0.280 HD
HETATM    9  C   UNL     1      40.534 -14.429   3.514  1.00  0.00     0.236 C 
HETATM   10  C   UNL     1      40.889 -13.263   4.412  1.00  0.00     0.029 C 
HETATM   11  C   UNL     1      42.398 -13.302   4.425  1.00  0.00     0.029 C 
HETATM   12  C   UNL     1      42.756 -13.575   2.976  1.00  0.00     0.236 C 
ENDBRANCH   6   7
BRANCH   6  13
HETATM   13  C   UNL     1      39.757 -13.367   1.001  1.00  0.00    -0.004 A 
HETATM   14  C   UNL     1      39.524 -11.998   1.233  1.00  0.00     0.042 A 
HETATM   15 CL   UNL     1      40.799 -10.876   1.554  1.00  0.00    -0.084 Cl
HETATM   16  C   UNL     1      38.227 -11.475   1.191  1.00  0.00     0.024 A 
HETATM   17  C   UNL     1      37.141 -12.304   0.920  1.00  0.00     0.002 A 
HETATM   18  C   UNL     1      37.347 -13.659   0.689  1.00  0.00     0.001 A 
HETATM   19  C   UNL     1      38.639 -14.186   0.732  1.00  0.00     0.011 A 
ENDBRANCH   6  13
ENDBRANCH   5   6
ENDBRANCH   2   5
BRANCH   1  20
HETATM   20  C   UNL     1      43.711 -17.912   1.035  1.00  0.00     0.144 C 
BRANCH  20  21
HETATM   21  C   UNL     1      43.931 -18.775   2.231  1.00  0.00    -0.014 A 
HETATM   22  C   UNL     1      43.865 -18.418   3.616  1.00  0.00     0.006 A 
HETATM   23  C   UNL     1      44.074 -19.593   4.329  1.00  0.00     0.088 A 
HETATM   24  C   UNL     1      43.648 -17.235   4.345  1.00  0.00     0.017 A 
HETATM   25  C   UNL     1      44.068 -19.690   5.721  1.00  0.00     0.074 A 
HETATM   26  O   UNL     1      44.275 -20.631   3.473  1.00  0.00    -0.321 OA
HETATM   27  C   UNL     1      43.840 -18.506   6.426  1.00  0.00     0.070 A 
HETATM   28  C   UNL     1      43.654 -17.297   5.747  1.00  0.00     0.038 A 
HETATM   29  C   UNL     1      44.189 -20.133   2.216  1.00  0.00     0.151 A 
BRANCH  27  30
HETATM   30  O   UNL     1      43.798 -18.398   7.792  1.00  0.00    -0.356 OA
HETATM   31  C   UNL     1      43.374 -17.141   8.309  1.00  0.00     0.210 C 
ENDBRANCH  27  30
ENDBRANCH  20  21
ENDBRANCH   1  20
TORSDOF 7
ENDMDL
MODEL 6
REMARK VINA RESULT:      -6.9      2.578      6.422
REMARK  7 active torsions:
REMARK  status: ('A' for Active; 'I' for Inactive)
REMARK    1  A    between atoms: O_2  and  C_3 
REMARK    2  A    between atoms: C_7  and  C_8 
REMARK    3  A    between atoms: C_8  and  C_9 
REMARK       I    between atoms: C_9  and  N_10 
REMARK    4  A    between atoms: N_10  and  C_11 
REMARK    5  A    between atoms: C_11  and  C_12 
REMARK    6  A    between atoms: C_12  and  N_13 
REMARK    7  A    between atoms: C_12  and  C_19 
ROOT
HETATM    1  C   UNL     1      43.669 -16.161   6.623  1.00  0.00     0.222 C 
HETATM    2  N   UNL     1      44.346 -16.858   5.637  1.00  0.00    -0.358 N 
HETATM    3  O   UNL     1      43.450 -16.671   7.716  1.00  0.00    -0.273 OA
HETATM    4  H   UNL     1      44.390 -16.447   4.708  1.00  0.00     0.162 HD
ENDROOT
BRANCH   2   5
HETATM    5  C   UNL     1      44.676 -18.272   5.779  1.00  0.00     0.160 C 
BRANCH   5   6
HETATM    6  C   UNL     1      44.012 -19.220   4.729  1.00  0.00     0.240 C 
BRANCH   6   7
HETATM    7  N   UNL     1      44.925 -20.381   4.335  1.00  0.00    -0.061 N 
HETATM    8  H   UNL     1      45.880 -20.047   4.528  1.00  0.00     0.280 HD
HETATM    9  C   UNL     1      44.854 -20.784   2.870  1.00  0.00     0.236 C 
HETATM   10  C   UNL     1      44.197 -22.146   2.879  1.00  0.00     0.029 C 
HETATM   11  C   UNL     1      44.767 -22.781   4.125  1.00  0.00     0.029 C 
HETATM   12  C   UNL     1      44.721 -21.658   5.144  1.00  0.00     0.236 C 
ENDBRANCH   6   7
BRANCH   6  13
HETATM   13  C   UNL     1      43.465 -18.406   3.558  1.00  0.00    -0.004 A 
HETATM   14  C   UNL     1      42.149 -17.919   3.455  1.00  0.00     0.042 A 
HETATM   15 CL   UNL     1      40.971 -18.146   4.700  1.00  0.00    -0.084 Cl
HETATM   16  C   UNL     1      41.737 -17.197   2.330  1.00  0.00     0.024 A 
HETATM   17  C   UNL     1      42.627 -16.950   1.287  1.00  0.00     0.002 A 
HETATM   18  C   UNL     1      43.931 -17.423   1.365  1.00  0.00     0.001 A 
HETATM   19  C   UNL     1      44.346 -18.146   2.485  1.00  0.00     0.011 A 
ENDBRANCH   6  13
ENDBRANCH   5   6
ENDBRANCH   2   5
BRANCH   1  20
HETATM   20  C   UNL     1      43.315 -14.735   6.223  1.00  0.00     0.144 C 
BRANCH  20  21
HETATM   21  C   UNL     1      42.042 -14.590   5.460  1.00  0.00    -0.014 A 
HETATM   22  C   UNL     1      41.853 -14.146   4.111  1.00  0.00     0.006 A 
HETATM   23  C   UNL     1      40.493 -14.263   3.852  1.00  0.00     0.088 A 
HETATM   24  C   UNL     1      42.680 -13.662   3.082  1.00  0.00     0.017 A 
HETATM   25  C   UNL     1      39.885 -13.951   2.636  1.00  0.00     0.074 A 
HETATM   26  O   UNL     1      39.845 -14.733   4.952  1.00  0.00    -0.321 OA
HETATM   27  C   UNL     1      40.726 -13.483   1.623  1.00  0.00     0.070 A 
HETATM   28  C   UNL     1      42.097 -13.322   1.852  1.00  0.00     0.038 A 
HETATM   29  C   UNL     1      40.781 -14.926   5.913  1.00  0.00     0.151 A 
BRANCH  27  30
HETATM   30  O   UNL     1      40.319 -13.125   0.364  1.00  0.00    -0.356 OA
HETATM   31  C   UNL     1      40.212 -14.183  -0.584  1.00  0.00     0.210 C 
ENDBRANCH  27  30
ENDBRANCH  20  21
ENDBRANCH   1  20
TORSDOF 7
ENDMDL
MODEL 7
REMARK VINA RESULT:      -6.9      2.259      5.012
REMARK  7 active torsions:
REMARK  status: ('A' for Active; 'I' for Inactive)
REMARK    1  A    between atoms: O_2  and  C_3 
REMARK    2  A    between atoms: C_7  and  C_8 
REMARK    3  A    between atoms: C_8  and  C_9 
REMARK       I    between atoms: C_9  and  N_10 
REMARK    4  A    between atoms: N_10  and  C_11 
REMARK    5  A    between atoms: C_11  and  C_12 
REMARK    6  A    between atoms: C_12  and  N_13 
REMARK    7  A    between atoms: C_12  and  C_19 
ROOT
HETATM    1  C   UNL     1      42.473 -17.409   1.070  1.00  0.00     0.222 C 
HETATM    2  N   UNL     1      42.385 -16.453   0.072  1.00  0.00    -0.358 N 
HETATM    3  O   UNL     1      41.486 -17.729   1.723  1.00  0.00    -0.273 OA
HETATM    4  H   UNL     1      43.250 -16.127  -0.353  1.00  0.00     0.162 HD
ENDROOT
BRANCH   2   5
HETATM    5  C   UNL     1      41.176 -15.663  -0.137  1.00  0.00     0.160 C 
BRANCH   5   6
HETATM    6  C   UNL     1      41.377 -14.114  -0.090  1.00  0.00     0.240 C 
BRANCH   6   7
HETATM    7  N   UNL     1      41.092 -13.533   1.295  1.00  0.00    -0.061 N 
HETATM    8  H   UNL     1      40.585 -12.655   1.118  1.00  0.00     0.280 HD
HETATM    9  C   UNL     1      42.328 -13.206   2.119  1.00  0.00     0.236 C 
HETATM   10  C   UNL     1      42.316 -14.216   3.245  1.00  0.00     0.029 C 
HETATM   11  C   UNL     1      40.844 -14.351   3.553  1.00  0.00     0.029 C 
HETATM   12  C   UNL     1      40.201 -14.399   2.180  1.00  0.00     0.236 C 
ENDBRANCH   6   7
BRANCH   6  13
HETATM   13  C   UNL     1      40.613 -13.450  -1.234  1.00  0.00    -0.004 A 
HETATM   14  C   UNL     1      41.164 -12.537  -2.153  1.00  0.00     0.042 A 
HETATM   15 CL   UNL     1      42.831 -12.081  -2.128  1.00  0.00    -0.084 Cl
HETATM   16  C   UNL     1      40.375 -11.967  -3.158  1.00  0.00     0.024 A 
HETATM   17  C   UNL     1      39.026 -12.294  -3.265  1.00  0.00     0.002 A 
HETATM   18  C   UNL     1      38.459 -13.191  -2.368  1.00  0.00     0.001 A 
HETATM   19  C   UNL     1      39.241 -13.761  -1.361  1.00  0.00     0.011 A 
ENDBRANCH   6  13
ENDBRANCH   5   6
ENDBRANCH   2   5
BRANCH   1  20
HETATM   20  C   UNL     1      43.859 -18.028   1.196  1.00  0.00     0.144 C 
BRANCH  20  21
HETATM   21  C   UNL     1      44.061 -18.885   2.399  1.00  0.00    -0.014 A 
HETATM   22  C   UNL     1      44.014 -18.511   3.781  1.00  0.00     0.006 A 
HETATM   23  C   UNL     1      44.193 -19.683   4.505  1.00  0.00     0.088 A 
HETATM   24  C   UNL     1      43.838 -17.315   4.499  1.00  0.00     0.017 A 
HETATM   25  C   UNL     1      44.194 -19.766   5.898  1.00  0.00     0.074 A 
HETATM   26  O   UNL     1      44.358 -20.736   3.660  1.00  0.00    -0.321 OA
HETATM   27  C   UNL     1      44.005 -18.568   6.592  1.00  0.00     0.070 A 
HETATM   28  C   UNL     1      43.851 -17.361   5.901  1.00  0.00     0.038 A 
HETATM   29  C   UNL     1      44.279 -20.249   2.398  1.00  0.00     0.151 A 
BRANCH  27  30
HETATM   30  O   UNL     1      43.975 -18.445   7.957  1.00  0.00    -0.356 OA
HETATM   31  C   UNL     1      43.387 -17.252   8.466  1.00  0.00     0.210 C 
ENDBRANCH  27  30
ENDBRANCH  20  21
ENDBRANCH   1  20
TORSDOF 7
ENDMDL
MODEL 8
REMARK VINA RESULT:      -6.9      2.637      4.592
REMARK  7 active torsions:
REMARK  status: ('A' for Active; 'I' for Inactive)
REMARK    1  A    between atoms: O_2  and  C_3 
REMARK    2  A    between atoms: C_7  and  C_8 
REMARK    3  A    between atoms: C_8  and  C_9 
REMARK       I    between atoms: C_9  and  N_10 
REMARK    4  A    between atoms: N_10  and  C_11 
REMARK    5  A    between atoms: C_11  and  C_12 
REMARK    6  A    between atoms: C_12  and  N_13 
REMARK    7  A    between atoms: C_12  and  C_19 
ROOT
HETATM    1  C   UNL     1      41.326 -15.596   0.744  1.00  0.00     0.222 C 
HETATM    2  N   UNL     1      40.217 -14.845   0.393  1.00  0.00    -0.358 N 
HETATM    3  O   UNL     1      42.444 -15.094   0.764  1.00  0.00    -0.273 OA
HETATM    4  H   UNL     1      39.333 -15.332   0.264  1.00  0.00     0.162 HD
ENDROOT
BRANCH   2   5
HETATM    5  C   UNL     1      40.336 -13.488  -0.131  1.00  0.00     0.160 C 
BRANCH   5   6
HETATM    6  C   UNL     1      40.711 -13.389  -1.645  1.00  0.00     0.240 C 
BRANCH   6   7
HETATM    7  N   UNL     1      40.869 -11.942  -2.110  1.00  0.00    -0.061 N 
HETATM    8  H   UNL     1      40.026 -11.458  -1.772  1.00  0.00     0.280 HD
HETATM    9  C   UNL     1      40.945 -11.758  -3.618  1.00  0.00     0.236 C 
HETATM   10  C   UNL     1      42.370 -11.323  -3.880  1.00  0.00     0.029 C 
HETATM   11  C   UNL     1      42.672 -10.445  -2.690  1.00  0.00     0.029 C 
HETATM   12  C   UNL     1      42.074 -11.212  -1.526  1.00  0.00     0.236 C 
ENDBRANCH   6   7
BRANCH   6  13
HETATM   13  C   UNL     1      39.748 -14.231  -2.480  1.00  0.00    -0.004 A 
HETATM   14  C   UNL     1      38.368 -13.985  -2.619  1.00  0.00     0.042 A 
HETATM   15 CL   UNL     1      37.584 -12.633  -1.880  1.00  0.00    -0.084 Cl
HETATM   16  C   UNL     1      37.564 -14.827  -3.394  1.00  0.00     0.024 A 
HETATM   17  C   UNL     1      38.117 -15.929  -4.041  1.00  0.00     0.002 A 
HETATM   18  C   UNL     1      39.475 -16.194  -3.917  1.00  0.00     0.001 A 
HETATM   19  C   UNL     1      40.282 -15.357  -3.143  1.00  0.00     0.011 A 
ENDBRANCH   6  13
ENDBRANCH   5   6
ENDBRANCH   2   5
BRANCH   1  20
HETATM   20  C   UNL     1      40.988 -17.025   1.148  1.00  0.00     0.144 C 
BRANCH  20  21
HETATM   21  C   UNL     1      41.540 -17.457   2.463  1.00  0.00    -0.014 A 
HETATM   22  C   UNL     1      42.566 -18.419   2.731  1.00  0.00     0.006 A 
HETATM   23  C   UNL     1      42.764 -18.403   4.106  1.00  0.00     0.088 A 
HETATM   24  C   UNL     1      43.350 -19.300   1.964  1.00  0.00     0.017 A 
HETATM   25  C   UNL     1      43.699 -19.184   4.785  1.00  0.00     0.074 A 
HETATM   26  O   UNL     1      41.921 -17.508   4.690  1.00  0.00    -0.321 OA
HETATM   27  C   UNL     1      44.476 -20.043   4.003  1.00  0.00     0.070 A 
HETATM   28  C   UNL     1      44.288 -20.113   2.619  1.00  0.00     0.038 A 
HETATM   29  C   UNL     1      41.189 -16.945   3.698  1.00  0.00     0.151 A 
BRANCH  27  30
HETATM   30  O   UNL     1      45.443 -20.887   4.485  1.00  0.00    -0.356 OA
HETATM   31  C   UNL     1      44.979 -22.038   5.184  1.00  0.00     0.210 C 
ENDBRANCH  27  30
ENDBRANCH  20  21
ENDBRANCH   1  20
TORSDOF 7
ENDMDL
MODEL 9
REMARK VINA RESULT:      -6.9      2.504      5.757
REMARK  7 active torsions:
REMARK  status: ('A' for Active; 'I' for Inactive)
REMARK    1  A    between atoms: O_2  and  C_3 
REMARK    2  A    between atoms: C_7  and  C_8 
REMARK    3  A    between atoms: C_8  and  C_9 
REMARK       I    between atoms: C_9  and  N_10 
REMARK    4  A    between atoms: N_10  and  C_11 
REMARK    5  A    between atoms: C_11  and  C_12 
REMARK    6  A    between atoms: C_12  and  N_13 
REMARK    7  A    between atoms: C_12  and  C_19 
ROOT
HETATM    1  C   UNL     1      41.453 -16.032   5.360  1.00  0.00     0.222 C 
HETATM    2  N   UNL     1      42.433 -16.610   4.572  1.00  0.00    -0.358 N 
HETATM    3  O   UNL     1      40.702 -16.723   6.039  1.00  0.00    -0.273 OA
HETATM    4  H   UNL     1      42.945 -16.009   3.930  1.00  0.00     0.162 HD
ENDROOT
BRANCH   2   5
HETATM    5  C   UNL     1      42.514 -18.053   4.374  1.00  0.00     0.160 C 
BRANCH   5   6
HETATM    6  C   UNL     1      43.634 -18.529   3.393  1.00  0.00     0.240 C 
BRANCH   6   7
HETATM    7  N   UNL     1      43.263 -18.293   1.930  1.00  0.00    -0.061 N 
HETATM    8  H   UNL     1      43.549 -19.152   1.439  1.00  0.00     0.280 HD
HETATM    9  C   UNL     1      43.968 -17.117   1.271  1.00  0.00     0.236 C 
HETATM   10  C   UNL     1      42.877 -16.094   1.045  1.00  0.00     0.029 C 
HETATM   11  C   UNL     1      41.688 -16.952   0.685  1.00  0.00     0.029 C 
HETATM   12  C   UNL     1      41.772 -18.101   1.671  1.00  0.00     0.236 C 
ENDBRANCH   6   7
BRANCH   6  13
HETATM   13  C   UNL     1      44.052 -19.960   3.728  1.00  0.00    -0.004 A 
HETATM   14  C   UNL     1      44.489 -20.401   4.991  1.00  0.00     0.042 A 
HETATM   15 CL   UNL     1      44.561 -19.360   6.369  1.00  0.00    -0.084 Cl
HETATM   16  C   UNL     1      44.869 -21.732   5.193  1.00  0.00     0.024 A 
HETATM   17  C   UNL     1      44.824 -22.645   4.143  1.00  0.00     0.002 A 
HETATM   18  C   UNL     1      44.398 -22.232   2.886  1.00  0.00     0.001 A 
HETATM   19  C   UNL     1      44.020 -20.905   2.679  1.00  0.00     0.011 A 
ENDBRANCH   6  13
ENDBRANCH   5   6
ENDBRANCH   2   5
BRANCH   1  20
HETATM   20  C   UNL     1      41.472 -14.509   5.332  1.00  0.00     0.144 C 
BRANCH  20  21
HETATM   21  C   UNL     1      41.497 -13.903   3.971  1.00  0.00    -0.014 A 
HETATM   22  C   UNL     1      40.556 -14.062   2.903  1.00  0.00     0.006 A 
HETATM   23  C   UNL     1      40.991 -13.234   1.876  1.00  0.00     0.088 A 
HETATM   24  C   UNL     1      39.384 -14.812   2.693  1.00  0.00     0.017 A 
HETATM   25  C   UNL     1      40.340 -13.075   0.652  1.00  0.00     0.074 A 
HETATM   26  O   UNL     1      42.135 -12.595   2.241  1.00  0.00    -0.321 OA
HETATM   27  C   UNL     1      39.172 -13.820   0.468  1.00  0.00     0.070 A 
HETATM   28  C   UNL     1      38.716 -14.688   1.465  1.00  0.00     0.038 A 
HETATM   29  C   UNL     1      42.434 -13.002   3.499  1.00  0.00     0.151 A 
BRANCH  27  30
HETATM   30  O   UNL     1      38.396 -13.800  -0.662  1.00  0.00    -0.356 OA
HETATM   31  C   UNL     1      38.602 -12.701  -1.544  1.00  0.00     0.210 C 
ENDBRANCH  27  30
ENDBRANCH  20  21
ENDBRANCH   1  20
TORSDOF 7
ENDMDL
MODEL 10
REMARK VINA RESULT:      -6.8      1.818      2.315
REMARK  7 active torsions:
REMARK  status: ('A' for Active; 'I' for Inactive)
REMARK    1  A    between atoms: O_2  and  C_3 
REMARK    2  A    between atoms: C_7  and  C_8 
REMARK    3  A    between atoms: C_8  and  C_9 
REMARK       I    between atoms: C_9  and  N_10 
REMARK    4  A    between atoms: N_10  and  C_11 
REMARK    5  A    between atoms: C_11  and  C_12 
REMARK    6  A    between atoms: C_12  and  N_13 
REMARK    7  A    between atoms: C_12  and  C_19 
ROOT
HETATM    1  C   UNL     1      41.450 -12.713   2.664  1.00  0.00     0.222 C 
HETATM    2  N   UNL     1      42.136 -13.592   1.842  1.00  0.00    -0.358 N 
HETATM    3  O   UNL     1      40.523 -12.039   2.229  1.00  0.00    -0.273 OA
HETATM    4  H   UNL     1      42.977 -14.031   2.211  1.00  0.00     0.162 HD
ENDROOT
BRANCH   2   5
HETATM    5  C   UNL     1      41.914 -13.636   0.401  1.00  0.00     0.160 C 
BRANCH   5   6
HETATM    6  C   UNL     1      41.728 -15.066  -0.201  1.00  0.00     0.240 C 
BRANCH   6   7
HETATM    7  N   UNL     1      40.484 -15.168  -1.083  1.00  0.00    -0.061 N 
HETATM    8  H   UNL     1      39.881 -15.861  -0.617  1.00  0.00     0.280 HD
HETATM    9  C   UNL     1      40.743 -15.649  -2.503  1.00  0.00     0.236 C 
HETATM   10  C   UNL     1      40.474 -14.440  -3.371  1.00  0.00     0.029 C 
HETATM   11  C   UNL     1      39.309 -13.782  -2.672  1.00  0.00     0.029 C 
HETATM   12  C   UNL     1      39.680 -13.878  -1.204  1.00  0.00     0.236 C 
ENDBRANCH   6   7
BRANCH   6  13
HETATM   13  C   UNL     1      41.821 -16.117   0.904  1.00  0.00    -0.004 A 
HETATM   14  C   UNL     1      40.821 -16.376   1.861  1.00  0.00     0.042 A 
HETATM   15 CL   UNL     1      39.305 -15.547   1.872  1.00  0.00    -0.084 Cl
HETATM   16  C   UNL     1      41.009 -17.349   2.848  1.00  0.00     0.024 A 
HETATM   17  C   UNL     1      42.193 -18.080   2.901  1.00  0.00     0.002 A 
HETATM   18  C   UNL     1      43.195 -17.840   1.969  1.00  0.00     0.001 A 
HETATM   19  C   UNL     1      43.014 -16.868   0.983  1.00  0.00     0.011 A 
ENDBRANCH   6  13
ENDBRANCH   5   6
ENDBRANCH   2   5
BRANCH   1  20
HETATM   20  C   UNL     1      41.921 -12.743   4.112  1.00  0.00     0.144 C 
BRANCH  20  21
HETATM   21  C   UNL     1      41.445 -13.911   4.906  1.00  0.00    -0.014 A 
HETATM   22  C   UNL     1      42.193 -15.039   5.376  1.00  0.00     0.006 A 
HETATM   23  C   UNL     1      41.309 -15.804   6.127  1.00  0.00     0.088 A 
HETATM   24  C   UNL     1      43.517 -15.496   5.251  1.00  0.00     0.017 A 
HETATM   25  C   UNL     1      41.642 -16.988   6.785  1.00  0.00     0.074 A 
HETATM   26  O   UNL     1      40.078 -15.226   6.133  1.00  0.00    -0.321 OA
HETATM   27  C   UNL     1      42.966 -17.418   6.658  1.00  0.00     0.070 A 
HETATM   28  C   UNL     1      43.880 -16.693   5.887  1.00  0.00     0.038 A 
HETATM   29  C   UNL     1      40.166 -14.092   5.398  1.00  0.00     0.151 A 
BRANCH  27  30
HETATM   30  O   UNL     1      43.483 -18.553   7.228  1.00  0.00    -0.356 OA
HETATM   31  C   UNL     1      44.128 -19.461   6.341  1.00  0.00     0.210 C 
ENDBRANCH  27  30
ENDBRANCH  20  21
ENDBRANCH   1  20
TORSDOF 7
ENDMDL
