MODEL 1
REMARK VINA RESULT:      -8.3      0.000      0.000
REMARK  4 active torsions:
REMARK  status: ('A' for Active; 'I' for Inactive)
REMARK    1  A    between atoms: O_2  and  C_3 
REMARK    2  A    between atoms: C_4  and  O_5 
REMARK    3  A    between atoms: C_9  and  C_10 
REMARK    4  A    between atoms: C_10  and  N_11 
ROOT
HETATM    1  N   UNL     1      42.398 -17.126   1.094  1.00  0.00    -0.066 N 
HETATM    2  H   UNL     1      42.544 -17.848   0.379  1.00  0.00     0.280 HD
HETATM    3  C   UNL     1      41.221 -17.642   1.907  1.00  0.00     0.246 C 
HETATM    4  C   UNL     1      40.434 -16.538   2.640  1.00  0.00     0.062 C 
HETATM    5  C   UNL     1      39.998 -15.470   1.646  1.00  0.00     0.020 C 
HETATM    6  C   UNL     1      41.258 -14.833   1.081  1.00  0.00     0.031 C 
HETATM    7  C   UNL     1      42.020 -14.131   2.209  1.00  0.00     0.138 C 
HETATM    8  N   UNL     1      42.049 -14.822   3.499  1.00  0.00    -0.317 N 
HETATM    9  C   UNL     1      41.237 -15.926   3.768  1.00  0.00     0.020 A 
HETATM   10  C   UNL     1      41.186 -16.432   5.013  1.00  0.00     0.026 A 
HETATM   11  C   UNL     1      42.846 -14.224   4.487  1.00  0.00     0.247 A 
HETATM   12  O   UNL     1      43.596 -13.276   4.273  1.00  0.00    -0.268 OA
HETATM   13  C   UNL     1      42.776 -14.818   5.843  1.00  0.00     0.074 A 
HETATM   14  C   UNL     1      41.975 -15.864   6.074  1.00  0.00     0.007 A 
HETATM   15  C   UNL     1      42.096 -15.865   0.316  1.00  0.00     0.241 C 
ENDROOT
BRANCH   1  16
HETATM   16  C   UNL     1      43.749 -17.096   1.791  1.00  0.00     0.273 C 
BRANCH  16  17
HETATM   17  C   UNL     1      43.970 -18.222   2.767  1.00  0.00    -0.028 A 
HETATM   18  C   UNL     1      44.129 -17.948   4.136  1.00  0.00     0.031 A 
HETATM   19  C   UNL     1      44.370 -18.980   5.047  1.00  0.00     0.047 A 
HETATM   20  C   UNL     1      44.465 -20.298   4.602  1.00  0.00     0.116 A 
HETATM   21 BR   UNL     1      44.595 -18.526   6.873  1.00  0.00    -0.048 Br
HETATM   22  C   UNL     1      44.261 -20.585   3.250  1.00  0.00     0.103 A 
HETATM   23  C   UNL     1      44.037 -19.555   2.333  1.00  0.00     0.048 A 
BRANCH  20  24
HETATM   24  O   UNL     1      44.797 -21.292   5.478  1.00  0.00    -0.357 OA
HETATM   25  H   UNL     1      44.896 -22.114   4.962  1.00  0.00     0.218 HD
ENDBRANCH  20  24
BRANCH  22  26
HETATM   26  O   UNL     1      44.349 -21.854   2.744  1.00  0.00    -0.353 OA
HETATM   27  C   UNL     1      43.971 -21.919   1.364  1.00  0.00     0.210 C 
ENDBRANCH  22  26
ENDBRANCH  16  17
ENDBRANCH   1  16
TORSDOF 4
ENDMDL
MODEL 2
REMARK VINA RESULT:      -8.2      1.405      2.268
REMARK  4 active torsions:
REMARK  status: ('A' for Active; 'I' for Inactive)
REMARK    1  A    between atoms: O_2  and  C_3 
REMARK    2  A    between atoms: C_4  and  O_5 
REMARK    3  A    between atoms: C_9  and  C_10 
REMARK    4  A    between atoms: C_10  and  N_11 
ROOT
HETATM    1  N   UNL     1      42.366 -16.939   1.185  1.00  0.00    -0.066 N 
HETATM    2  H   UNL     1      42.554 -17.627   0.446  1.00  0.00     0.280 HD
HETATM    3  C   UNL     1      41.193 -17.529   1.951  1.00  0.00     0.246 C 
HETATM    4  C   UNL     1      40.350 -16.485   2.708  1.00  0.00     0.062 C 
HETATM    5  C   UNL     1      39.894 -15.396   1.747  1.00  0.00     0.020 C 
HETATM    6  C   UNL     1      41.141 -14.691   1.234  1.00  0.00     0.031 C 
HETATM    7  C   UNL     1      41.851 -14.006   2.405  1.00  0.00     0.138 C 
HETATM    8  N   UNL     1      41.880 -14.745   3.668  1.00  0.00    -0.317 N 
HETATM    9  C   UNL     1      41.105 -15.889   3.876  1.00  0.00     0.020 A 
HETATM   10  C   UNL     1      41.048 -16.444   5.100  1.00  0.00     0.026 A 
HETATM   11  C   UNL     1      42.634 -14.157   4.695  1.00  0.00     0.247 A 
HETATM   12  O   UNL     1      43.351 -13.174   4.535  1.00  0.00    -0.268 OA
HETATM   13  C   UNL     1      42.558 -14.807   6.026  1.00  0.00     0.074 A 
HETATM   14  C   UNL     1      41.793 -15.889   6.199  1.00  0.00     0.007 A 
HETATM   15  C   UNL     1      42.032 -15.660   0.449  1.00  0.00     0.241 C 
ENDROOT
BRANCH   1  16
HETATM   16  C   UNL     1      43.700 -16.886   1.912  1.00  0.00     0.273 C 
BRANCH  16  17
HETATM   17  C   UNL     1      44.010 -18.111   2.732  1.00  0.00    -0.028 A 
HETATM   18  C   UNL     1      44.110 -19.368   2.112  1.00  0.00     0.031 A 
HETATM   19  C   UNL     1      44.363 -20.518   2.866  1.00  0.00     0.047 A 
HETATM   20  C   UNL     1      44.508 -20.428   4.250  1.00  0.00     0.116 A 
HETATM   21 BR   UNL     1      44.462 -22.179   1.959  1.00  0.00    -0.048 Br
HETATM   22  C   UNL     1      44.457 -19.177   4.869  1.00  0.00     0.103 A 
HETATM   23  C   UNL     1      44.188 -18.027   4.121  1.00  0.00     0.048 A 
BRANCH  20  24
HETATM   24  O   UNL     1      44.656 -21.563   4.996  1.00  0.00    -0.357 OA
HETATM   25  H   UNL     1      44.177 -22.278   4.537  1.00  0.00     0.218 HD
ENDBRANCH  20  24
BRANCH  22  26
HETATM   26  O   UNL     1      44.582 -19.018   6.223  1.00  0.00    -0.353 OA
HETATM   27  C   UNL     1      44.980 -17.690   6.583  1.00  0.00     0.210 C 
ENDBRANCH  22  26
ENDBRANCH  16  17
ENDBRANCH   1  16
TORSDOF 4
ENDMDL
MODEL 3
REMARK VINA RESULT:      -7.3      2.339      4.381
REMARK  4 active torsions:
REMARK  status: ('A' for Active; 'I' for Inactive)
REMARK    1  A    between atoms: O_2  and  C_3 
REMARK    2  A    between atoms: C_4  and  O_5 
REMARK    3  A    between atoms: C_9  and  C_10 
REMARK    4  A    between atoms: C_10  and  N_11 
ROOT
HETATM    1  N   UNL     1      41.462 -14.869   6.072  1.00  0.00    -0.066 N 
HETATM    2  H   UNL     1      41.740 -15.070   7.040  1.00  0.00     0.280 HD
HETATM    3  C   UNL     1      42.748 -14.405   5.406  1.00  0.00     0.246 C 
HETATM    4  C   UNL     1      42.527 -13.511   4.171  1.00  0.00     0.062 C 
HETATM    5  C   UNL     1      41.637 -12.332   4.543  1.00  0.00     0.020 C 
HETATM    6  C   UNL     1      40.283 -12.893   4.947  1.00  0.00     0.031 C 
HETATM    7  C   UNL     1      39.645 -13.592   3.743  1.00  0.00     0.138 C 
HETATM    8  N   UNL     1      40.548 -14.367   2.890  1.00  0.00    -0.317 N 
HETATM    9  C   UNL     1      41.937 -14.284   3.011  1.00  0.00     0.020 A 
HETATM   10  C   UNL     1      42.725 -14.893   2.108  1.00  0.00     0.026 A 
HETATM   11  C   UNL     1      39.931 -15.094   1.860  1.00  0.00     0.247 A 
HETATM   12  O   UNL     1      38.715 -15.215   1.748  1.00  0.00    -0.268 OA
HETATM   13  C   UNL     1      40.832 -15.766   0.893  1.00  0.00     0.074 A 
HETATM   14  C   UNL     1      42.158 -15.653   1.025  1.00  0.00     0.007 A 
HETATM   15  C   UNL     1      40.411 -13.787   6.187  1.00  0.00     0.241 C 
ENDROOT
BRANCH   1  16
HETATM   16  C   UNL     1      40.903 -16.209   5.621  1.00  0.00     0.273 C 
BRANCH  16  17
HETATM   17  C   UNL     1      41.946 -17.269   5.383  1.00  0.00    -0.028 A 
HETATM   18  C   UNL     1      42.214 -17.714   4.077  1.00  0.00     0.031 A 
HETATM   19  C   UNL     1      43.155 -18.722   3.846  1.00  0.00     0.047 A 
HETATM   20  C   UNL     1      43.832 -19.306   4.915  1.00  0.00     0.116 A 
HETATM   21 BR   UNL     1      43.443 -19.281   2.058  1.00  0.00    -0.048 Br
HETATM   22  C   UNL     1      43.606 -18.837   6.212  1.00  0.00     0.103 A 
HETATM   23  C   UNL     1      42.655 -17.842   6.450  1.00  0.00     0.048 A 
BRANCH  20  24
HETATM   24  O   UNL     1      44.676 -20.357   4.697  1.00  0.00    -0.357 OA
HETATM   25  H   UNL     1      44.133 -21.112   4.406  1.00  0.00     0.218 HD
ENDBRANCH  20  24
BRANCH  22  26
HETATM   26  O   UNL     1      44.229 -19.372   7.308  1.00  0.00    -0.353 OA
HETATM   27  C   UNL     1      44.198 -18.490   8.437  1.00  0.00     0.210 C 
ENDBRANCH  22  26
ENDBRANCH  16  17
ENDBRANCH   1  16
TORSDOF 4
ENDMDL
MODEL 4
REMARK VINA RESULT:      -7.2      3.565      6.371
REMARK  4 active torsions:
REMARK  status: ('A' for Active; 'I' for Inactive)
REMARK    1  A    between atoms: O_2  and  C_3 
REMARK    2  A    between atoms: C_4  and  O_5 
REMARK    3  A    between atoms: C_9  and  C_10 
REMARK    4  A    between atoms: C_10  and  N_11 
ROOT
HETATM    1  N   UNL     1      40.531 -15.317   4.023  1.00  0.00    -0.066 N 
HETATM    2  H   UNL     1      39.604 -14.934   4.245  1.00  0.00     0.280 HD
HETATM    3  C   UNL     1      40.904 -16.124   5.257  1.00  0.00     0.246 C 
HETATM    4  C   UNL     1      42.421 -16.314   5.447  1.00  0.00     0.062 C 
HETATM    5  C   UNL     1      43.114 -14.957   5.439  1.00  0.00     0.020 C 
HETATM    6  C   UNL     1      42.900 -14.345   4.063  1.00  0.00     0.031 C 
HETATM    7  C   UNL     1      43.583 -15.219   3.008  1.00  0.00     0.138 C 
HETATM    8  N   UNL     1      43.484 -16.667   3.203  1.00  0.00    -0.317 N 
HETATM    9  C   UNL     1      43.013 -17.225   4.393  1.00  0.00     0.020 A 
HETATM   10  C   UNL     1      43.083 -18.554   4.583  1.00  0.00     0.026 A 
HETATM   11  C   UNL     1      44.014 -17.453   2.168  1.00  0.00     0.247 A 
HETATM   12  O   UNL     1      44.403 -16.996   1.098  1.00  0.00    -0.268 OA
HETATM   13  C   UNL     1      44.061 -18.916   2.407  1.00  0.00     0.074 A 
HETATM   14  C   UNL     1      43.619 -19.419   3.564  1.00  0.00     0.007 A 
HETATM   15  C   UNL     1      41.408 -14.105   3.799  1.00  0.00     0.241 C 
ENDROOT
BRANCH   1  16
HETATM   16  C   UNL     1      40.250 -16.102   2.752  1.00  0.00     0.273 C 
BRANCH  16  17
HETATM   17  C   UNL     1      39.955 -15.249   1.546  1.00  0.00    -0.028 A 
HETATM   18  C   UNL     1      38.848 -14.383   1.548  1.00  0.00     0.031 A 
HETATM   19  C   UNL     1      38.543 -13.612   0.422  1.00  0.00     0.047 A 
HETATM   20  C   UNL     1      39.332 -13.705  -0.723  1.00  0.00     0.116 A 
HETATM   21 BR   UNL     1      37.022 -12.485   0.497  1.00  0.00    -0.048 Br
HETATM   22  C   UNL     1      40.461 -14.528  -0.718  1.00  0.00     0.103 A 
HETATM   23  C   UNL     1      40.760 -15.313   0.399  1.00  0.00     0.048 A 
BRANCH  20  24
HETATM   24  O   UNL     1      38.976 -13.026  -1.854  1.00  0.00    -0.357 OA
HETATM   25  H   UNL     1      38.357 -12.321  -1.588  1.00  0.00     0.218 HD
ENDBRANCH  20  24
BRANCH  22  26
HETATM   26  O   UNL     1      41.273 -14.672  -1.811  1.00  0.00    -0.353 OA
HETATM   27  C   UNL     1      40.885 -15.776  -2.638  1.00  0.00     0.210 C 
ENDBRANCH  22  26
ENDBRANCH  16  17
ENDBRANCH   1  16
TORSDOF 4
ENDMDL
MODEL 5
REMARK VINA RESULT:      -7.1      2.168      4.062
REMARK  4 active torsions:
REMARK  status: ('A' for Active; 'I' for Inactive)
REMARK    1  A    between atoms: O_2  and  C_3 
REMARK    2  A    between atoms: C_4  and  O_5 
REMARK    3  A    between atoms: C_9  and  C_10 
REMARK    4  A    between atoms: C_10  and  N_11 
ROOT
HETATM    1  N   UNL     1      41.235 -14.295   6.075  1.00  0.00    -0.066 N 
HETATM    2  H   UNL     1      41.476 -14.414   7.067  1.00  0.00     0.280 HD
HETATM    3  C   UNL     1      42.561 -13.960   5.410  1.00  0.00     0.246 C 
HETATM    4  C   UNL     1      42.419 -13.178   4.089  1.00  0.00     0.062 C 
HETATM    5  C   UNL     1      41.580 -11.928   4.319  1.00  0.00     0.020 C 
HETATM    6  C   UNL     1      40.189 -12.383   4.731  1.00  0.00     0.031 C 
HETATM    7  C   UNL     1      39.550 -13.163   3.579  1.00  0.00     0.138 C 
HETATM    8  N   UNL     1      40.436 -14.058   2.832  1.00  0.00    -0.317 N 
HETATM    9  C   UNL     1      41.823 -14.030   2.990  1.00  0.00     0.020 A 
HETATM   10  C   UNL     1      42.604 -14.761   2.175  1.00  0.00     0.026 A 
HETATM   11  C   UNL     1      39.811 -14.851   1.857  1.00  0.00     0.247 A 
HETATM   12  O   UNL     1      38.594 -14.923   1.717  1.00  0.00    -0.268 OA
HETATM   13  C   UNL     1      40.703 -15.655   0.987  1.00  0.00     0.074 A 
HETATM   14  C   UNL     1      42.028 -15.593   1.150  1.00  0.00     0.007 A 
HETATM   15  C   UNL     1      40.237 -13.158   6.053  1.00  0.00     0.241 C 
ENDROOT
BRANCH   1  16
HETATM   16  C   UNL     1      40.622 -15.644   5.736  1.00  0.00     0.273 C 
BRANCH  16  17
HETATM   17  C   UNL     1      41.609 -16.779   5.679  1.00  0.00    -0.028 A 
HETATM   18  C   UNL     1      42.313 -17.161   6.833  1.00  0.00     0.031 A 
HETATM   19  C   UNL     1      43.258 -18.190   6.786  1.00  0.00     0.047 A 
HETATM   20  C   UNL     1      43.520 -18.844   5.582  1.00  0.00     0.116 A 
HETATM   21 BR   UNL     1      44.181 -18.631   8.381  1.00  0.00    -0.048 Br
HETATM   22  C   UNL     1      42.791 -18.503   4.440  1.00  0.00     0.103 A 
HETATM   23  C   UNL     1      41.858 -17.464   4.479  1.00  0.00     0.048 A 
BRANCH  20  24
HETATM   24  O   UNL     1      44.512 -19.780   5.516  1.00  0.00    -0.357 OA
HETATM   25  H   UNL     1      45.096 -19.534   4.775  1.00  0.00     0.218 HD
ENDBRANCH  20  24
BRANCH  22  26
HETATM   26  O   UNL     1      43.004 -19.098   3.225  1.00  0.00    -0.353 OA
HETATM   27  C   UNL     1      43.940 -18.373   2.419  1.00  0.00     0.210 C 
ENDBRANCH  22  26
ENDBRANCH  16  17
ENDBRANCH   1  16
TORSDOF 4
ENDMDL
MODEL 6
REMARK VINA RESULT:      -6.9      3.807      6.249
REMARK  4 active torsions:
REMARK  status: ('A' for Active; 'I' for Inactive)
REMARK    1  A    between atoms: O_2  and  C_3 
REMARK    2  A    between atoms: C_4  and  O_5 
REMARK    3  A    between atoms: C_9  and  C_10 
REMARK    4  A    between atoms: C_10  and  N_11 
ROOT
HETATM    1  N   UNL     1      42.180 -17.335   1.072  1.00  0.00    -0.066 N 
HETATM    2  H   UNL     1      42.228 -17.791   0.152  1.00  0.00     0.280 HD
HETATM    3  C   UNL     1      43.569 -16.750   1.267  1.00  0.00     0.246 C 
HETATM    4  C   UNL     1      43.956 -16.533   2.743  1.00  0.00     0.062 C 
HETATM    5  C   UNL     1      43.787 -17.835   3.516  1.00  0.00     0.020 C 
HETATM    6  C   UNL     1      42.310 -18.197   3.479  1.00  0.00     0.031 C 
HETATM    7  C   UNL     1      41.507 -17.118   4.211  1.00  0.00     0.138 C 
HETATM    8  N   UNL     1      41.939 -15.735   4.003  1.00  0.00    -0.317 N 
HETATM    9  C   UNL     1      43.150 -15.422   3.381  1.00  0.00     0.020 A 
HETATM   10  C   UNL     1      43.576 -14.147   3.350  1.00  0.00     0.026 A 
HETATM   11  C   UNL     1      41.123 -14.753   4.586  1.00  0.00     0.247 A 
HETATM   12  O   UNL     1      40.039 -14.993   5.108  1.00  0.00    -0.268 OA
HETATM   13  C   UNL     1      41.618 -13.357   4.518  1.00  0.00     0.074 A 
HETATM   14  C   UNL     1      42.790 -13.090   3.932  1.00  0.00     0.007 A 
HETATM   15  C   UNL     1      41.845 -18.448   2.040  1.00  0.00     0.241 C 
ENDROOT
BRANCH   1  16
HETATM   16  C   UNL     1      41.043 -16.346   0.872  1.00  0.00     0.273 C 
BRANCH  16  17
HETATM   17  C   UNL     1      41.225 -15.417  -0.300  1.00  0.00    -0.028 A 
HETATM   18  C   UNL     1      41.708 -14.113  -0.098  1.00  0.00     0.031 A 
HETATM   19  C   UNL     1      41.849 -13.230  -1.173  1.00  0.00     0.047 A 
HETATM   20  C   UNL     1      41.499 -13.634  -2.460  1.00  0.00     0.116 A 
HETATM   21 BR   UNL     1      42.486 -11.482  -0.816  1.00  0.00    -0.048 Br
HETATM   22  C   UNL     1      41.062 -14.944  -2.677  1.00  0.00     0.103 A 
HETATM   23  C   UNL     1      40.904 -15.825  -1.604  1.00  0.00     0.048 A 
BRANCH  20  24
HETATM   24  O   UNL     1      41.543 -12.741  -3.492  1.00  0.00    -0.357 OA
HETATM   25  H   UNL     1      41.827 -13.228  -4.288  1.00  0.00     0.218 HD
ENDBRANCH  20  24
BRANCH  22  26
HETATM   26  O   UNL     1      40.694 -15.403  -3.913  1.00  0.00    -0.353 OA
HETATM   27  C   UNL     1      39.291 -15.681  -3.997  1.00  0.00     0.210 C 
ENDBRANCH  22  26
ENDBRANCH  16  17
ENDBRANCH   1  16
TORSDOF 4
ENDMDL
MODEL 7
REMARK VINA RESULT:      -6.8      3.485      7.166
REMARK  4 active torsions:
REMARK  status: ('A' for Active; 'I' for Inactive)
REMARK    1  A    between atoms: O_2  and  C_3 
REMARK    2  A    between atoms: C_4  and  O_5 
REMARK    3  A    between atoms: C_9  and  C_10 
REMARK    4  A    between atoms: C_10  and  N_11 
ROOT
HETATM    1  N   UNL     1      42.244 -15.576   6.231  1.00  0.00    -0.066 N 
HETATM    2  H   UNL     1      42.060 -15.105   7.125  1.00  0.00     0.280 HD
HETATM    3  C   UNL     1      41.001 -16.420   5.994  1.00  0.00     0.246 C 
HETATM    4  C   UNL     1      41.234 -17.634   5.074  1.00  0.00     0.062 C 
HETATM    5  C   UNL     1      42.383 -18.475   5.614  1.00  0.00     0.020 C 
HETATM    6  C   UNL     1      43.638 -17.617   5.564  1.00  0.00     0.031 C 
HETATM    7  C   UNL     1      43.960 -17.277   4.106  1.00  0.00     0.138 C 
HETATM    8  N   UNL     1      42.817 -16.975   3.243  1.00  0.00    -0.317 N 
HETATM    9  C   UNL     1      41.500 -17.216   3.644  1.00  0.00     0.020 A 
HETATM   10  C   UNL     1      40.495 -17.067   2.763  1.00  0.00     0.026 A 
HETATM   11  C   UNL     1      43.136 -16.552   1.944  1.00  0.00     0.247 A 
HETATM   12  O   UNL     1      44.277 -16.299   1.573  1.00  0.00    -0.268 OA
HETATM   13  C   UNL     1      42.000 -16.384   1.005  1.00  0.00     0.074 A 
HETATM   14  C   UNL     1      40.753 -16.640   1.413  1.00  0.00     0.007 A 
HETATM   15  C   UNL     1      43.496 -16.389   6.471  1.00  0.00     0.241 C 
ENDROOT
BRANCH   1  16
HETATM   16  C   UNL     1      42.458 -14.398   5.295  1.00  0.00     0.273 C 
BRANCH  16  17
HETATM   17  C   UNL     1      41.229 -13.560   5.057  1.00  0.00    -0.028 A 
HETATM   18  C   UNL     1      40.640 -13.518   3.783  1.00  0.00     0.031 A 
HETATM   19  C   UNL     1      39.519 -12.717   3.540  1.00  0.00     0.047 A 
HETATM   20  C   UNL     1      38.981 -11.940   4.565  1.00  0.00     0.116 A 
HETATM   21 BR   UNL     1      38.796 -12.700   1.789  1.00  0.00    -0.048 Br
HETATM   22  C   UNL     1      39.532 -12.011   5.846  1.00  0.00     0.103 A 
HETATM   23  C   UNL     1      40.662 -12.797   6.089  1.00  0.00     0.048 A 
BRANCH  20  24
HETATM   24  O   UNL     1      37.949 -11.085   4.302  1.00  0.00    -0.357 OA
HETATM   25  H   UNL     1      37.399 -11.495   3.609  1.00  0.00     0.218 HD
ENDBRANCH  20  24
BRANCH  22  26
HETATM   26  O   UNL     1      39.059 -11.268   6.895  1.00  0.00    -0.353 OA
HETATM   27  C   UNL     1      40.032 -10.340   7.389  1.00  0.00     0.210 C 
ENDBRANCH  22  26
ENDBRANCH  16  17
ENDBRANCH   1  16
TORSDOF 4
ENDMDL
MODEL 8
REMARK VINA RESULT:      -6.8      3.190      6.275
REMARK  4 active torsions:
REMARK  status: ('A' for Active; 'I' for Inactive)
REMARK    1  A    between atoms: O_2  and  C_3 
REMARK    2  A    between atoms: C_4  and  O_5 
REMARK    3  A    between atoms: C_9  and  C_10 
REMARK    4  A    between atoms: C_10  and  N_11 
ROOT
HETATM    1  N   UNL     1      41.167 -16.929   1.398  1.00  0.00    -0.066 N 
HETATM    2  H   UNL     1      40.510 -17.043   0.616  1.00  0.00     0.280 HD
HETATM    3  C   UNL     1      42.150 -15.879   0.905  1.00  0.00     0.246 C 
HETATM    4  C   UNL     1      43.526 -15.937   1.596  1.00  0.00     0.062 C 
HETATM    5  C   UNL     1      44.104 -17.341   1.476  1.00  0.00     0.020 C 
HETATM    6  C   UNL     1      43.176 -18.281   2.229  1.00  0.00     0.031 C 
HETATM    7  C   UNL     1      43.175 -17.909   3.714  1.00  0.00     0.138 C 
HETATM    8  N   UNL     1      43.196 -16.478   4.023  1.00  0.00    -0.317 N 
HETATM    9  C   UNL     1      43.449 -15.511   3.047  1.00  0.00     0.020 A 
HETATM   10  C   UNL     1      43.610 -14.225   3.404  1.00  0.00     0.026 A 
HETATM   11  C   UNL     1      43.077 -16.152   5.383  1.00  0.00     0.247 A 
HETATM   12  O   UNL     1      42.821 -16.972   6.259  1.00  0.00    -0.268 OA
HETATM   13  C   UNL     1      43.245 -14.722   5.737  1.00  0.00     0.074 A 
HETATM   14  C   UNL     1      43.505 -13.822   4.783  1.00  0.00     0.007 A 
HETATM   15  C   UNL     1      41.781 -18.297   1.592  1.00  0.00     0.241 C 
ENDROOT
BRANCH   1  16
HETATM   16  C   UNL     1      40.238 -16.518   2.530  1.00  0.00     0.273 C 
BRANCH  16  17
HETATM   17  C   UNL     1      39.693 -15.119   2.409  1.00  0.00    -0.028 A 
HETATM   18  C   UNL     1      40.042 -14.142   3.356  1.00  0.00     0.031 A 
HETATM   19  C   UNL     1      39.514 -12.849   3.276  1.00  0.00     0.047 A 
HETATM   20  C   UNL     1      38.624 -12.520   2.255  1.00  0.00     0.116 A 
HETATM   21 BR   UNL     1      40.018 -11.595   4.604  1.00  0.00    -0.048 Br
HETATM   22  C   UNL     1      38.308 -13.472   1.283  1.00  0.00     0.103 A 
HETATM   23  C   UNL     1      38.819 -14.769   1.369  1.00  0.00     0.048 A 
BRANCH  20  24
HETATM   24  O   UNL     1      38.034 -11.288   2.235  1.00  0.00    -0.357 OA
HETATM   25  H   UNL     1      37.407 -11.253   2.981  1.00  0.00     0.218 HD
ENDBRANCH  20  24
BRANCH  22  26
HETATM   26  O   UNL     1      37.434 -13.218   0.260  1.00  0.00    -0.353 OA
HETATM   27  C   UNL     1      37.998 -13.508  -1.025  1.00  0.00     0.210 C 
ENDBRANCH  22  26
ENDBRANCH  16  17
ENDBRANCH   1  16
TORSDOF 4
ENDMDL
MODEL 9
REMARK VINA RESULT:      -6.7      2.645      4.590
REMARK  4 active torsions:
REMARK  status: ('A' for Active; 'I' for Inactive)
REMARK    1  A    between atoms: O_2  and  C_3 
REMARK    2  A    between atoms: C_4  and  O_5 
REMARK    3  A    between atoms: C_9  and  C_10 
REMARK    4  A    between atoms: C_10  and  N_11 
ROOT
HETATM    1  N   UNL     1      41.722 -14.362   3.665  1.00  0.00    -0.066 N 
HETATM    2  H   UNL     1      42.046 -14.513   4.628  1.00  0.00     0.280 HD
HETATM    3  C   UNL     1      41.696 -12.848   3.518  1.00  0.00     0.246 C 
HETATM    4  C   UNL     1      40.729 -12.341   2.431  1.00  0.00     0.062 C 
HETATM    5  C   UNL     1      39.334 -12.899   2.683  1.00  0.00     0.020 C 
HETATM    6  C   UNL     1      39.418 -14.411   2.549  1.00  0.00     0.031 C 
HETATM    7  C   UNL     1      39.807 -14.771   1.112  1.00  0.00     0.138 C 
HETATM    8  N   UNL     1      40.806 -13.910   0.476  1.00  0.00    -0.317 N 
HETATM    9  C   UNL     1      41.206 -12.696   1.039  1.00  0.00     0.020 A 
HETATM   10  C   UNL     1      42.009 -11.870   0.346  1.00  0.00     0.026 A 
HETATM   11  C   UNL     1      41.236 -14.322  -0.795  1.00  0.00     0.247 A 
HETATM   12  O   UNL     1      40.931 -15.397  -1.301  1.00  0.00    -0.268 OA
HETATM   13  C   UNL     1      42.134 -13.391  -1.522  1.00  0.00     0.074 A 
HETATM   14  C   UNL     1      42.484 -12.228  -0.965  1.00  0.00     0.007 A 
HETATM   15  C   UNL     1      40.353 -15.003   3.611  1.00  0.00     0.241 C 
ENDROOT
BRANCH   1  16
HETATM   16  C   UNL     1      42.772 -15.109   2.859  1.00  0.00     0.273 C 
BRANCH  16  17
HETATM   17  C   UNL     1      43.214 -16.412   3.472  1.00  0.00    -0.028 A 
HETATM   18  C   UNL     1      43.322 -17.565   2.676  1.00  0.00     0.031 A 
HETATM   19  C   UNL     1      43.697 -18.789   3.239  1.00  0.00     0.047 A 
HETATM   20  C   UNL     1      43.960 -18.878   4.605  1.00  0.00     0.116 A 
HETATM   21 BR   UNL     1      43.798 -20.302   2.103  1.00  0.00    -0.048 Br
HETATM   22  C   UNL     1      43.901 -17.728   5.395  1.00  0.00     0.103 A 
HETATM   23  C   UNL     1      43.510 -16.506   4.840  1.00  0.00     0.048 A 
BRANCH  20  24
HETATM   24  O   UNL     1      44.230 -20.092   5.170  1.00  0.00    -0.357 OA
HETATM   25  H   UNL     1      44.729 -20.614   4.515  1.00  0.00     0.218 HD
ENDBRANCH  20  24
BRANCH  22  26
HETATM   26  O   UNL     1      44.138 -17.746   6.744  1.00  0.00    -0.353 OA
HETATM   27  C   UNL     1      42.958 -17.473   7.509  1.00  0.00     0.210 C 
ENDBRANCH  22  26
ENDBRANCH  16  17
ENDBRANCH   1  16
TORSDOF 4
ENDMDL
MODEL 10
REMARK VINA RESULT:      -6.7      3.728      6.916
REMARK  4 active torsions:
REMARK  status: ('A' for Active; 'I' for Inactive)
REMARK    1  A    between atoms: O_2  and  C_3 
REMARK    2  A    between atoms: C_4  and  O_5 
REMARK    3  A    between atoms: C_9  and  C_10 
REMARK    4  A    between atoms: C_10  and  N_11 
ROOT
HETATM    1  N   UNL     1      40.551 -14.420   3.832  1.00  0.00    -0.066 N 
HETATM    2  H   UNL     1      39.663 -13.912   3.926  1.00  0.00     0.280 HD
HETATM    3  C   UNL     1      40.806 -14.978   5.223  1.00  0.00     0.246 C 
HETATM    4  C   UNL     1      42.291 -15.265   5.520  1.00  0.00     0.062 C 
HETATM    5  C   UNL     1      43.119 -14.013   5.263  1.00  0.00     0.020 C 
HETATM    6  C   UNL     1      43.004 -13.688   3.782  1.00  0.00     0.031 C 
HETATM    7  C   UNL     1      43.623 -14.827   2.965  1.00  0.00     0.138 C 
HETATM    8  N   UNL     1      43.371 -16.184   3.452  1.00  0.00    -0.317 N 
HETATM    9  C   UNL     1      42.814 -16.431   4.709  1.00  0.00     0.020 A 
HETATM   10  C   UNL     1      42.743 -17.690   5.174  1.00  0.00     0.026 A 
HETATM   11  C   UNL     1      43.845 -17.218   2.629  1.00  0.00     0.247 A 
HETATM   12  O   UNL     1      44.307 -17.037   1.507  1.00  0.00    -0.268 OA
HETATM   13  C   UNL     1      43.736 -18.595   3.170  1.00  0.00     0.074 A 
HETATM   14  C   UNL     1      43.215 -18.798   4.384  1.00  0.00     0.007 A 
HETATM   15  C   UNL     1      41.553 -13.371   3.403  1.00  0.00     0.241 C 
ENDROOT
BRANCH   1  16
HETATM   16  C   UNL     1      40.225 -15.426   2.741  1.00  0.00     0.273 C 
BRANCH  16  17
HETATM   17  C   UNL     1      39.715 -14.814   1.463  1.00  0.00    -0.028 A 
HETATM   18  C   UNL     1      40.440 -14.967   0.269  1.00  0.00     0.031 A 
HETATM   19  C   UNL     1      39.996 -14.374  -0.917  1.00  0.00     0.047 A 
HETATM   20  C   UNL     1      38.828 -13.613  -0.923  1.00  0.00     0.116 A 
HETATM   21 BR   UNL     1      41.042 -14.609  -2.480  1.00  0.00    -0.048 Br
HETATM   22  C   UNL     1      38.076 -13.495   0.248  1.00  0.00     0.103 A 
HETATM   23  C   UNL     1      38.525 -14.071   1.439  1.00  0.00     0.048 A 
BRANCH  20  24
HETATM   24  O   UNL     1      38.449 -12.954  -2.058  1.00  0.00    -0.357 OA
HETATM   25  H   UNL     1      38.962 -13.329  -2.798  1.00  0.00     0.218 HD
ENDBRANCH  20  24
BRANCH  22  26
HETATM   26  O   UNL     1      36.925 -12.755   0.314  1.00  0.00    -0.353 OA
HETATM   27  C   UNL     1      37.088 -11.561   1.089  1.00  0.00     0.210 C 
ENDBRANCH  22  26
ENDBRANCH  16  17
ENDBRANCH   1  16
TORSDOF 4
ENDMDL
