MODEL 1
REMARK VINA RESULT:      -8.0      0.000      0.000
REMARK  9 active torsions:
REMARK  status: ('A' for Active; 'I' for Inactive)
REMARK    1  A    between atoms: C_2  and  O_3 
REMARK    2  A    between atoms: O_3  and  C_4 
REMARK    3  A    between atoms: C_4  and  C_5 
REMARK    4  A    between atoms: C_10  and  N_11 
REMARK       I    between atoms: N_11  and  C_12 
REMARK    5  A    between atoms: C_12  and  C_13 
REMARK    6  A    between atoms: C_13  and  N_14 
REMARK    7  A    between atoms: C_16  and  C_17 
REMARK    8  A    between atoms: C_17  and  C_18 
REMARK    9  A    between atoms: C_18  and  O_19 
ROOT
HETATM    1  C   UNL     1      43.425 -16.400   4.213  1.00  0.00     0.137 A 
HETATM    2  N   UNL     1      43.873 -17.412   5.024  1.00  0.00    -0.349 N 
HETATM    3  H   UNL     1      44.066 -17.310   6.012  1.00  0.00     0.166 HD
HETATM    4  C   UNL     1      44.024 -18.574   4.312  1.00  0.00     0.045 A 
HETATM    5  C   UNL     1      43.663 -18.306   2.984  1.00  0.00     0.021 A 
HETATM    6  C   UNL     1      43.291 -16.919   2.928  1.00  0.00     0.080 A 
HETATM    7  C   UNL     1      44.457 -19.829   4.762  1.00  0.00     0.032 A 
HETATM    8  C   UNL     1      44.526 -20.867   3.834  1.00  0.00     0.026 A 
HETATM    9  C   UNL     1      44.171 -20.647   2.511  1.00  0.00     0.035 A 
HETATM   10 CL   UNL     1      44.256 -21.945   1.382  1.00  0.00    -0.084 Cl
HETATM   11  C   UNL     1      43.742 -19.386   2.076  1.00  0.00     0.040 A 
ENDROOT
BRANCH   6  12
HETATM   12  N   UNL     1      42.861 -16.076   1.900  1.00  0.00    -0.323 N 
HETATM   13  C   UNL     1      41.777 -16.222   1.066  1.00  0.00     0.248 C 
HETATM   14  O   UNL     1      40.940 -17.116   1.084  1.00  0.00    -0.271 OA
HETATM   15  H   UNL     1      43.509 -15.305   1.731  1.00  0.00     0.169 HD
BRANCH  13  16
HETATM   16  C   UNL     1      41.629 -15.080   0.049  1.00  0.00     0.338 C 
BRANCH  16  17
HETATM   17  N   UNL     1      40.419 -15.198  -0.918  1.00  0.00    -0.059 N 
HETATM   18  H   UNL     1      39.843 -15.988  -0.600  1.00  0.00     0.280 HD
HETATM   19  C   UNL     1      39.573 -13.919  -0.935  1.00  0.00     0.190 C 
HETATM   20  C   UNL     1      38.412 -14.080  -1.925  1.00  0.00     0.033 C 
HETATM   21  C   UNL     1      38.904 -14.420  -3.323  1.00  0.00     0.004 C 
HETATM   22  C   UNL     1      39.729 -15.691  -3.286  1.00  0.00     0.028 C 
HETATM   23  C   UNL     1      40.900 -15.579  -2.321  1.00  0.00     0.236 C 
BRANCH  19  24
HETATM   24  C   UNL     1      39.058 -13.518   0.459  1.00  0.00     0.059 C 
BRANCH  24  25
HETATM   25  C   UNL     1      37.944 -14.383   1.037  1.00  0.00     0.166 C 
BRANCH  25  26
HETATM   26  O   UNL     1      38.514 -15.471   1.744  1.00  0.00    -0.401 OA
HETATM   27  H   UNL     1      37.846 -16.165   1.879  1.00  0.00     0.209 HD
ENDBRANCH  25  26
ENDBRANCH  24  25
ENDBRANCH  19  24
ENDBRANCH  16  17
ENDBRANCH  13  16
ENDBRANCH   6  12
BRANCH   1  28
HETATM   28  C   UNL     1      43.168 -15.053   4.664  1.00  0.00     0.312 C 
HETATM   29  O   UNL     1      43.625 -14.057   4.112  1.00  0.00    -0.258 OA
BRANCH  28  30
HETATM   30  O   UNL     1      42.373 -15.071   5.765  1.00  0.00    -0.317 OA
BRANCH  30  31
HETATM   31  C   UNL     1      40.984 -15.356   5.537  1.00  0.00     0.175 C 
HETATM   32  C   UNL     1      40.573 -16.592   6.316  1.00  0.00     0.034 C 
ENDBRANCH  30  31
ENDBRANCH  28  30
ENDBRANCH   1  28
TORSDOF 9
ENDMDL
MODEL 2
REMARK VINA RESULT:      -7.5      1.776      2.640
REMARK  9 active torsions:
REMARK  status: ('A' for Active; 'I' for Inactive)
REMARK    1  A    between atoms: C_2  and  O_3 
REMARK    2  A    between atoms: O_3  and  C_4 
REMARK    3  A    between atoms: C_4  and  C_5 
REMARK    4  A    between atoms: C_10  and  N_11 
REMARK       I    between atoms: N_11  and  C_12 
REMARK    5  A    between atoms: C_12  and  C_13 
REMARK    6  A    between atoms: C_13  and  N_14 
REMARK    7  A    between atoms: C_16  and  C_17 
REMARK    8  A    between atoms: C_17  and  C_18 
REMARK    9  A    between atoms: C_18  and  O_19 
ROOT
HETATM    1  C   UNL     1      43.129 -16.327   4.387  1.00  0.00     0.137 A 
HETATM    2  N   UNL     1      43.868 -17.214   5.127  1.00  0.00    -0.349 N 
HETATM    3  H   UNL     1      44.236 -17.021   6.050  1.00  0.00     0.166 HD
HETATM    4  C   UNL     1      44.040 -18.391   4.445  1.00  0.00     0.045 A 
HETATM    5  C   UNL     1      43.389 -18.263   3.210  1.00  0.00     0.021 A 
HETATM    6  C   UNL     1      42.819 -16.943   3.177  1.00  0.00     0.080 A 
HETATM    7  C   UNL     1      44.728 -19.545   4.845  1.00  0.00     0.032 A 
HETATM    8  C   UNL     1      44.759 -20.625   3.964  1.00  0.00     0.026 A 
HETATM    9  C   UNL     1      44.122 -20.543   2.734  1.00  0.00     0.035 A 
HETATM   10 CL   UNL     1      44.167 -21.891   1.664  1.00  0.00    -0.084 Cl
HETATM   11  C   UNL     1      43.440 -19.382   2.347  1.00  0.00     0.040 A 
ENDROOT
BRANCH   6  12
HETATM   12  N   UNL     1      42.079 -16.236   2.227  1.00  0.00    -0.323 N 
HETATM   13  C   UNL     1      42.178 -16.276   0.856  1.00  0.00     0.248 C 
HETATM   14  O   UNL     1      42.922 -16.979   0.184  1.00  0.00    -0.271 OA
HETATM   15  H   UNL     1      41.447 -15.555   2.654  1.00  0.00     0.169 HD
BRANCH  13  16
HETATM   16  C   UNL     1      41.186 -15.344   0.143  1.00  0.00     0.338 C 
BRANCH  16  17
HETATM   17  N   UNL     1      41.798 -14.426  -0.951  1.00  0.00    -0.059 N 
HETATM   18  H   UNL     1      42.740 -14.779  -1.160  1.00  0.00     0.280 HD
HETATM   19  C   UNL     1      40.954 -14.420  -2.231  1.00  0.00     0.190 C 
HETATM   20  C   UNL     1      41.587 -13.477  -3.263  1.00  0.00     0.033 C 
HETATM   21  C   UNL     1      41.749 -12.068  -2.718  1.00  0.00     0.004 C 
HETATM   22  C   UNL     1      42.593 -12.094  -1.458  1.00  0.00     0.028 C 
HETATM   23  C   UNL     1      42.002 -13.011  -0.398  1.00  0.00     0.236 C 
BRANCH  19  24
HETATM   24  C   UNL     1      40.746 -15.826  -2.822  1.00  0.00     0.059 C 
BRANCH  24  25
HETATM   25  C   UNL     1      39.542 -15.996  -3.740  1.00  0.00     0.166 C 
BRANCH  25  26
HETATM   26  O   UNL     1      38.991 -17.288  -3.557  1.00  0.00    -0.401 OA
HETATM   27  H   UNL     1      38.088 -17.319  -3.915  1.00  0.00     0.209 HD
ENDBRANCH  25  26
ENDBRANCH  24  25
ENDBRANCH  19  24
ENDBRANCH  16  17
ENDBRANCH  13  16
ENDBRANCH   6  12
BRANCH   1  28
HETATM   28  C   UNL     1      42.777 -14.998   4.827  1.00  0.00     0.312 C 
HETATM   29  O   UNL     1      42.384 -14.116   4.070  1.00  0.00    -0.258 OA
BRANCH  28  30
HETATM   30  O   UNL     1      42.952 -14.889   6.170  1.00  0.00    -0.317 OA
BRANCH  30  31
HETATM   31  C   UNL     1      43.655 -13.721   6.624  1.00  0.00     0.175 C 
HETATM   32  C   UNL     1      45.137 -14.022   6.747  1.00  0.00     0.034 C 
ENDBRANCH  30  31
ENDBRANCH  28  30
ENDBRANCH   1  28
TORSDOF 9
ENDMDL
MODEL 3
REMARK VINA RESULT:      -7.5      1.222      2.250
REMARK  9 active torsions:
REMARK  status: ('A' for Active; 'I' for Inactive)
REMARK    1  A    between atoms: C_2  and  O_3 
REMARK    2  A    between atoms: O_3  and  C_4 
REMARK    3  A    between atoms: C_4  and  C_5 
REMARK    4  A    between atoms: C_10  and  N_11 
REMARK       I    between atoms: N_11  and  C_12 
REMARK    5  A    between atoms: C_12  and  C_13 
REMARK    6  A    between atoms: C_13  and  N_14 
REMARK    7  A    between atoms: C_16  and  C_17 
REMARK    8  A    between atoms: C_17  and  C_18 
REMARK    9  A    between atoms: C_18  and  O_19 
ROOT
HETATM    1  C   UNL     1      43.436 -16.421   4.279  1.00  0.00     0.137 A 
HETATM    2  N   UNL     1      43.895 -17.392   5.131  1.00  0.00    -0.349 N 
HETATM    3  H   UNL     1      44.063 -17.252   6.119  1.00  0.00     0.166 HD
HETATM    4  C   UNL     1      44.096 -18.571   4.460  1.00  0.00     0.045 A 
HETATM    5  C   UNL     1      43.757 -18.356   3.117  1.00  0.00     0.021 A 
HETATM    6  C   UNL     1      43.346 -16.983   3.008  1.00  0.00     0.080 A 
HETATM    7  C   UNL     1      44.555 -19.797   4.960  1.00  0.00     0.032 A 
HETATM    8  C   UNL     1      44.675 -20.862   4.068  1.00  0.00     0.026 A 
HETATM    9  C   UNL     1      44.343 -20.695   2.731  1.00  0.00     0.035 A 
HETATM   10 CL   UNL     1      44.491 -22.025   1.648  1.00  0.00    -0.084 Cl
HETATM   11  C   UNL     1      43.887 -19.462   2.246  1.00  0.00     0.040 A 
ENDROOT
BRANCH   6  12
HETATM   12  N   UNL     1      42.914 -16.187   1.945  1.00  0.00    -0.323 N 
HETATM   13  C   UNL     1      41.956 -16.464   0.997  1.00  0.00     0.248 C 
HETATM   14  O   UNL     1      41.255 -17.466   0.919  1.00  0.00    -0.271 OA
HETATM   15  H   UNL     1      43.462 -15.330   1.851  1.00  0.00     0.169 HD
BRANCH  13  16
HETATM   16  C   UNL     1      41.759 -15.333  -0.023  1.00  0.00     0.338 C 
BRANCH  16  17
HETATM   17  N   UNL     1      40.525 -14.420   0.218  1.00  0.00    -0.059 N 
HETATM   18  H   UNL     1      40.872 -13.511   0.549  1.00  0.00     0.280 HD
HETATM   19  C   UNL     1      39.700 -14.223  -1.059  1.00  0.00     0.190 C 
HETATM   20  C   UNL     1      38.482 -13.341  -0.756  1.00  0.00     0.033 C 
HETATM   21  C   UNL     1      37.624 -13.923   0.355  1.00  0.00     0.004 C 
HETATM   22  C   UNL     1      38.456 -14.101   1.611  1.00  0.00     0.028 C 
HETATM   23  C   UNL     1      39.674 -14.977   1.364  1.00  0.00     0.236 C 
BRANCH  19  24
HETATM   24  C   UNL     1      40.523 -13.647  -2.225  1.00  0.00     0.059 C 
BRANCH  24  25
HETATM   25  C   UNL     1      40.653 -14.534  -3.457  1.00  0.00     0.166 C 
BRANCH  25  26
HETATM   26  O   UNL     1      41.998 -14.958  -3.590  1.00  0.00    -0.401 OA
HETATM   27  H   UNL     1      42.448 -14.913  -2.729  1.00  0.00     0.209 HD
ENDBRANCH  25  26
ENDBRANCH  24  25
ENDBRANCH  19  24
ENDBRANCH  16  17
ENDBRANCH  13  16
ENDBRANCH   6  12
BRANCH   1  28
HETATM   28  C   UNL     1      43.130 -15.068   4.680  1.00  0.00     0.312 C 
HETATM   29  O   UNL     1      43.591 -14.077   4.123  1.00  0.00    -0.258 OA
BRANCH  28  30
HETATM   30  O   UNL     1      42.284 -15.075   5.742  1.00  0.00    -0.317 OA
BRANCH  30  31
HETATM   31  C   UNL     1      40.929 -15.466   5.470  1.00  0.00     0.175 C 
HETATM   32  C   UNL     1      40.541 -16.640   6.349  1.00  0.00     0.034 C 
ENDBRANCH  30  31
ENDBRANCH  28  30
ENDBRANCH   1  28
TORSDOF 9
ENDMDL
MODEL 4
REMARK VINA RESULT:      -7.0      2.493      6.078
REMARK  9 active torsions:
REMARK  status: ('A' for Active; 'I' for Inactive)
REMARK    1  A    between atoms: C_2  and  O_3 
REMARK    2  A    between atoms: O_3  and  C_4 
REMARK    3  A    between atoms: C_4  and  C_5 
REMARK    4  A    between atoms: C_10  and  N_11 
REMARK       I    between atoms: N_11  and  C_12 
REMARK    5  A    between atoms: C_12  and  C_13 
REMARK    6  A    between atoms: C_13  and  N_14 
REMARK    7  A    between atoms: C_16  and  C_17 
REMARK    8  A    between atoms: C_17  and  C_18 
REMARK    9  A    between atoms: C_18  and  O_19 
ROOT
HETATM    1  C   UNL     1      43.352 -17.791   2.543  1.00  0.00     0.137 A 
HETATM    2  N   UNL     1      43.336 -18.846   1.668  1.00  0.00    -0.349 N 
HETATM    3  H   UNL     1      43.031 -18.786   0.704  1.00  0.00     0.166 HD
HETATM    4  C   UNL     1      43.787 -19.989   2.277  1.00  0.00     0.045 A 
HETATM    5  C   UNL     1      44.105 -19.664   3.602  1.00  0.00     0.021 A 
HETATM    6  C   UNL     1      43.817 -18.265   3.767  1.00  0.00     0.080 A 
HETATM    7  C   UNL     1      43.926 -21.274   1.736  1.00  0.00     0.032 A 
HETATM    8  C   UNL     1      44.414 -22.282   2.567  1.00  0.00     0.026 A 
HETATM    9  C   UNL     1      44.748 -22.002   3.884  1.00  0.00     0.035 A 
HETATM   10 CL   UNL     1      45.356 -23.260   4.892  1.00  0.00    -0.084 Cl
HETATM   11  C   UNL     1      44.602 -20.712   4.411  1.00  0.00     0.040 A 
ENDROOT
BRANCH   6  12
HETATM   12  N   UNL     1      43.912 -17.380   4.843  1.00  0.00    -0.323 N 
HETATM   13  C   UNL     1      43.524 -17.570   6.149  1.00  0.00     0.248 C 
HETATM   14  O   UNL     1      43.043 -18.582   6.642  1.00  0.00    -0.271 OA
HETATM   15  H   UNL     1      44.248 -16.457   4.561  1.00  0.00     0.169 HD
BRANCH  13  16
HETATM   16  C   UNL     1      43.789 -16.354   7.049  1.00  0.00     0.338 C 
BRANCH  16  17
HETATM   17  N   UNL     1      42.803 -15.166   6.878  1.00  0.00    -0.059 N 
HETATM   18  H   UNL     1      42.483 -14.889   7.815  1.00  0.00     0.280 HD
HETATM   19  C   UNL     1      43.464 -13.968   6.185  1.00  0.00     0.190 C 
HETATM   20  C   UNL     1      42.439 -12.838   6.016  1.00  0.00     0.033 C 
HETATM   21  C   UNL     1      41.213 -13.298   5.243  1.00  0.00     0.004 C 
HETATM   22  C   UNL     1      40.569 -14.476   5.949  1.00  0.00     0.028 C 
HETATM   23  C   UNL     1      41.545 -15.628   6.135  1.00  0.00     0.236 C 
BRANCH  19  24
HETATM   24  C   UNL     1      44.721 -13.467   6.918  1.00  0.00     0.059 C 
BRANCH  24  25
HETATM   25  C   UNL     1      44.481 -12.644   8.178  1.00  0.00     0.166 C 
BRANCH  25  26
HETATM   26  O   UNL     1      44.237 -13.516   9.268  1.00  0.00    -0.401 OA
HETATM   27  H   UNL     1      43.992 -14.398   8.941  1.00  0.00     0.209 HD
ENDBRANCH  25  26
ENDBRANCH  24  25
ENDBRANCH  19  24
ENDBRANCH  16  17
ENDBRANCH  13  16
ENDBRANCH   6  12
BRANCH   1  28
HETATM   28  C   UNL     1      42.934 -16.450   2.205  1.00  0.00     0.312 C 
HETATM   29  O   UNL     1      42.773 -15.562   3.037  1.00  0.00    -0.258 OA
BRANCH  28  30
HETATM   30  O   UNL     1      42.749 -16.342   0.864  1.00  0.00    -0.317 OA
BRANCH  30  31
HETATM   31  C   UNL     1      41.413 -16.042   0.431  1.00  0.00     0.175 C 
HETATM   32  C   UNL     1      41.364 -14.651  -0.174  1.00  0.00     0.034 C 
ENDBRANCH  30  31
ENDBRANCH  28  30
ENDBRANCH   1  28
TORSDOF 9
ENDMDL
MODEL 5
REMARK VINA RESULT:      -7.0      2.852      7.069
REMARK  9 active torsions:
REMARK  status: ('A' for Active; 'I' for Inactive)
REMARK    1  A    between atoms: C_2  and  O_3 
REMARK    2  A    between atoms: O_3  and  C_4 
REMARK    3  A    between atoms: C_4  and  C_5 
REMARK    4  A    between atoms: C_10  and  N_11 
REMARK       I    between atoms: N_11  and  C_12 
REMARK    5  A    between atoms: C_12  and  C_13 
REMARK    6  A    between atoms: C_13  and  N_14 
REMARK    7  A    between atoms: C_16  and  C_17 
REMARK    8  A    between atoms: C_17  and  C_18 
REMARK    9  A    between atoms: C_18  and  O_19 
ROOT
HETATM    1  C   UNL     1      42.386 -13.391   2.664  1.00  0.00     0.137 A 
HETATM    2  N   UNL     1      42.178 -12.431   1.708  1.00  0.00    -0.349 N 
HETATM    3  H   UNL     1      42.269 -11.435   1.867  1.00  0.00     0.166 HD
HETATM    4  C   UNL     1      41.831 -13.004   0.511  1.00  0.00     0.045 A 
HETATM    5  C   UNL     1      41.809 -14.393   0.699  1.00  0.00     0.021 A 
HETATM    6  C   UNL     1      42.154 -14.631   2.074  1.00  0.00     0.080 A 
HETATM    7  C   UNL     1      41.537 -12.379  -0.708  1.00  0.00     0.032 A 
HETATM    8  C   UNL     1      41.210 -13.190  -1.795  1.00  0.00     0.026 A 
HETATM    9  C   UNL     1      41.183 -14.570  -1.655  1.00  0.00     0.035 A 
HETATM   10 CL   UNL     1      40.783 -15.553  -3.010  1.00  0.00    -0.084 Cl
HETATM   11  C   UNL     1      41.477 -15.180  -0.428  1.00  0.00     0.040 A 
ENDROOT
BRANCH   6  12
HETATM   12  N   UNL     1      42.284 -15.784   2.851  1.00  0.00    -0.323 N 
HETATM   13  C   UNL     1      43.249 -16.762   2.783  1.00  0.00     0.248 C 
HETATM   14  O   UNL     1      44.223 -16.796   2.041  1.00  0.00    -0.271 OA
HETATM   15  H   UNL     1      41.494 -15.918   3.485  1.00  0.00     0.169 HD
BRANCH  13  16
HETATM   16  C   UNL     1      43.053 -17.888   3.810  1.00  0.00     0.338 C 
BRANCH  16  17
HETATM   17  N   UNL     1      44.001 -19.109   3.654  1.00  0.00    -0.059 N 
HETATM   18  H   UNL     1      44.932 -18.749   3.408  1.00  0.00     0.280 HD
HETATM   19  C   UNL     1      44.092 -19.932   4.944  1.00  0.00     0.190 C 
HETATM   20  C   UNL     1      45.015 -21.138   4.725  1.00  0.00     0.033 C 
HETATM   21  C   UNL     1      44.550 -22.003   3.565  1.00  0.00     0.004 C 
HETATM   22  C   UNL     1      44.476 -21.173   2.297  1.00  0.00     0.028 C 
HETATM   23  C   UNL     1      43.564 -19.967   2.462  1.00  0.00     0.236 C 
BRANCH  19  24
HETATM   24  C   UNL     1      44.547 -19.102   6.158  1.00  0.00     0.059 C 
BRANCH  24  25
HETATM   25  C   UNL     1      43.590 -19.066   7.343  1.00  0.00     0.166 C 
BRANCH  25  26
HETATM   26  O   UNL     1      44.290 -18.638   8.498  1.00  0.00    -0.401 OA
HETATM   27  H   UNL     1      44.220 -19.311   9.197  1.00  0.00     0.209 HD
ENDBRANCH  25  26
ENDBRANCH  24  25
ENDBRANCH  19  24
ENDBRANCH  16  17
ENDBRANCH  13  16
ENDBRANCH   6  12
BRANCH   1  28
HETATM   28  C   UNL     1      42.762 -13.108   4.030  1.00  0.00     0.312 C 
HETATM   29  O   UNL     1      42.090 -12.414   4.786  1.00  0.00    -0.258 OA
BRANCH  28  30
HETATM   30  O   UNL     1      43.943 -13.711   4.323  1.00  0.00    -0.317 OA
BRANCH  30  31
HETATM   31  C   UNL     1      44.213 -13.930   5.717  1.00  0.00     0.175 C 
HETATM   32  C   UNL     1      43.600 -15.244   6.164  1.00  0.00     0.034 C 
ENDBRANCH  30  31
ENDBRANCH  28  30
ENDBRANCH   1  28
TORSDOF 9
ENDMDL
MODEL 6
REMARK VINA RESULT:      -6.9      1.524      2.055
REMARK  9 active torsions:
REMARK  status: ('A' for Active; 'I' for Inactive)
REMARK    1  A    between atoms: C_2  and  O_3 
REMARK    2  A    between atoms: O_3  and  C_4 
REMARK    3  A    between atoms: C_4  and  C_5 
REMARK    4  A    between atoms: C_10  and  N_11 
REMARK       I    between atoms: N_11  and  C_12 
REMARK    5  A    between atoms: C_12  and  C_13 
REMARK    6  A    between atoms: C_13  and  N_14 
REMARK    7  A    between atoms: C_16  and  C_17 
REMARK    8  A    between atoms: C_17  and  C_18 
REMARK    9  A    between atoms: C_18  and  O_19 
ROOT
HETATM    1  C   UNL     1      42.982 -17.015   5.297  1.00  0.00     0.137 A 
HETATM    2  N   UNL     1      43.981 -17.875   5.672  1.00  0.00    -0.349 N 
HETATM    3  H   UNL     1      44.525 -17.785   6.521  1.00  0.00     0.166 HD
HETATM    4  C   UNL     1      44.142 -18.869   4.741  1.00  0.00     0.045 A 
HETATM    5  C   UNL     1      43.211 -18.643   3.717  1.00  0.00     0.021 A 
HETATM    6  C   UNL     1      42.483 -17.456   4.074  1.00  0.00     0.080 A 
HETATM    7  C   UNL     1      45.047 -19.939   4.747  1.00  0.00     0.032 A 
HETATM    8  C   UNL     1      45.014 -20.829   3.674  1.00  0.00     0.026 A 
HETATM    9  C   UNL     1      44.104 -20.646   2.642  1.00  0.00     0.035 A 
HETATM   10 CL   UNL     1      44.074 -21.760   1.330  1.00  0.00    -0.084 Cl
HETATM   11  C   UNL     1      43.205 -19.571   2.650  1.00  0.00     0.040 A 
ENDROOT
BRANCH   6  12
HETATM   12  N   UNL     1      41.457 -16.734   3.461  1.00  0.00    -0.323 N 
HETATM   13  C   UNL     1      41.548 -15.607   2.677  1.00  0.00     0.248 C 
HETATM   14  O   UNL     1      42.568 -15.026   2.326  1.00  0.00    -0.271 OA
HETATM   15  H   UNL     1      40.530 -17.077   3.720  1.00  0.00     0.169 HD
BRANCH  13  16
HETATM   16  C   UNL     1      40.188 -15.093   2.183  1.00  0.00     0.338 C 
BRANCH  16  17
HETATM   17  N   UNL     1      40.025 -15.009   0.640  1.00  0.00    -0.059 N 
HETATM   18  H   UNL     1      39.155 -15.498   0.392  1.00  0.00     0.280 HD
HETATM   19  C   UNL     1      39.957 -13.559   0.149  1.00  0.00     0.190 C 
HETATM   20  C   UNL     1      39.826 -13.535  -1.379  1.00  0.00     0.033 C 
HETATM   21  C   UNL     1      40.965 -14.280  -2.056  1.00  0.00     0.004 C 
HETATM   22  C   UNL     1      41.008 -15.714  -1.565  1.00  0.00     0.028 C 
HETATM   23  C   UNL     1      41.146 -15.791  -0.052  1.00  0.00     0.236 C 
BRANCH  19  24
HETATM   24  C   UNL     1      38.827 -12.749   0.812  1.00  0.00     0.059 C 
BRANCH  24  25
HETATM   25  C   UNL     1      37.409 -13.097   0.377  1.00  0.00     0.166 C 
BRANCH  25  26
HETATM   26  O   UNL     1      37.041 -14.347   0.932  1.00  0.00    -0.401 OA
HETATM   27  H   UNL     1      36.080 -14.475   0.856  1.00  0.00     0.209 HD
ENDBRANCH  25  26
ENDBRANCH  24  25
ENDBRANCH  19  24
ENDBRANCH  16  17
ENDBRANCH  13  16
ENDBRANCH   6  12
BRANCH   1  28
HETATM   28  C   UNL     1      42.572 -15.863   6.065  1.00  0.00     0.312 C 
HETATM   29  O   UNL     1      41.450 -15.370   5.999  1.00  0.00    -0.258 OA
BRANCH  28  30
HETATM   30  O   UNL     1      43.600 -15.426   6.838  1.00  0.00    -0.317 OA
BRANCH  30  31
HETATM   31  C   UNL     1      44.232 -14.206   6.422  1.00  0.00     0.175 C 
HETATM   32  C   UNL     1      44.949 -13.567   7.596  1.00  0.00     0.034 C 
ENDBRANCH  30  31
ENDBRANCH  28  30
ENDBRANCH   1  28
TORSDOF 9
ENDMDL
MODEL 7
REMARK VINA RESULT:      -6.8      2.640      7.166
REMARK  9 active torsions:
REMARK  status: ('A' for Active; 'I' for Inactive)
REMARK    1  A    between atoms: C_2  and  O_3 
REMARK    2  A    between atoms: O_3  and  C_4 
REMARK    3  A    between atoms: C_4  and  C_5 
REMARK    4  A    between atoms: C_10  and  N_11 
REMARK       I    between atoms: N_11  and  C_12 
REMARK    5  A    between atoms: C_12  and  C_13 
REMARK    6  A    between atoms: C_13  and  N_14 
REMARK    7  A    between atoms: C_16  and  C_17 
REMARK    8  A    between atoms: C_17  and  C_18 
REMARK    9  A    between atoms: C_18  and  O_19 
ROOT
HETATM    1  C   UNL     1      41.610 -13.839   1.268  1.00  0.00     0.137 A 
HETATM    2  N   UNL     1      40.789 -12.943   0.633  1.00  0.00    -0.349 N 
HETATM    3  H   UNL     1      40.544 -12.032   1.001  1.00  0.00     0.166 HD
HETATM    4  C   UNL     1      40.348 -13.450  -0.562  1.00  0.00     0.045 A 
HETATM    5  C   UNL     1      40.902 -14.729  -0.708  1.00  0.00     0.021 A 
HETATM    6  C   UNL     1      41.697 -14.973   0.464  1.00  0.00     0.080 A 
HETATM    7  C   UNL     1      39.499 -12.857  -1.507  1.00  0.00     0.032 A 
HETATM    8  C   UNL     1      39.196 -13.583  -2.658  1.00  0.00     0.026 A 
HETATM    9  C   UNL     1      39.729 -14.850  -2.846  1.00  0.00     0.035 A 
HETATM   10 CL   UNL     1      39.347 -15.727  -4.279  1.00  0.00    -0.084 Cl
HETATM   11  C   UNL     1      40.575 -15.430  -1.892  1.00  0.00     0.040 A 
ENDROOT
BRANCH   6  12
HETATM   12  N   UNL     1      42.469 -16.052   0.899  1.00  0.00    -0.323 N 
HETATM   13  C   UNL     1      42.068 -17.337   1.185  1.00  0.00     0.248 C 
HETATM   14  O   UNL     1      40.941 -17.805   1.078  1.00  0.00    -0.271 OA
HETATM   15  H   UNL     1      43.437 -15.788   1.090  1.00  0.00     0.169 HD
BRANCH  13  16
HETATM   16  C   UNL     1      43.216 -18.249   1.643  1.00  0.00     0.338 C 
BRANCH  16  17
HETATM   17  N   UNL     1      43.085 -18.818   3.083  1.00  0.00    -0.059 N 
HETATM   18  H   UNL     1      42.359 -19.546   3.064  1.00  0.00     0.280 HD
HETATM   19  C   UNL     1      44.403 -19.419   3.583  1.00  0.00     0.190 C 
HETATM   20  C   UNL     1      44.224 -19.938   5.016  1.00  0.00     0.033 C 
HETATM   21  C   UNL     1      43.738 -18.847   5.956  1.00  0.00     0.004 C 
HETATM   22  C   UNL     1      42.429 -18.273   5.449  1.00  0.00     0.028 C 
HETATM   23  C   UNL     1      42.557 -17.737   4.031  1.00  0.00     0.236 C 
BRANCH  19  24
HETATM   24  C   UNL     1      44.951 -20.524   2.661  1.00  0.00     0.059 C 
BRANCH  24  25
HETATM   25  C   UNL     1      44.199 -21.849   2.681  1.00  0.00     0.166 C 
BRANCH  25  26
HETATM   26  O   UNL     1      44.271 -22.449   1.400  1.00  0.00    -0.401 OA
HETATM   27  H   UNL     1      43.642 -23.188   1.343  1.00  0.00     0.209 HD
ENDBRANCH  25  26
ENDBRANCH  24  25
ENDBRANCH  19  24
ENDBRANCH  16  17
ENDBRANCH  13  16
ENDBRANCH   6  12
BRANCH   1  28
HETATM   28  C   UNL     1      42.235 -13.602   2.548  1.00  0.00     0.312 C 
HETATM   29  O   UNL     1      43.450 -13.604   2.718  1.00  0.00    -0.258 OA
BRANCH  28  30
HETATM   30  O   UNL     1      41.288 -13.392   3.498  1.00  0.00    -0.317 OA
BRANCH  30  31
HETATM   31  C   UNL     1      40.558 -14.550   3.932  1.00  0.00     0.175 C 
HETATM   32  C   UNL     1      40.653 -14.688   5.440  1.00  0.00     0.034 C 
ENDBRANCH  30  31
ENDBRANCH  28  30
ENDBRANCH   1  28
TORSDOF 9
ENDMDL
MODEL 8
REMARK VINA RESULT:      -6.8      2.668      6.812
REMARK  9 active torsions:
REMARK  status: ('A' for Active; 'I' for Inactive)
REMARK    1  A    between atoms: C_2  and  O_3 
REMARK    2  A    between atoms: O_3  and  C_4 
REMARK    3  A    between atoms: C_4  and  C_5 
REMARK    4  A    between atoms: C_10  and  N_11 
REMARK       I    between atoms: N_11  and  C_12 
REMARK    5  A    between atoms: C_12  and  C_13 
REMARK    6  A    between atoms: C_13  and  N_14 
REMARK    7  A    between atoms: C_16  and  C_17 
REMARK    8  A    between atoms: C_17  and  C_18 
REMARK    9  A    between atoms: C_18  and  O_19 
ROOT
HETATM    1  C   UNL     1      42.368 -13.659   2.400  1.00  0.00     0.137 A 
HETATM    2  N   UNL     1      42.118 -12.715   1.438  1.00  0.00    -0.349 N 
HETATM    3  H   UNL     1      42.214 -11.717   1.577  1.00  0.00     0.166 HD
HETATM    4  C   UNL     1      41.719 -13.308   0.267  1.00  0.00     0.045 A 
HETATM    5  C   UNL     1      41.707 -14.694   0.479  1.00  0.00     0.021 A 
HETATM    6  C   UNL     1      42.113 -14.909   1.841  1.00  0.00     0.080 A 
HETATM    7  C   UNL     1      41.371 -12.704  -0.948  1.00  0.00     0.032 A 
HETATM    8  C   UNL     1      40.997 -13.532  -2.006  1.00  0.00     0.026 A 
HETATM    9  C   UNL     1      40.978 -14.910  -1.842  1.00  0.00     0.035 A 
HETATM   10 CL   UNL     1      40.519 -15.916  -3.162  1.00  0.00    -0.084 Cl
HETATM   11  C   UNL     1      41.327 -15.499  -0.619  1.00  0.00     0.040 A 
ENDROOT
BRANCH   6  12
HETATM   12  N   UNL     1      42.278 -16.049   2.630  1.00  0.00    -0.323 N 
HETATM   13  C   UNL     1      43.166 -17.086   2.467  1.00  0.00     0.248 C 
HETATM   14  O   UNL     1      44.028 -17.199   1.603  1.00  0.00    -0.271 OA
HETATM   15  H   UNL     1      41.574 -16.118   3.368  1.00  0.00     0.169 HD
BRANCH  13  16
HETATM   16  C   UNL     1      43.044 -18.173   3.546  1.00  0.00     0.338 C 
BRANCH  16  17
HETATM   17  N   UNL     1      43.483 -17.750   4.975  1.00  0.00    -0.059 N 
HETATM   18  H   UNL     1      43.704 -16.746   4.947  1.00  0.00     0.280 HD
HETATM   19  C   UNL     1      42.382 -18.006   6.010  1.00  0.00     0.190 C 
HETATM   20  C   UNL     1      42.878 -17.598   7.404  1.00  0.00     0.033 C 
HETATM   21  C   UNL     1      44.156 -18.327   7.785  1.00  0.00     0.004 C 
HETATM   22  C   UNL     1      45.234 -18.053   6.754  1.00  0.00     0.028 C 
HETATM   23  C   UNL     1      44.792 -18.449   5.353  1.00  0.00     0.236 C 
BRANCH  19  24
HETATM   24  C   UNL     1      41.056 -17.300   5.669  1.00  0.00     0.059 C 
BRANCH  24  25
HETATM   25  C   UNL     1      40.952 -15.835   6.073  1.00  0.00     0.166 C 
BRANCH  25  26
HETATM   26  O   UNL     1      39.659 -15.351   5.755  1.00  0.00    -0.401 OA
HETATM   27  H   UNL     1      39.264 -15.895   5.052  1.00  0.00     0.209 HD
ENDBRANCH  25  26
ENDBRANCH  24  25
ENDBRANCH  19  24
ENDBRANCH  16  17
ENDBRANCH  13  16
ENDBRANCH   6  12
BRANCH   1  28
HETATM   28  C   UNL     1      42.804 -13.354   3.742  1.00  0.00     0.312 C 
HETATM   29  O   UNL     1      43.553 -14.078   4.391  1.00  0.00    -0.258 OA
BRANCH  28  30
HETATM   30  O   UNL     1      42.261 -12.179   4.154  1.00  0.00    -0.317 OA
BRANCH  30  31
HETATM   31  C   UNL     1      41.266 -12.269   5.186  1.00  0.00     0.175 C 
HETATM   32  C   UNL     1      39.890 -11.996   4.606  1.00  0.00     0.034 C 
ENDBRANCH  30  31
ENDBRANCH  28  30
ENDBRANCH   1  28
TORSDOF 9
ENDMDL
MODEL 9
REMARK VINA RESULT:      -6.7      1.980      2.810
REMARK  9 active torsions:
REMARK  status: ('A' for Active; 'I' for Inactive)
REMARK    1  A    between atoms: C_2  and  O_3 
REMARK    2  A    between atoms: O_3  and  C_4 
REMARK    3  A    between atoms: C_4  and  C_5 
REMARK    4  A    between atoms: C_10  and  N_11 
REMARK       I    between atoms: N_11  and  C_12 
REMARK    5  A    between atoms: C_12  and  C_13 
REMARK    6  A    between atoms: C_13  and  N_14 
REMARK    7  A    between atoms: C_16  and  C_17 
REMARK    8  A    between atoms: C_17  and  C_18 
REMARK    9  A    between atoms: C_18  and  O_19 
ROOT
HETATM    1  C   UNL     1      43.570 -16.602   5.092  1.00  0.00     0.137 A 
HETATM    2  N   UNL     1      44.073 -17.712   5.721  1.00  0.00    -0.349 N 
HETATM    3  H   UNL     1      44.326 -17.749   6.700  1.00  0.00     0.166 HD
HETATM    4  C   UNL     1      44.184 -18.759   4.842  1.00  0.00     0.045 A 
HETATM    5  C   UNL     1      43.740 -18.310   3.591  1.00  0.00     0.021 A 
HETATM    6  C   UNL     1      43.359 -16.934   3.756  1.00  0.00     0.080 A 
HETATM    7  C   UNL     1      44.650 -20.059   5.081  1.00  0.00     0.032 A 
HETATM    8  C   UNL     1      44.666 -20.954   4.012  1.00  0.00     0.026 A 
HETATM    9  C   UNL     1      44.228 -20.553   2.758  1.00  0.00     0.035 A 
HETATM   10 CL   UNL     1      44.248 -21.676   1.453  1.00  0.00    -0.084 Cl
HETATM   11  C   UNL     1      43.767 -19.249   2.535  1.00  0.00     0.040 A 
ENDROOT
BRANCH   6  12
HETATM   12  N   UNL     1      42.862 -15.960   2.888  1.00  0.00    -0.323 N 
HETATM   13  C   UNL     1      41.645 -15.919   2.248  1.00  0.00     0.248 C 
HETATM   14  O   UNL     1      40.728 -16.725   2.342  1.00  0.00    -0.271 OA
HETATM   15  H   UNL     1      43.556 -15.242   2.667  1.00  0.00     0.169 HD
BRANCH  13  16
HETATM   16  C   UNL     1      41.460 -14.677   1.362  1.00  0.00     0.338 C 
BRANCH  16  17
HETATM   17  N   UNL     1      40.111 -13.926   1.537  1.00  0.00    -0.059 N 
HETATM   18  H   UNL     1      39.889 -13.915   2.541  1.00  0.00     0.280 HD
HETATM   19  C   UNL     1      40.185 -12.488   1.011  1.00  0.00     0.190 C 
HETATM   20  C   UNL     1      38.821 -11.804   1.181  1.00  0.00     0.033 C 
HETATM   21  C   UNL     1      37.711 -12.576   0.487  1.00  0.00     0.004 C 
HETATM   22  C   UNL     1      37.649 -13.992   1.028  1.00  0.00     0.028 C 
HETATM   23  C   UNL     1      38.978 -14.716   0.874  1.00  0.00     0.236 C 
BRANCH  19  24
HETATM   24  C   UNL     1      41.303 -11.660   1.671  1.00  0.00     0.059 C 
BRANCH  24  25
HETATM   25  C   UNL     1      41.177 -11.442   3.174  1.00  0.00     0.166 C 
BRANCH  25  26
HETATM   26  O   UNL     1      42.110 -12.267   3.848  1.00  0.00    -0.401 OA
HETATM   27  H   UNL     1      43.002 -11.885   3.781  1.00  0.00     0.209 HD
ENDBRANCH  25  26
ENDBRANCH  24  25
ENDBRANCH  19  24
ENDBRANCH  16  17
ENDBRANCH  13  16
ENDBRANCH   6  12
BRANCH   1  28
HETATM   28  C   UNL     1      43.336 -15.335   5.745  1.00  0.00     0.312 C 
HETATM   29  O   UNL     1      42.474 -14.540   5.387  1.00  0.00    -0.258 OA
BRANCH  28  30
HETATM   30  O   UNL     1      44.203 -15.175   6.779  1.00  0.00    -0.317 OA
BRANCH  30  31
HETATM   31  C   UNL     1      45.030 -14.002   6.735  1.00  0.00     0.175 C 
HETATM   32  C   UNL     1      44.879 -13.213   8.023  1.00  0.00     0.034 C 
ENDBRANCH  30  31
ENDBRANCH  28  30
ENDBRANCH   1  28
TORSDOF 9
ENDMDL
MODEL 10
REMARK VINA RESULT:      -6.7      2.288      3.395
REMARK  9 active torsions:
REMARK  status: ('A' for Active; 'I' for Inactive)
REMARK    1  A    between atoms: C_2  and  O_3 
REMARK    2  A    between atoms: O_3  and  C_4 
REMARK    3  A    between atoms: C_4  and  C_5 
REMARK    4  A    between atoms: C_10  and  N_11 
REMARK       I    between atoms: N_11  and  C_12 
REMARK    5  A    between atoms: C_12  and  C_13 
REMARK    6  A    between atoms: C_13  and  N_14 
REMARK    7  A    between atoms: C_16  and  C_17 
REMARK    8  A    between atoms: C_17  and  C_18 
REMARK    9  A    between atoms: C_18  and  O_19 
ROOT
HETATM    1  C   UNL     1      41.626 -15.304   5.589  1.00  0.00     0.137 A 
HETATM    2  N   UNL     1      42.558 -15.605   6.549  1.00  0.00    -0.349 N 
HETATM    3  H   UNL     1      42.688 -15.080   7.405  1.00  0.00     0.166 HD
HETATM    4  C   UNL     1      43.287 -16.710   6.190  1.00  0.00     0.045 A 
HETATM    5  C   UNL     1      42.812 -17.142   4.944  1.00  0.00     0.021 A 
HETATM    6  C   UNL     1      41.761 -16.237   4.564  1.00  0.00     0.080 A 
HETATM    7  C   UNL     1      44.327 -17.339   6.886  1.00  0.00     0.032 A 
HETATM    8  C   UNL     1      44.916 -18.462   6.306  1.00  0.00     0.026 A 
HETATM    9  C   UNL     1      44.472 -18.928   5.077  1.00  0.00     0.035 A 
HETATM   10 CL   UNL     1      45.208 -20.320   4.381  1.00  0.00    -0.084 Cl
HETATM   11  C   UNL     1      43.432 -18.286   4.392  1.00  0.00     0.040 A 
ENDROOT
BRANCH   6  12
HETATM   12  N   UNL     1      40.929 -16.140   3.447  1.00  0.00    -0.323 N 
HETATM   13  C   UNL     1      41.156 -15.479   2.262  1.00  0.00     0.248 C 
HETATM   14  O   UNL     1      42.164 -14.867   1.933  1.00  0.00    -0.271 OA
HETATM   15  H   UNL     1      40.012 -16.562   3.605  1.00  0.00     0.169 HD
BRANCH  13  16
HETATM   16  C   UNL     1      39.994 -15.597   1.263  1.00  0.00     0.338 C 
BRANCH  16  17
HETATM   17  N   UNL     1      39.542 -14.266   0.602  1.00  0.00    -0.059 N 
HETATM   18  H   UNL     1      40.176 -13.526   0.929  1.00  0.00     0.280 HD
HETATM   19  C   UNL     1      39.587 -14.343  -0.928  1.00  0.00     0.190 C 
HETATM   20  C   UNL     1      39.105 -13.015  -1.528  1.00  0.00     0.033 C 
HETATM   21  C   UNL     1      37.709 -12.652  -1.047  1.00  0.00     0.004 C 
HETATM   22  C   UNL     1      37.688 -12.572   0.467  1.00  0.00     0.028 C 
HETATM   23  C   UNL     1      38.152 -13.870   1.110  1.00  0.00     0.236 C 
BRANCH  19  24
HETATM   24  C   UNL     1      40.977 -14.721  -1.472  1.00  0.00     0.059 C 
BRANCH  24  25
HETATM   25  C   UNL     1      40.996 -15.517  -2.771  1.00  0.00     0.166 C 
BRANCH  25  26
HETATM   26  O   UNL     1      42.113 -15.122  -3.548  1.00  0.00    -0.401 OA
HETATM   27  H   UNL     1      42.487 -14.296  -3.196  1.00  0.00     0.209 HD
ENDBRANCH  25  26
ENDBRANCH  24  25
ENDBRANCH  19  24
ENDBRANCH  16  17
ENDBRANCH  13  16
ENDBRANCH   6  12
BRANCH   1  28
HETATM   28  C   UNL     1      40.704 -14.196   5.672  1.00  0.00     0.312 C 
HETATM   29  O   UNL     1      39.492 -14.312   5.523  1.00  0.00    -0.258 OA
BRANCH  28  30
HETATM   30  O   UNL     1      41.379 -13.045   5.927  1.00  0.00    -0.317 OA
BRANCH  30  31
HETATM   31  C   UNL     1      41.890 -12.344   4.783  1.00  0.00     0.175 C 
HETATM   32  C   UNL     1      41.314 -10.941   4.734  1.00  0.00     0.034 C 
ENDBRANCH  30  31
ENDBRANCH  28  30
ENDBRANCH   1  28
TORSDOF 9
ENDMDL
