MODEL 1
REMARK VINA RESULT:      -9.8      0.000      0.000
REMARK  4 active torsions:
REMARK  status: ('A' for Active; 'I' for Inactive)
REMARK       I    between atoms: N_2  and  C_4 
REMARK       I    between atoms: C_4  and  N_6 
REMARK    1  A    between atoms: N_6  and  C_7 
REMARK    2  A    between atoms: C_12  and  C_13 
REMARK    3  A    between atoms: C_15  and  N_16 
REMARK    4  A    between atoms: N_16  and  C_17 
ROOT
HETATM    1  C   UNL     1      42.356 -18.025   2.411  1.00  0.00     0.164 A 
HETATM    2  N   UNL     1      41.666 -17.450   3.406  1.00  0.00    -0.210 NA
HETATM    3  C   UNL     1      40.897 -16.387   3.122  1.00  0.00     0.143 A 
HETATM    4  C   UNL     1      40.805 -15.868   1.822  1.00  0.00     0.039 A 
HETATM    5  C   UNL     1      40.014 -14.752   1.443  1.00  0.00     0.018 A 
HETATM    6  C   UNL     1      39.998 -14.305   0.124  1.00  0.00     0.001 A 
HETATM    7  C   UNL     1      40.760 -14.968  -0.828  1.00  0.00     0.002 A 
HETATM    8  C   UNL     1      41.527 -16.076  -0.455  1.00  0.00     0.032 A 
HETATM    9  C   UNL     1      41.560 -16.543   0.853  1.00  0.00     0.073 A 
HETATM   10  N   UNL     1      42.312 -17.614   1.131  1.00  0.00    -0.228 NA
ENDROOT
BRANCH   1  11
HETATM   11  C   UNL     1      43.220 -19.173   2.770  1.00  0.00     0.039 A 
HETATM   12  C   UNL     1      43.924 -19.285   4.000  1.00  0.00     0.050 A 
HETATM   13  C   UNL     1      44.748 -20.400   4.225  1.00  0.00     0.030 A 
HETATM   14  C   UNL     1      44.869 -21.418   3.278  1.00  0.00     0.002 A 
HETATM   15  C   UNL     1      44.179 -21.332   2.079  1.00  0.00     0.001 A 
HETATM   16  C   UNL     1      43.372 -20.224   1.830  1.00  0.00     0.018 A 
BRANCH  12  17
HETATM   17  N   UNL     1      43.827 -18.240   4.953  1.00  0.00    -0.308 N 
HETATM   18  C   UNL     1      43.556 -18.326   6.298  1.00  0.00     0.322 C 
HETATM   19  N   UNL     1      43.769 -17.138   7.001  1.00  0.00    -0.343 N 
HETATM   20  O   UNL     1      43.148 -19.336   6.865  1.00  0.00    -0.247 OA
HETATM   21  C   UNL     1      43.427 -17.128   8.413  1.00  0.00     0.154 C 
HETATM   22  C   UNL     1      44.644 -16.058   6.560  1.00  0.00     0.154 C 
HETATM   23  H   UNL     1      43.712 -17.315   4.549  1.00  0.00     0.170 HD
ENDBRANCH  12  17
ENDBRANCH   1  11
BRANCH   3  24
HETATM   24  N   UNL     1      40.179 -15.769   4.182  1.00  0.00    -0.340 N 
HETATM   25  H   UNL     1      39.205 -15.685   3.912  1.00  0.00     0.167 HD
BRANCH  24  26
HETATM   26  C   UNL     1      40.615 -14.656   4.943  1.00  0.00     0.034 A 
HETATM   27  C   UNL     1      41.971 -14.295   4.926  1.00  0.00     0.032 A 
HETATM   28  C   UNL     1      42.458 -13.188   5.641  1.00  0.00     0.034 A 
HETATM   29  C   UNL     1      41.523 -12.435   6.355  1.00  0.00     0.062 A 
HETATM   30  N   UNL     1      41.654 -11.321   7.143  1.00  0.00    -0.278 N 
HETATM   31  C   UNL     1      40.168 -12.735   6.370  1.00  0.00     0.013 A 
HETATM   32  H   UNL     1      42.504 -10.819   7.369  1.00  0.00     0.189 HD
HETATM   33  N   UNL     1      40.494 -10.871   7.656  1.00  0.00    -0.186 NA
HETATM   34  C   UNL     1      39.592 -11.734   7.183  1.00  0.00     0.152 A 
HETATM   35  C   UNL     1      39.703 -13.848   5.647  1.00  0.00     0.044 A 
ENDBRANCH  24  26
ENDBRANCH   3  24
TORSDOF 4
ENDMDL
MODEL 2
REMARK VINA RESULT:      -9.6      2.264      4.948
REMARK  4 active torsions:
REMARK  status: ('A' for Active; 'I' for Inactive)
REMARK       I    between atoms: N_2  and  C_4 
REMARK       I    between atoms: C_4  and  N_6 
REMARK    1  A    between atoms: N_6  and  C_7 
REMARK    2  A    between atoms: C_12  and  C_13 
REMARK    3  A    between atoms: C_15  and  N_16 
REMARK    4  A    between atoms: N_16  and  C_17 
ROOT
HETATM    1  C   UNL     1      42.331 -18.033   2.844  1.00  0.00     0.164 A 
HETATM    2  N   UNL     1      41.753 -17.666   1.691  1.00  0.00    -0.210 NA
HETATM    3  C   UNL     1      40.985 -16.566   1.683  1.00  0.00     0.143 A 
HETATM    4  C   UNL     1      40.770 -15.804   2.841  1.00  0.00     0.039 A 
HETATM    5  C   UNL     1      39.974 -14.632   2.912  1.00  0.00     0.018 A 
HETATM    6  C   UNL     1      39.814 -13.950   4.115  1.00  0.00     0.001 A 
HETATM    7  C   UNL     1      40.448 -14.425   5.255  1.00  0.00     0.002 A 
HETATM    8  C   UNL     1      41.244 -15.572   5.180  1.00  0.00     0.032 A 
HETATM    9  C   UNL     1      41.421 -16.269   3.992  1.00  0.00     0.073 A 
HETATM   10  N   UNL     1      42.204 -17.355   3.998  1.00  0.00    -0.228 NA
ENDROOT
BRANCH   1  11
HETATM   11  C   UNL     1      43.144 -19.272   2.822  1.00  0.00     0.039 A 
HETATM   12  C   UNL     1      43.947 -19.715   3.907  1.00  0.00     0.050 A 
HETATM   13  C   UNL     1      44.710 -20.887   3.768  1.00  0.00     0.030 A 
HETATM   14  C   UNL     1      44.676 -21.642   2.595  1.00  0.00     0.002 A 
HETATM   15  C   UNL     1      43.888 -21.232   1.531  1.00  0.00     0.001 A 
HETATM   16  C   UNL     1      43.138 -20.062   1.645  1.00  0.00     0.018 A 
BRANCH  12  17
HETATM   17  N   UNL     1      44.008 -18.936   5.090  1.00  0.00    -0.308 N 
HETATM   18  C   UNL     1      44.004 -19.358   6.398  1.00  0.00     0.322 C 
HETATM   19  N   UNL     1      44.317 -18.358   7.322  1.00  0.00    -0.343 N 
HETATM   20  O   UNL     1      43.742 -20.501   6.763  1.00  0.00    -0.247 OA
HETATM   21  C   UNL     1      44.255 -18.708   8.731  1.00  0.00     0.154 C 
HETATM   22  C   UNL     1      45.060 -17.143   7.010  1.00  0.00     0.154 C 
HETATM   23  H   UNL     1      43.791 -17.953   4.954  1.00  0.00     0.170 HD
ENDBRANCH  12  17
ENDBRANCH   1  11
BRANCH   3  24
HETATM   24  N   UNL     1      40.360 -16.186   0.463  1.00  0.00    -0.340 N 
HETATM   25  H   UNL     1      39.894 -16.996   0.069  1.00  0.00     0.167 HD
BRANCH  24  26
HETATM   26  C   UNL     1      40.928 -15.362  -0.541  1.00  0.00     0.034 A 
HETATM   27  C   UNL     1      40.895 -15.781  -1.881  1.00  0.00     0.032 A 
HETATM   28  C   UNL     1      41.420 -14.996  -2.921  1.00  0.00     0.034 A 
HETATM   29  C   UNL     1      41.957 -13.757  -2.569  1.00  0.00     0.062 A 
HETATM   30  N   UNL     1      42.541 -12.766  -3.315  1.00  0.00    -0.278 N 
HETATM   31  C   UNL     1      41.978 -13.288  -1.263  1.00  0.00     0.013 A 
HETATM   32  H   UNL     1      42.704 -12.759  -4.315  1.00  0.00     0.189 HD
HETATM   33  N   UNL     1      42.925 -11.693  -2.601  1.00  0.00    -0.186 NA
HETATM   34  C   UNL     1      42.581 -12.014  -1.351  1.00  0.00     0.152 A 
HETATM   35  C   UNL     1      41.447 -14.090  -0.238  1.00  0.00     0.044 A 
ENDBRANCH  24  26
ENDBRANCH   3  24
TORSDOF 4
ENDMDL
MODEL 3
REMARK VINA RESULT:      -9.4      3.471      5.559
REMARK  4 active torsions:
REMARK  status: ('A' for Active; 'I' for Inactive)
REMARK       I    between atoms: N_2  and  C_4 
REMARK       I    between atoms: C_4  and  N_6 
REMARK    1  A    between atoms: N_6  and  C_7 
REMARK    2  A    between atoms: C_12  and  C_13 
REMARK    3  A    between atoms: C_15  and  N_16 
REMARK    4  A    between atoms: N_16  and  C_17 
ROOT
HETATM    1  C   UNL     1      41.537 -16.373   1.471  1.00  0.00     0.164 A 
HETATM    2  N   UNL     1      42.072 -15.924   0.326  1.00  0.00    -0.210 NA
HETATM    3  C   UNL     1      41.353 -15.077  -0.427  1.00  0.00     0.143 A 
HETATM    4  C   UNL     1      40.067 -14.661  -0.051  1.00  0.00     0.039 A 
HETATM    5  C   UNL     1      39.248 -13.770  -0.791  1.00  0.00     0.018 A 
HETATM    6  C   UNL     1      37.978 -13.425  -0.336  1.00  0.00     0.001 A 
HETATM    7  C   UNL     1      37.516 -13.958   0.859  1.00  0.00     0.002 A 
HETATM    8  C   UNL     1      38.330 -14.824   1.594  1.00  0.00     0.032 A 
HETATM    9  C   UNL     1      39.601 -15.183   1.164  1.00  0.00     0.073 A 
HETATM   10  N   UNL     1      40.324 -16.012   1.926  1.00  0.00    -0.228 NA
ENDROOT
BRANCH   1  11
HETATM   11  C   UNL     1      42.346 -17.333   2.258  1.00  0.00     0.039 A 
HETATM   12  C   UNL     1      42.497 -17.275   3.670  1.00  0.00     0.050 A 
HETATM   13  C   UNL     1      43.319 -18.214   4.315  1.00  0.00     0.030 A 
HETATM   14  C   UNL     1      43.971 -19.222   3.603  1.00  0.00     0.002 A 
HETATM   15  C   UNL     1      43.824 -19.302   2.227  1.00  0.00     0.001 A 
HETATM   16  C   UNL     1      43.027 -18.368   1.568  1.00  0.00     0.018 A 
BRANCH  12  17
HETATM   17  N   UNL     1      41.862 -16.236   4.394  1.00  0.00    -0.308 N 
HETATM   18  C   UNL     1      42.350 -14.993   4.722  1.00  0.00     0.322 C 
HETATM   19  N   UNL     1      41.389 -14.117   5.230  1.00  0.00    -0.343 N 
HETATM   20  O   UNL     1      43.524 -14.651   4.604  1.00  0.00    -0.247 OA
HETATM   21  C   UNL     1      41.845 -12.811   5.675  1.00  0.00     0.154 C 
HETATM   22  C   UNL     1      39.954 -14.235   5.001  1.00  0.00     0.154 C 
HETATM   23  H   UNL     1      41.051 -16.534   4.929  1.00  0.00     0.170 HD
ENDBRANCH  12  17
ENDBRANCH   1  11
BRANCH   3  24
HETATM   24  N   UNL     1      41.916 -14.615  -1.648  1.00  0.00    -0.340 N 
HETATM   25  H   UNL     1      42.675 -15.233  -1.913  1.00  0.00     0.167 HD
BRANCH  24  26
HETATM   26  C   UNL     1      42.193 -13.264  -1.977  1.00  0.00     0.034 A 
HETATM   27  C   UNL     1      41.886 -12.787  -3.262  1.00  0.00     0.032 A 
HETATM   28  C   UNL     1      42.115 -11.454  -3.637  1.00  0.00     0.034 A 
HETATM   29  C   UNL     1      42.642 -10.604  -2.663  1.00  0.00     0.062 A 
HETATM   30  N   UNL     1      42.982  -9.276  -2.693  1.00  0.00    -0.278 N 
HETATM   31  C   UNL     1      42.927 -11.024  -1.371  1.00  0.00     0.013 A 
HETATM   32  H   UNL     1      42.916  -8.638  -3.476  1.00  0.00     0.189 HD
HETATM   33  N   UNL     1      43.451  -8.802  -1.524  1.00  0.00    -0.186 NA
HETATM   34  C   UNL     1      43.416  -9.869  -0.722  1.00  0.00     0.152 A 
HETATM   35  C   UNL     1      42.688 -12.363  -1.017  1.00  0.00     0.044 A 
ENDBRANCH  24  26
ENDBRANCH   3  24
TORSDOF 4
ENDMDL
MODEL 4
REMARK VINA RESULT:      -9.2      3.485      7.898
REMARK  4 active torsions:
REMARK  status: ('A' for Active; 'I' for Inactive)
REMARK       I    between atoms: N_2  and  C_4 
REMARK       I    between atoms: C_4  and  N_6 
REMARK    1  A    between atoms: N_6  and  C_7 
REMARK    2  A    between atoms: C_12  and  C_13 
REMARK    3  A    between atoms: C_15  and  N_16 
REMARK    4  A    between atoms: N_16  and  C_17 
ROOT
HETATM    1  C   UNL     1      41.425 -15.124   0.759  1.00  0.00     0.164 A 
HETATM    2  N   UNL     1      42.492 -15.842   1.135  1.00  0.00    -0.210 NA
HETATM    3  C   UNL     1      42.691 -16.056   2.445  1.00  0.00     0.143 A 
HETATM    4  C   UNL     1      41.820 -15.544   3.418  1.00  0.00     0.039 A 
HETATM    5  C   UNL     1      41.962 -15.727   4.818  1.00  0.00     0.018 A 
HETATM    6  C   UNL     1      41.046 -15.168   5.706  1.00  0.00     0.001 A 
HETATM    7  C   UNL     1      39.981 -14.430   5.210  1.00  0.00     0.002 A 
HETATM    8  C   UNL     1      39.834 -14.264   3.829  1.00  0.00     0.032 A 
HETATM    9  C   UNL     1      40.733 -14.811   2.922  1.00  0.00     0.073 A 
HETATM   10  N   UNL     1      40.522 -14.614   1.615  1.00  0.00    -0.228 NA
ENDROOT
BRANCH   1  11
HETATM   11  C   UNL     1      41.258 -14.881  -0.693  1.00  0.00     0.039 A 
HETATM   12  C   UNL     1      41.365 -13.601  -1.303  1.00  0.00     0.050 A 
HETATM   13  C   UNL     1      41.152 -13.475  -2.686  1.00  0.00     0.030 A 
HETATM   14  C   UNL     1      40.863 -14.585  -3.482  1.00  0.00     0.002 A 
HETATM   15  C   UNL     1      40.768 -15.842  -2.906  1.00  0.00     0.001 A 
HETATM   16  C   UNL     1      40.959 -15.983  -1.533  1.00  0.00     0.018 A 
BRANCH  12  17
HETATM   17  N   UNL     1      41.629 -12.467  -0.495  1.00  0.00    -0.308 N 
HETATM   18  C   UNL     1      42.409 -11.371  -0.780  1.00  0.00     0.322 C 
HETATM   19  N   UNL     1      42.270 -10.319   0.128  1.00  0.00    -0.343 N 
HETATM   20  O   UNL     1      43.182 -11.292  -1.731  1.00  0.00    -0.247 OA
HETATM   21  C   UNL     1      43.122  -9.157  -0.061  1.00  0.00     0.154 C 
HETATM   22  C   UNL     1      41.111 -10.113   0.989  1.00  0.00     0.154 C 
HETATM   23  H   UNL     1      41.409 -12.594   0.488  1.00  0.00     0.170 HD
ENDBRANCH  12  17
ENDBRANCH   1  11
BRANCH   3  24
HETATM   24  N   UNL     1      43.833 -16.804   2.843  1.00  0.00    -0.340 N 
HETATM   25  H   UNL     1      44.658 -16.391   2.422  1.00  0.00     0.167 HD
BRANCH  24  26
HETATM   26  C   UNL     1      43.921 -18.218   2.902  1.00  0.00     0.034 A 
HETATM   27  C   UNL     1      43.611 -18.979   1.764  1.00  0.00     0.032 A 
HETATM   28  C   UNL     1      43.703 -20.380   1.756  1.00  0.00     0.034 A 
HETATM   29  C   UNL     1      44.146 -20.992   2.930  1.00  0.00     0.062 A 
HETATM   30  N   UNL     1      44.344 -22.308   3.259  1.00  0.00    -0.278 N 
HETATM   31  C   UNL     1      44.497 -20.276   4.066  1.00  0.00     0.013 A 
HETATM   32  H   UNL     1      44.187 -23.121   2.676  1.00  0.00     0.189 HD
HETATM   33  N   UNL     1      44.805 -22.500   4.508  1.00  0.00    -0.186 NA
HETATM   34  C   UNL     1      44.897 -21.260   4.996  1.00  0.00     0.152 A 
HETATM   35  C   UNL     1      44.398 -18.874   4.051  1.00  0.00     0.044 A 
ENDBRANCH  24  26
ENDBRANCH   3  24
TORSDOF 4
ENDMDL
MODEL 5
REMARK VINA RESULT:      -9.1      3.249      7.842
REMARK  4 active torsions:
REMARK  status: ('A' for Active; 'I' for Inactive)
REMARK       I    between atoms: N_2  and  C_4 
REMARK       I    between atoms: C_4  and  N_6 
REMARK    1  A    between atoms: N_6  and  C_7 
REMARK    2  A    between atoms: C_12  and  C_13 
REMARK    3  A    between atoms: C_15  and  N_16 
REMARK    4  A    between atoms: N_16  and  C_17 
ROOT
HETATM    1  C   UNL     1      41.116 -15.076   0.801  1.00  0.00     0.164 A 
HETATM    2  N   UNL     1      42.277 -15.679   1.092  1.00  0.00    -0.210 NA
HETATM    3  C   UNL     1      42.594 -15.869   2.383  1.00  0.00     0.143 A 
HETATM    4  C   UNL     1      41.750 -15.448   3.422  1.00  0.00     0.039 A 
HETATM    5  C   UNL     1      42.015 -15.614   4.806  1.00  0.00     0.018 A 
HETATM    6  C   UNL     1      41.116 -15.151   5.763  1.00  0.00     0.001 A 
HETATM    7  C   UNL     1      39.946 -14.527   5.352  1.00  0.00     0.002 A 
HETATM    8  C   UNL     1      39.680 -14.379   3.988  1.00  0.00     0.032 A 
HETATM    9  C   UNL     1      40.560 -14.833   3.012  1.00  0.00     0.073 A 
HETATM   10  N   UNL     1      40.232 -14.661   1.726  1.00  0.00    -0.228 NA
ENDROOT
BRANCH   1  11
HETATM   11  C   UNL     1      40.817 -14.854  -0.633  1.00  0.00     0.039 A 
HETATM   12  C   UNL     1      40.272 -13.649  -1.154  1.00  0.00     0.050 A 
HETATM   13  C   UNL     1      39.990 -13.556  -2.527  1.00  0.00     0.030 A 
HETATM   14  C   UNL     1      40.260 -14.612  -3.398  1.00  0.00     0.002 A 
HETATM   15  C   UNL     1      40.804 -15.789  -2.910  1.00  0.00     0.001 A 
HETATM   16  C   UNL     1      41.073 -15.907  -1.547  1.00  0.00     0.018 A 
BRANCH  12  17
HETATM   17  N   UNL     1      39.969 -12.584  -0.269  1.00  0.00    -0.308 N 
HETATM   18  C   UNL     1      38.743 -12.190   0.214  1.00  0.00     0.322 C 
HETATM   19  N   UNL     1      38.811 -11.259   1.253  1.00  0.00    -0.343 N 
HETATM   20  O   UNL     1      37.663 -12.588  -0.213  1.00  0.00    -0.247 OA
HETATM   21  C   UNL     1      37.555 -10.734   1.762  1.00  0.00     0.154 C 
HETATM   22  C   UNL     1      39.968 -11.064   2.119  1.00  0.00     0.154 C 
HETATM   23  H   UNL     1      40.710 -11.897  -0.172  1.00  0.00     0.170 HD
ENDBRANCH  12  17
ENDBRANCH   1  11
BRANCH   3  24
HETATM   24  N   UNL     1      43.834 -16.496   2.689  1.00  0.00    -0.340 N 
HETATM   25  H   UNL     1      44.544 -16.141   2.058  1.00  0.00     0.167 HD
BRANCH  24  26
HETATM   26  C   UNL     1      44.021 -17.870   2.979  1.00  0.00     0.034 A 
HETATM   27  C   UNL     1      44.241 -18.274   4.306  1.00  0.00     0.032 A 
HETATM   28  C   UNL     1      44.410 -19.623   4.657  1.00  0.00     0.034 A 
HETATM   29  C   UNL     1      44.322 -20.561   3.627  1.00  0.00     0.062 A 
HETATM   30  N   UNL     1      44.437 -21.927   3.619  1.00  0.00    -0.278 N 
HETATM   31  C   UNL     1      44.070 -20.209   2.308  1.00  0.00     0.013 A 
HETATM   32  H   UNL     1      44.626 -22.536   4.405  1.00  0.00     0.189 HD
HETATM   33  N   UNL     1      44.269 -22.487   2.407  1.00  0.00    -0.186 NA
HETATM   34  C   UNL     1      44.045 -21.437   1.611  1.00  0.00     0.152 A 
HETATM   35  C   UNL     1      43.904 -18.853   1.979  1.00  0.00     0.044 A 
ENDBRANCH  24  26
ENDBRANCH   3  24
TORSDOF 4
ENDMDL
MODEL 6
REMARK VINA RESULT:      -8.9      2.488      5.638
REMARK  4 active torsions:
REMARK  status: ('A' for Active; 'I' for Inactive)
REMARK       I    between atoms: N_2  and  C_4 
REMARK       I    between atoms: C_4  and  N_6 
REMARK    1  A    between atoms: N_6  and  C_7 
REMARK    2  A    between atoms: C_12  and  C_13 
REMARK    3  A    between atoms: C_15  and  N_16 
REMARK    4  A    between atoms: N_16  and  C_17 
ROOT
HETATM    1  C   UNL     1      41.385 -15.963   0.542  1.00  0.00     0.164 A 
HETATM    2  N   UNL     1      40.812 -15.649   1.713  1.00  0.00    -0.210 NA
HETATM    3  C   UNL     1      41.191 -16.320   2.811  1.00  0.00     0.143 A 
HETATM    4  C   UNL     1      42.157 -17.336   2.761  1.00  0.00     0.039 A 
HETATM    5  C   UNL     1      42.609 -18.088   3.876  1.00  0.00     0.018 A 
HETATM    6  C   UNL     1      43.569 -19.086   3.721  1.00  0.00     0.001 A 
HETATM    7  C   UNL     1      44.089 -19.338   2.459  1.00  0.00     0.002 A 
HETATM    8  C   UNL     1      43.653 -18.586   1.364  1.00  0.00     0.032 A 
HETATM    9  C   UNL     1      42.698 -17.584   1.492  1.00  0.00     0.073 A 
HETATM   10  N   UNL     1      42.337 -16.902   0.399  1.00  0.00    -0.228 NA
ENDROOT
BRANCH   1  11
HETATM   11  C   UNL     1      40.916 -15.223  -0.653  1.00  0.00     0.039 A 
HETATM   12  C   UNL     1      40.265 -13.961  -0.603  1.00  0.00     0.050 A 
HETATM   13  C   UNL     1      39.827 -13.362  -1.796  1.00  0.00     0.030 A 
HETATM   14  C   UNL     1      40.042 -13.967  -3.035  1.00  0.00     0.002 A 
HETATM   15  C   UNL     1      40.688 -15.191  -3.104  1.00  0.00     0.001 A 
HETATM   16  C   UNL     1      41.113 -15.809  -1.929  1.00  0.00     0.018 A 
BRANCH  12  17
HETATM   17  N   UNL     1      40.018 -13.357   0.655  1.00  0.00    -0.308 N 
HETATM   18  C   UNL     1      40.714 -12.347   1.275  1.00  0.00     0.322 C 
HETATM   19  N   UNL     1      40.073 -11.815   2.396  1.00  0.00    -0.343 N 
HETATM   20  O   UNL     1      41.812 -11.930   0.913  1.00  0.00    -0.247 OA
HETATM   21  C   UNL     1      40.785 -10.798   3.153  1.00  0.00     0.154 C 
HETATM   22  C   UNL     1      38.639 -11.894   2.648  1.00  0.00     0.154 C 
HETATM   23  H   UNL     1      39.404 -13.891   1.262  1.00  0.00     0.170 HD
ENDBRANCH  12  17
ENDBRANCH   1  11
BRANCH   3  24
HETATM   24  N   UNL     1      40.570 -15.997   4.049  1.00  0.00    -0.340 N 
HETATM   25  H   UNL     1      39.575 -16.176   3.973  1.00  0.00     0.167 HD
BRANCH  24  26
HETATM   26  C   UNL     1      40.843 -14.854   4.843  1.00  0.00     0.034 A 
HETATM   27  C   UNL     1      42.166 -14.405   4.978  1.00  0.00     0.032 A 
HETATM   28  C   UNL     1      42.495 -13.267   5.731  1.00  0.00     0.034 A 
HETATM   29  C   UNL     1      41.438 -12.574   6.324  1.00  0.00     0.062 A 
HETATM   30  N   UNL     1      41.404 -11.450   7.109  1.00  0.00    -0.278 N 
HETATM   31  C   UNL     1      40.112 -12.961   6.187  1.00  0.00     0.013 A 
HETATM   32  H   UNL     1      42.189 -10.893   7.425  1.00  0.00     0.189 HD
HETATM   33  N   UNL     1      40.167 -11.074   7.479  1.00  0.00    -0.186 NA
HETATM   34  C   UNL     1      39.382 -11.997   6.916  1.00  0.00     0.152 A 
HETATM   35  C   UNL     1      39.806 -14.104   5.428  1.00  0.00     0.044 A 
ENDBRANCH  24  26
ENDBRANCH   3  24
TORSDOF 4
ENDMDL
MODEL 7
REMARK VINA RESULT:      -8.9      2.716      6.638
REMARK  4 active torsions:
REMARK  status: ('A' for Active; 'I' for Inactive)
REMARK       I    between atoms: N_2  and  C_4 
REMARK       I    between atoms: C_4  and  N_6 
REMARK    1  A    between atoms: N_6  and  C_7 
REMARK    2  A    between atoms: C_12  and  C_13 
REMARK    3  A    between atoms: C_15  and  N_16 
REMARK    4  A    between atoms: N_16  and  C_17 
ROOT
HETATM    1  C   UNL     1      39.967 -12.881   1.207  1.00  0.00     0.164 A 
HETATM    2  N   UNL     1      40.060 -14.178   1.531  1.00  0.00    -0.210 NA
HETATM    3  C   UNL     1      40.405 -15.054   0.575  1.00  0.00     0.143 A 
HETATM    4  C   UNL     1      40.660 -14.647  -0.744  1.00  0.00     0.039 A 
HETATM    5  C   UNL     1      41.030 -15.510  -1.807  1.00  0.00     0.018 A 
HETATM    6  C   UNL     1      41.253 -15.009  -3.087  1.00  0.00     0.001 A 
HETATM    7  C   UNL     1      41.117 -13.646  -3.317  1.00  0.00     0.002 A 
HETATM    8  C   UNL     1      40.768 -12.796  -2.264  1.00  0.00     0.032 A 
HETATM    9  C   UNL     1      40.541 -13.270  -0.978  1.00  0.00     0.073 A 
HETATM   10  N   UNL     1      40.217 -12.393  -0.021  1.00  0.00    -0.228 NA
ENDROOT
BRANCH   1  11
HETATM   11  C   UNL     1      39.551 -11.949   2.282  1.00  0.00     0.039 A 
HETATM   12  C   UNL     1      40.301 -11.715   3.466  1.00  0.00     0.050 A 
HETATM   13  C   UNL     1      39.797 -10.838   4.441  1.00  0.00     0.030 A 
HETATM   14  C   UNL     1      38.586 -10.168   4.260  1.00  0.00     0.002 A 
HETATM   15  C   UNL     1      37.848 -10.374   3.106  1.00  0.00     0.001 A 
HETATM   16  C   UNL     1      38.324 -11.254   2.136  1.00  0.00     0.018 A 
BRANCH  12  17
HETATM   17  N   UNL     1      41.517 -12.415   3.667  1.00  0.00    -0.308 N 
HETATM   18  C   UNL     1      41.873 -13.237   4.711  1.00  0.00     0.322 C 
HETATM   19  N   UNL     1      43.046 -13.963   4.491  1.00  0.00    -0.343 N 
HETATM   20  O   UNL     1      41.249 -13.340   5.763  1.00  0.00    -0.247 OA
HETATM   21  C   UNL     1      43.531 -14.792   5.582  1.00  0.00     0.154 C 
HETATM   22  C   UNL     1      43.601 -14.267   3.178  1.00  0.00     0.154 C 
HETATM   23  H   UNL     1      42.290 -12.083   3.098  1.00  0.00     0.170 HD
ENDBRANCH  12  17
ENDBRANCH   1  11
BRANCH   3  24
HETATM   24  N   UNL     1      40.487 -16.431   0.917  1.00  0.00    -0.340 N 
HETATM   25  H   UNL     1      39.564 -16.759   1.180  1.00  0.00     0.167 HD
BRANCH  24  26
HETATM   26  C   UNL     1      41.505 -17.035   1.697  1.00  0.00     0.034 A 
HETATM   27  C   UNL     1      42.763 -17.281   1.123  1.00  0.00     0.032 A 
HETATM   28  C   UNL     1      43.816 -17.854   1.854  1.00  0.00     0.034 A 
HETATM   29  C   UNL     1      43.570 -18.148   3.196  1.00  0.00     0.062 A 
HETATM   30  N   UNL     1      44.357 -18.701   4.172  1.00  0.00    -0.278 N 
HETATM   31  C   UNL     1      42.354 -17.888   3.813  1.00  0.00     0.013 A 
HETATM   32  H   UNL     1      45.313 -19.023   4.087  1.00  0.00     0.189 HD
HETATM   33  N   UNL     1      43.754 -18.809   5.370  1.00  0.00    -0.186 NA
HETATM   34  C   UNL     1      42.534 -18.313   5.147  1.00  0.00     0.152 A 
HETATM   35  C   UNL     1      41.313 -17.314   3.062  1.00  0.00     0.044 A 
ENDBRANCH  24  26
ENDBRANCH   3  24
TORSDOF 4
ENDMDL
MODEL 8
REMARK VINA RESULT:      -8.7      2.915      7.554
REMARK  4 active torsions:
REMARK  status: ('A' for Active; 'I' for Inactive)
REMARK       I    between atoms: N_2  and  C_4 
REMARK       I    between atoms: C_4  and  N_6 
REMARK    1  A    between atoms: N_6  and  C_7 
REMARK    2  A    between atoms: C_12  and  C_13 
REMARK    3  A    between atoms: C_15  and  N_16 
REMARK    4  A    between atoms: N_16  and  C_17 
ROOT
HETATM    1  C   UNL     1      43.045 -13.424   6.482  1.00  0.00     0.164 A 
HETATM    2  N   UNL     1      42.876 -14.749   6.594  1.00  0.00    -0.210 NA
HETATM    3  C   UNL     1      42.039 -15.362   5.742  1.00  0.00     0.143 A 
HETATM    4  C   UNL     1      41.339 -14.653   4.754  1.00  0.00     0.039 A 
HETATM    5  C   UNL     1      40.440 -15.228   3.819  1.00  0.00     0.018 A 
HETATM    6  C   UNL     1      39.784 -14.435   2.880  1.00  0.00     0.001 A 
HETATM    7  C   UNL     1      40.023 -13.068   2.860  1.00  0.00     0.002 A 
HETATM    8  C   UNL     1      40.921 -12.505   3.772  1.00  0.00     0.032 A 
HETATM    9  C   UNL     1      41.588 -13.274   4.718  1.00  0.00     0.073 A 
HETATM   10  N   UNL     1      42.438 -12.664   5.553  1.00  0.00    -0.228 NA
ENDROOT
BRANCH   1  11
HETATM   11  C   UNL     1      43.950 -12.778   7.461  1.00  0.00     0.039 A 
HETATM   12  C   UNL     1      43.531 -11.815   8.418  1.00  0.00     0.050 A 
HETATM   13  C   UNL     1      44.479 -11.236   9.277  1.00  0.00     0.030 A 
HETATM   14  C   UNL     1      45.824 -11.606   9.231  1.00  0.00     0.002 A 
HETATM   15  C   UNL     1      46.249 -12.554   8.314  1.00  0.00     0.001 A 
HETATM   16  C   UNL     1      45.325 -13.126   7.441  1.00  0.00     0.018 A 
BRANCH  12  17
HETATM   17  N   UNL     1      42.171 -11.414   8.449  1.00  0.00    -0.308 N 
HETATM   18  C   UNL     1      41.593 -10.294   7.899  1.00  0.00     0.322 C 
HETATM   19  N   UNL     1      40.196 -10.314   7.900  1.00  0.00    -0.343 N 
HETATM   20  O   UNL     1      42.215  -9.336   7.449  1.00  0.00    -0.247 OA
HETATM   21  C   UNL     1      39.512  -9.130   7.409  1.00  0.00     0.154 C 
HETATM   22  C   UNL     1      39.383 -11.522   7.976  1.00  0.00     0.154 C 
HETATM   23  H   UNL     1      41.613 -11.884   9.155  1.00  0.00     0.170 HD
ENDBRANCH  12  17
ENDBRANCH   1  11
BRANCH   3  24
HETATM   24  N   UNL     1      41.849 -16.765   5.872  1.00  0.00    -0.340 N 
HETATM   25  H   UNL     1      41.513 -16.964   6.808  1.00  0.00     0.167 HD
BRANCH  24  26
HETATM   26  C   UNL     1      42.730 -17.770   5.401  1.00  0.00     0.034 A 
HETATM   27  C   UNL     1      43.583 -18.422   6.305  1.00  0.00     0.032 A 
HETATM   28  C   UNL     1      44.460 -19.442   5.900  1.00  0.00     0.034 A 
HETATM   29  C   UNL     1      44.429 -19.805   4.553  1.00  0.00     0.062 A 
HETATM   30  N   UNL     1      45.137 -20.737   3.839  1.00  0.00    -0.278 N 
HETATM   31  C   UNL     1      43.576 -19.212   3.632  1.00  0.00     0.013 A 
HETATM   32  H   UNL     1      45.858 -21.361   4.180  1.00  0.00     0.189 HD
HETATM   33  N   UNL     1      44.803 -20.803   2.537  1.00  0.00    -0.186 NA
HETATM   34  C   UNL     1      43.853 -19.873   2.415  1.00  0.00     0.152 A 
HETATM   35  C   UNL     1      42.707 -18.194   4.059  1.00  0.00     0.044 A 
ENDBRANCH  24  26
ENDBRANCH   3  24
TORSDOF 4
ENDMDL
MODEL 9
REMARK VINA RESULT:      -8.6      3.526      7.959
REMARK  4 active torsions:
REMARK  status: ('A' for Active; 'I' for Inactive)
REMARK       I    between atoms: N_2  and  C_4 
REMARK       I    between atoms: C_4  and  N_6 
REMARK    1  A    between atoms: N_6  and  C_7 
REMARK    2  A    between atoms: C_12  and  C_13 
REMARK    3  A    between atoms: C_15  and  N_16 
REMARK    4  A    between atoms: N_16  and  C_17 
ROOT
HETATM    1  C   UNL     1      40.512 -14.425   0.662  1.00  0.00     0.164 A 
HETATM    2  N   UNL     1      40.519 -15.598   1.311  1.00  0.00    -0.210 NA
HETATM    3  C   UNL     1      40.802 -15.603   2.623  1.00  0.00     0.143 A 
HETATM    4  C   UNL     1      41.096 -14.421   3.321  1.00  0.00     0.039 A 
HETATM    5  C   UNL     1      41.403 -14.345   4.704  1.00  0.00     0.018 A 
HETATM    6  C   UNL     1      41.691 -13.121   5.303  1.00  0.00     0.001 A 
HETATM    7  C   UNL     1      41.668 -11.966   4.535  1.00  0.00     0.002 A 
HETATM    8  C   UNL     1      41.349 -12.041   3.176  1.00  0.00     0.032 A 
HETATM    9  C   UNL     1      41.058 -13.249   2.554  1.00  0.00     0.073 A 
HETATM   10  N   UNL     1      40.755 -13.240   1.250  1.00  0.00    -0.228 NA
ENDROOT
BRANCH   1  11
HETATM   11  C   UNL     1      40.228 -14.464  -0.791  1.00  0.00     0.039 A 
HETATM   12  C   UNL     1      39.222 -13.686  -1.426  1.00  0.00     0.050 A 
HETATM   13  C   UNL     1      39.009 -13.826  -2.807  1.00  0.00     0.030 A 
HETATM   14  C   UNL     1      39.783 -14.695  -3.578  1.00  0.00     0.002 A 
HETATM   15  C   UNL     1      40.777 -15.452  -2.978  1.00  0.00     0.001 A 
HETATM   16  C   UNL     1      40.990 -15.339  -1.605  1.00  0.00     0.018 A 
BRANCH  12  17
HETATM   17  N   UNL     1      38.414 -12.824  -0.643  1.00  0.00    -0.308 N 
HETATM   18  C   UNL     1      38.412 -11.449  -0.602  1.00  0.00     0.322 C 
HETATM   19  N   UNL     1      37.332 -10.900   0.093  1.00  0.00    -0.343 N 
HETATM   20  O   UNL     1      39.272 -10.734  -1.109  1.00  0.00    -0.247 OA
HETATM   21  C   UNL     1      37.303  -9.455   0.248  1.00  0.00     0.154 C 
HETATM   22  C   UNL     1      36.064 -11.581   0.330  1.00  0.00     0.154 C 
HETATM   23  H   UNL     1      37.956 -13.278   0.141  1.00  0.00     0.170 HD
ENDBRANCH  12  17
ENDBRANCH   1  11
BRANCH   3  24
HETATM   24  N   UNL     1      40.825 -16.850   3.306  1.00  0.00    -0.340 N 
HETATM   25  H   UNL     1      40.478 -16.713   4.249  1.00  0.00     0.167 HD
BRANCH  24  26
HETATM   26  C   UNL     1      41.872 -17.804   3.260  1.00  0.00     0.034 A 
HETATM   27  C   UNL     1      42.292 -18.311   2.020  1.00  0.00     0.032 A 
HETATM   28  C   UNL     1      43.340 -19.240   1.911  1.00  0.00     0.034 A 
HETATM   29  C   UNL     1      43.972 -19.623   3.095  1.00  0.00     0.062 A 
HETATM   30  N   UNL     1      45.004 -20.491   3.343  1.00  0.00    -0.278 N 
HETATM   31  C   UNL     1      43.613 -19.120   4.338  1.00  0.00     0.013 A 
HETATM   32  H   UNL     1      45.517 -21.050   2.673  1.00  0.00     0.189 HD
HETATM   33  N   UNL     1      45.347 -20.581   4.641  1.00  0.00    -0.186 NA
HETATM   34  C   UNL     1      44.498 -19.745   5.244  1.00  0.00     0.152 A 
HETATM   35  C   UNL     1      42.561 -18.191   4.423  1.00  0.00     0.044 A 
ENDBRANCH  24  26
ENDBRANCH   3  24
TORSDOF 4
ENDMDL
MODEL 10
REMARK VINA RESULT:      -8.3      3.111      7.418
REMARK  4 active torsions:
REMARK  status: ('A' for Active; 'I' for Inactive)
REMARK       I    between atoms: N_2  and  C_4 
REMARK       I    between atoms: C_4  and  N_6 
REMARK    1  A    between atoms: N_6  and  C_7 
REMARK    2  A    between atoms: C_12  and  C_13 
REMARK    3  A    between atoms: C_15  and  N_16 
REMARK    4  A    between atoms: N_16  and  C_17 
ROOT
HETATM    1  C   UNL     1      41.322 -14.389   3.066  1.00  0.00     0.164 A 
HETATM    2  N   UNL     1      41.398 -14.232   1.737  1.00  0.00    -0.210 NA
HETATM    3  C   UNL     1      42.011 -15.181   1.014  1.00  0.00     0.143 A 
HETATM    4  C   UNL     1      42.574 -16.319   1.612  1.00  0.00     0.039 A 
HETATM    5  C   UNL     1      43.235 -17.364   0.916  1.00  0.00     0.018 A 
HETATM    6  C   UNL     1      43.770 -18.450   1.603  1.00  0.00     0.001 A 
HETATM    7  C   UNL     1      43.647 -18.509   2.985  1.00  0.00     0.002 A 
HETATM    8  C   UNL     1      42.982 -17.485   3.666  1.00  0.00     0.032 A 
HETATM    9  C   UNL     1      42.438 -16.392   3.004  1.00  0.00     0.073 A 
HETATM   10  N   UNL     1      41.809 -15.456   3.726  1.00  0.00    -0.228 NA
ENDROOT
BRANCH   1  11
HETATM   11  C   UNL     1      40.669 -13.304   3.834  1.00  0.00     0.039 A 
HETATM   12  C   UNL     1      41.203 -12.739   5.024  1.00  0.00     0.050 A 
HETATM   13  C   UNL     1      40.482 -11.738   5.697  1.00  0.00     0.030 A 
HETATM   14  C   UNL     1      39.264 -11.264   5.207  1.00  0.00     0.002 A 
HETATM   15  C   UNL     1      38.736 -11.794   4.041  1.00  0.00     0.001 A 
HETATM   16  C   UNL     1      39.427 -12.801   3.370  1.00  0.00     0.018 A 
BRANCH  12  17
HETATM   17  N   UNL     1      42.425 -13.237   5.542  1.00  0.00    -0.308 N 
HETATM   18  C   UNL     1      43.111 -12.834   6.663  1.00  0.00     0.322 C 
HETATM   19  N   UNL     1      44.155 -13.686   7.031  1.00  0.00    -0.343 N 
HETATM   20  O   UNL     1      42.865 -11.816   7.304  1.00  0.00    -0.247 OA
HETATM   21  C   UNL     1      44.978 -13.285   8.159  1.00  0.00     0.154 C 
HETATM   22  C   UNL     1      44.254 -15.090   6.651  1.00  0.00     0.154 C 
HETATM   23  H   UNL     1      42.966 -13.786   4.881  1.00  0.00     0.170 HD
ENDBRANCH  12  17
ENDBRANCH   1  11
BRANCH   3  24
HETATM   24  N   UNL     1      42.103 -15.004  -0.394  1.00  0.00    -0.340 N 
HETATM   25  H   UNL     1      42.851 -14.349  -0.593  1.00  0.00     0.167 HD
BRANCH  24  26
HETATM   26  C   UNL     1      41.013 -14.850  -1.287  1.00  0.00     0.034 A 
HETATM   27  C   UNL     1      40.243 -13.676  -1.242  1.00  0.00     0.032 A 
HETATM   28  C   UNL     1      39.167 -13.457  -2.117  1.00  0.00     0.034 A 
HETATM   29  C   UNL     1      38.906 -14.452  -3.061  1.00  0.00     0.062 A 
HETATM   30  N   UNL     1      37.952 -14.558  -4.040  1.00  0.00    -0.278 N 
HETATM   31  C   UNL     1      39.663 -15.610  -3.164  1.00  0.00     0.013 A 
HETATM   32  H   UNL     1      37.217 -13.897  -4.262  1.00  0.00     0.189 HD
HETATM   33  N   UNL     1      38.038 -15.682  -4.774  1.00  0.00    -0.186 NA
HETATM   34  C   UNL     1      39.081 -16.321  -4.237  1.00  0.00     0.152 A 
HETATM   35  C   UNL     1      40.736 -15.809  -2.278  1.00  0.00     0.044 A 
ENDBRANCH  24  26
ENDBRANCH   3  24
TORSDOF 4
ENDMDL
