MODEL 1
REMARK VINA RESULT:      -8.6      0.000      0.000
REMARK  3 active torsions:
REMARK  status: ('A' for Active; 'I' for Inactive)
REMARK    1  A    between atoms: C_3  and  O_4 
REMARK    2  A    between atoms: O_4  and  C_5 
REMARK    3  A    between atoms: C_10  and  N_11 
REMARK       I    between atoms: N_11  and  C_12 
REMARK       I    between atoms: C_12  and  N_13 
ROOT
HETATM    1  N   UNL     1      43.314 -13.835   7.059  1.00  0.00    -0.309 N 
HETATM    2  C   UNL     1      44.330 -13.164   7.705  1.00  0.00     0.323 C 
HETATM    3  N   UNL     1      43.963 -11.928   8.219  1.00  0.00    -0.328 N 
HETATM    4  C   UNL     1      44.852 -11.315   9.211  1.00  0.00     0.185 C 
HETATM    5  C   UNL     1      43.988 -10.800  10.315  1.00  0.00     0.035 A 
HETATM    6  C   UNL     1      42.619 -10.610  10.275  1.00  0.00    -0.020 A 
HETATM    7  C   UNL     1      41.824 -10.944   9.057  1.00  0.00     0.061 C 
HETATM    8  C   UNL     1      42.772 -11.130   7.852  1.00  0.00     0.132 C 
HETATM    9  N   UNL     1      44.430 -10.456  11.560  1.00  0.00    -0.357 N 
HETATM   10  H   UNL     1      45.386 -10.510  11.884  1.00  0.00     0.166 HD
HETATM   11  C   UNL     1      43.365 -10.047  12.336  1.00  0.00     0.043 A 
HETATM   12  C   UNL     1      42.213 -10.132  11.549  1.00  0.00    -0.001 A 
HETATM   13  C   UNL     1      43.336  -9.621  13.670  1.00  0.00     0.030 A 
HETATM   14  C   UNL     1      42.095  -9.273  14.213  1.00  0.00     0.002 A 
HETATM   15  C   UNL     1      40.931  -9.346  13.451  1.00  0.00     0.001 A 
HETATM   16  C   UNL     1      40.976  -9.775  12.119  1.00  0.00     0.014 A 
HETATM   17  O   UNL     1      45.463 -13.607   7.872  1.00  0.00    -0.247 OA
HETATM   18  H   UNL     1      42.385 -13.512   7.271  1.00  0.00     0.170 HD
ENDROOT
BRANCH   1  19
HETATM   19  C   UNL     1      43.384 -15.111   6.458  1.00  0.00     0.037 A 
HETATM   20  C   UNL     1      43.548 -16.298   7.170  1.00  0.00     0.032 A 
HETATM   21  C   UNL     1      43.522 -17.530   6.508  1.00  0.00     0.039 A 
HETATM   22  C   UNL     1      43.329 -17.585   5.128  1.00  0.00     0.075 A 
HETATM   23  C   UNL     1      43.260 -16.400   4.384  1.00  0.00    -0.026 A 
HETATM   24  C   UNL     1      43.085 -16.425   2.892  1.00  0.00     0.051 C 
HETATM   25  C   UNL     1      43.271 -15.169   5.063  1.00  0.00     0.039 A 
BRANCH  22  26
HETATM   26  O   UNL     1      43.238 -18.765   4.439  1.00  0.00    -0.346 OA
BRANCH  26  27
HETATM   27  C   UNL     1      44.480 -19.455   4.220  1.00  0.00     0.121 C 
HETATM   28  C   UNL     1      44.625 -20.655   5.157  1.00  0.00     0.040 C 
HETATM   29  C   UNL     1      44.459 -19.934   2.770  1.00  0.00     0.040 C 
ENDBRANCH  26  27
ENDBRANCH  22  26
ENDBRANCH   1  19
TORSDOF 3
ENDMDL
MODEL 2
REMARK VINA RESULT:      -8.5      7.546     10.684
REMARK  3 active torsions:
REMARK  status: ('A' for Active; 'I' for Inactive)
REMARK    1  A    between atoms: C_3  and  O_4 
REMARK    2  A    between atoms: O_4  and  C_5 
REMARK    3  A    between atoms: C_10  and  N_11 
REMARK       I    between atoms: N_11  and  C_12 
REMARK       I    between atoms: C_12  and  N_13 
ROOT
HETATM    1  N   UNL     1      41.147 -15.066   1.516  1.00  0.00    -0.309 N 
HETATM    2  C   UNL     1      41.985 -15.923   0.836  1.00  0.00     0.323 C 
HETATM    3  N   UNL     1      43.045 -16.405   1.591  1.00  0.00    -0.328 N 
HETATM    4  C   UNL     1      43.766 -17.574   1.078  1.00  0.00     0.185 C 
HETATM    5  C   UNL     1      43.957 -18.509   2.226  1.00  0.00     0.035 A 
HETATM    6  C   UNL     1      43.812 -18.214   3.569  1.00  0.00    -0.020 A 
HETATM    7  C   UNL     1      43.403 -16.852   4.023  1.00  0.00     0.061 C 
HETATM    8  C   UNL     1      43.559 -15.847   2.862  1.00  0.00     0.132 C 
HETATM    9  N   UNL     1      44.289 -19.830   2.114  1.00  0.00    -0.357 N 
HETATM   10  H   UNL     1      44.440 -20.330   1.249  1.00  0.00     0.166 HD
HETATM   11  C   UNL     1      44.357 -20.401   3.369  1.00  0.00     0.043 A 
HETATM   12  C   UNL     1      44.064 -19.403   4.302  1.00  0.00    -0.001 A 
HETATM   13  C   UNL     1      44.645 -21.720   3.741  1.00  0.00     0.030 A 
HETATM   14  C   UNL     1      44.632 -22.026   5.105  1.00  0.00     0.002 A 
HETATM   15  C   UNL     1      44.346 -21.051   6.058  1.00  0.00     0.001 A 
HETATM   16  C   UNL     1      44.059 -19.737   5.670  1.00  0.00     0.014 A 
HETATM   17  O   UNL     1      41.818 -16.287  -0.325  1.00  0.00    -0.247 OA
HETATM   18  H   UNL     1      41.215 -15.107   2.519  1.00  0.00     0.170 HD
ENDROOT
BRANCH   1  19
HETATM   19  C   UNL     1      39.984 -14.439   1.018  1.00  0.00     0.037 A 
HETATM   20  C   UNL     1      38.692 -14.752   1.436  1.00  0.00     0.032 A 
HETATM   21  C   UNL     1      37.597 -14.026   0.957  1.00  0.00     0.039 A 
HETATM   22  C   UNL     1      37.786 -12.977   0.057  1.00  0.00     0.075 A 
HETATM   23  C   UNL     1      39.065 -12.712  -0.448  1.00  0.00    -0.026 A 
HETATM   24  C   UNL     1      39.297 -11.610  -1.443  1.00  0.00     0.051 C 
HETATM   25  C   UNL     1      40.158 -13.438   0.053  1.00  0.00     0.039 A 
BRANCH  22  26
HETATM   26  O   UNL     1      36.756 -12.198  -0.399  1.00  0.00    -0.346 OA
BRANCH  26  27
HETATM   27  C   UNL     1      35.969 -11.550   0.615  1.00  0.00     0.121 C 
HETATM   28  C   UNL     1      36.743 -10.413   1.282  1.00  0.00     0.040 C 
HETATM   29  C   UNL     1      34.734 -10.990  -0.087  1.00  0.00     0.040 C 
ENDBRANCH  26  27
ENDBRANCH  22  26
ENDBRANCH   1  19
TORSDOF 3
ENDMDL
MODEL 3
REMARK VINA RESULT:      -8.4      7.561     11.457
REMARK  3 active torsions:
REMARK  status: ('A' for Active; 'I' for Inactive)
REMARK    1  A    between atoms: C_3  and  O_4 
REMARK    2  A    between atoms: O_4  and  C_5 
REMARK    3  A    between atoms: C_10  and  N_11 
REMARK       I    between atoms: N_11  and  C_12 
REMARK       I    between atoms: C_12  and  N_13 
ROOT
HETATM    1  N   UNL     1      41.748 -16.333  -0.158  1.00  0.00    -0.309 N 
HETATM    2  C   UNL     1      41.626 -14.967  -0.284  1.00  0.00     0.323 C 
HETATM    3  N   UNL     1      41.173 -14.545  -1.526  1.00  0.00    -0.328 N 
HETATM    4  C   UNL     1      40.679 -13.168  -1.636  1.00  0.00     0.185 C 
HETATM    5  C   UNL     1      39.405 -13.221  -2.413  1.00  0.00     0.035 A 
HETATM    6  C   UNL     1      38.945 -14.276  -3.181  1.00  0.00    -0.020 A 
HETATM    7  C   UNL     1      39.717 -15.547  -3.293  1.00  0.00     0.061 C 
HETATM    8  C   UNL     1      41.157 -15.329  -2.782  1.00  0.00     0.132 C 
HETATM    9  N   UNL     1      38.474 -12.222  -2.462  1.00  0.00    -0.357 N 
HETATM   10  H   UNL     1      38.534 -11.335  -1.981  1.00  0.00     0.166 HD
HETATM   11  C   UNL     1      37.411 -12.614  -3.249  1.00  0.00     0.043 A 
HETATM   12  C   UNL     1      37.685 -13.902  -3.716  1.00  0.00    -0.001 A 
HETATM   13  C   UNL     1      36.231 -11.930  -3.570  1.00  0.00     0.030 A 
HETATM   14  C   UNL     1      35.307 -12.583  -4.392  1.00  0.00     0.002 A 
HETATM   15  C   UNL     1      35.554 -13.866  -4.874  1.00  0.00     0.001 A 
HETATM   16  C   UNL     1      36.737 -14.537  -4.543  1.00  0.00     0.014 A 
HETATM   17  O   UNL     1      41.848 -14.160   0.615  1.00  0.00    -0.247 OA
HETATM   18  H   UNL     1      41.242 -16.873  -0.840  1.00  0.00     0.170 HD
ENDROOT
BRANCH   1  19
HETATM   19  C   UNL     1      42.164 -17.049   0.986  1.00  0.00     0.037 A 
HETATM   20  C   UNL     1      43.300 -17.854   1.029  1.00  0.00     0.032 A 
HETATM   21  C   UNL     1      43.693 -18.462   2.226  1.00  0.00     0.039 A 
HETATM   22  C   UNL     1      42.953 -18.267   3.391  1.00  0.00     0.075 A 
HETATM   23  C   UNL     1      41.755 -17.542   3.345  1.00  0.00    -0.026 A 
HETATM   24  C   UNL     1      40.918 -17.341   4.577  1.00  0.00     0.051 C 
HETATM   25  C   UNL     1      41.381 -16.922   2.141  1.00  0.00     0.039 A 
BRANCH  22  26
HETATM   26  O   UNL     1      43.324 -18.791   4.601  1.00  0.00    -0.346 OA
BRANCH  26  27
HETATM   27  C   UNL     1      44.740 -18.928   4.813  1.00  0.00     0.121 C 
HETATM   28  C   UNL     1      45.174 -18.272   6.124  1.00  0.00     0.040 C 
HETATM   29  C   UNL     1      45.027 -20.426   4.867  1.00  0.00     0.040 C 
ENDBRANCH  26  27
ENDBRANCH  22  26
ENDBRANCH   1  19
TORSDOF 3
ENDMDL
MODEL 4
REMARK VINA RESULT:      -8.4      7.155     11.055
REMARK  3 active torsions:
REMARK  status: ('A' for Active; 'I' for Inactive)
REMARK    1  A    between atoms: C_3  and  O_4 
REMARK    2  A    between atoms: O_4  and  C_5 
REMARK    3  A    between atoms: C_10  and  N_11 
REMARK       I    between atoms: N_11  and  C_12 
REMARK       I    between atoms: C_12  and  N_13 
ROOT
HETATM    1  N   UNL     1      41.824 -13.840   0.705  1.00  0.00    -0.309 N 
HETATM    2  C   UNL     1      42.312 -14.112   1.964  1.00  0.00     0.323 C 
HETATM    3  N   UNL     1      41.964 -15.362   2.455  1.00  0.00    -0.328 N 
HETATM    4  C   UNL     1      42.718 -15.873   3.605  1.00  0.00     0.185 C 
HETATM    5  C   UNL     1      43.053 -17.298   3.311  1.00  0.00     0.035 A 
HETATM    6  C   UNL     1      42.488 -18.098   2.334  1.00  0.00    -0.020 A 
HETATM    7  C   UNL     1      41.441 -17.571   1.411  1.00  0.00     0.061 C 
HETATM    8  C   UNL     1      40.881 -16.242   1.962  1.00  0.00     0.132 C 
HETATM    9  N   UNL     1      44.005 -18.030   3.962  1.00  0.00    -0.357 N 
HETATM   10  H   UNL     1      44.594 -17.698   4.714  1.00  0.00     0.166 HD
HETATM   11  C   UNL     1      44.070 -19.297   3.420  1.00  0.00     0.043 A 
HETATM   12  C   UNL     1      43.123 -19.366   2.395  1.00  0.00    -0.001 A 
HETATM   13  C   UNL     1      44.901 -20.375   3.753  1.00  0.00     0.030 A 
HETATM   14  C   UNL     1      44.757 -21.555   3.017  1.00  0.00     0.002 A 
HETATM   15  C   UNL     1      43.820 -21.653   1.991  1.00  0.00     0.001 A 
HETATM   16  C   UNL     1      42.998 -20.567   1.669  1.00  0.00     0.014 A 
HETATM   17  O   UNL     1      43.034 -13.357   2.610  1.00  0.00    -0.247 OA
HETATM   18  H   UNL     1      41.529 -14.644   0.177  1.00  0.00     0.170 HD
ENDROOT
BRANCH   1  19
HETATM   19  C   UNL     1      42.029 -12.667  -0.053  1.00  0.00     0.037 A 
HETATM   20  C   UNL     1      42.172 -11.397   0.504  1.00  0.00     0.032 A 
HETATM   21  C   UNL     1      42.458 -10.295  -0.309  1.00  0.00     0.039 A 
HETATM   22  C   UNL     1      42.607 -10.454  -1.686  1.00  0.00     0.075 A 
HETATM   23  C   UNL     1      42.370 -11.704  -2.274  1.00  0.00    -0.026 A 
HETATM   24  C   UNL     1      42.490 -11.901  -3.759  1.00  0.00     0.051 C 
HETATM   25  C   UNL     1      42.100 -12.806  -1.445  1.00  0.00     0.039 A 
BRANCH  22  26
HETATM   26  O   UNL     1      42.943  -9.421  -2.519  1.00  0.00    -0.346 OA
BRANCH  26  27
HETATM   27  C   UNL     1      42.654  -8.103  -2.024  1.00  0.00     0.121 C 
HETATM   28  C   UNL     1      43.935  -7.346  -1.671  1.00  0.00     0.040 C 
HETATM   29  C   UNL     1      41.916  -7.372  -3.144  1.00  0.00     0.040 C 
ENDBRANCH  26  27
ENDBRANCH  22  26
ENDBRANCH   1  19
TORSDOF 3
ENDMDL
MODEL 5
REMARK VINA RESULT:      -8.4      6.786     10.729
REMARK  3 active torsions:
REMARK  status: ('A' for Active; 'I' for Inactive)
REMARK    1  A    between atoms: C_3  and  O_4 
REMARK    2  A    between atoms: O_4  and  C_5 
REMARK    3  A    between atoms: C_10  and  N_11 
REMARK       I    between atoms: N_11  and  C_12 
REMARK       I    between atoms: C_12  and  N_13 
ROOT
HETATM    1  N   UNL     1      41.918 -14.197  -1.015  1.00  0.00    -0.309 N 
HETATM    2  C   UNL     1      40.868 -14.383  -0.141  1.00  0.00     0.323 C 
HETATM    3  N   UNL     1      40.916 -15.577   0.565  1.00  0.00    -0.328 N 
HETATM    4  C   UNL     1      40.061 -15.698   1.751  1.00  0.00     0.185 C 
HETATM    5  C   UNL     1      40.896 -16.298   2.833  1.00  0.00     0.035 A 
HETATM    6  C   UNL     1      42.112 -16.938   2.683  1.00  0.00    -0.020 A 
HETATM    7  C   UNL     1      42.754 -17.080   1.344  1.00  0.00     0.061 C 
HETATM    8  C   UNL     1      41.723 -16.774   0.237  1.00  0.00     0.132 C 
HETATM    9  N   UNL     1      40.585 -16.280   4.163  1.00  0.00    -0.357 N 
HETATM   10  H   UNL     1      39.762 -15.861   4.572  1.00  0.00     0.166 HD
HETATM   11  C   UNL     1      41.586 -16.899   4.884  1.00  0.00     0.043 A 
HETATM   12  C   UNL     1      42.558 -17.325   3.974  1.00  0.00    -0.001 A 
HETATM   13  C   UNL     1      41.706 -17.101   6.265  1.00  0.00     0.030 A 
HETATM   14  C   UNL     1      42.851 -17.757   6.727  1.00  0.00     0.002 A 
HETATM   15  C   UNL     1      43.835 -18.194   5.843  1.00  0.00     0.001 A 
HETATM   16  C   UNL     1      43.702 -17.984   4.466  1.00  0.00     0.014 A 
HETATM   17  O   UNL     1      39.972 -13.566   0.056  1.00  0.00    -0.247 OA
HETATM   18  H   UNL     1      42.723 -14.776  -0.846  1.00  0.00     0.170 HD
ENDROOT
BRANCH   1  19
HETATM   19  C   UNL     1      42.145 -13.079  -1.846  1.00  0.00     0.037 A 
HETATM   20  C   UNL     1      41.743 -13.007  -3.179  1.00  0.00     0.032 A 
HETATM   21  C   UNL     1      41.930 -11.830  -3.912  1.00  0.00     0.039 A 
HETATM   22  C   UNL     1      42.518 -10.715  -3.317  1.00  0.00     0.075 A 
HETATM   23  C   UNL     1      43.016 -10.801  -2.010  1.00  0.00    -0.026 A 
HETATM   24  C   UNL     1      43.683  -9.626  -1.352  1.00  0.00     0.051 C 
HETATM   25  C   UNL     1      42.807 -11.982  -1.279  1.00  0.00     0.039 A 
BRANCH  22  26
HETATM   26  O   UNL     1      42.672  -9.521  -3.971  1.00  0.00    -0.346 OA
BRANCH  26  27
HETATM   27  C   UNL     1      41.860  -9.345  -5.145  1.00  0.00     0.121 C 
HETATM   28  C   UNL     1      40.663  -8.436  -4.865  1.00  0.00     0.040 C 
HETATM   29  C   UNL     1      42.759  -8.703  -6.200  1.00  0.00     0.040 C 
ENDBRANCH  26  27
ENDBRANCH  22  26
ENDBRANCH   1  19
TORSDOF 3
ENDMDL
MODEL 6
REMARK VINA RESULT:      -8.3      3.200      4.361
REMARK  3 active torsions:
REMARK  status: ('A' for Active; 'I' for Inactive)
REMARK    1  A    between atoms: C_3  and  O_4 
REMARK    2  A    between atoms: O_4  and  C_5 
REMARK    3  A    between atoms: C_10  and  N_11 
REMARK       I    between atoms: N_11  and  C_12 
REMARK       I    between atoms: C_12  and  N_13 
ROOT
HETATM    1  N   UNL     1      41.657 -15.669   4.081  1.00  0.00    -0.309 N 
HETATM    2  C   UNL     1      42.102 -14.383   3.868  1.00  0.00     0.323 C 
HETATM    3  N   UNL     1      41.217 -13.396   4.281  1.00  0.00    -0.328 N 
HETATM    4  C   UNL     1      41.741 -12.033   4.424  1.00  0.00     0.185 C 
HETATM    5  C   UNL     1      41.222 -11.499   5.719  1.00  0.00     0.035 A 
HETATM    6  C   UNL     1      40.185 -12.018   6.473  1.00  0.00    -0.020 A 
HETATM    7  C   UNL     1      39.458 -13.249   6.049  1.00  0.00     0.061 C 
HETATM    8  C   UNL     1      39.775 -13.558   4.570  1.00  0.00     0.132 C 
HETATM    9  N   UNL     1      41.721 -10.409   6.373  1.00  0.00    -0.357 N 
HETATM   10  H   UNL     1      42.497  -9.839   6.065  1.00  0.00     0.166 HD
HETATM   11  C   UNL     1      41.026 -10.212   7.548  1.00  0.00     0.043 A 
HETATM   12  C   UNL     1      40.051 -11.210   7.633  1.00  0.00    -0.001 A 
HETATM   13  C   UNL     1      41.195  -9.238   8.540  1.00  0.00     0.030 A 
HETATM   14  C   UNL     1      40.343  -9.285   9.648  1.00  0.00     0.002 A 
HETATM   15  C   UNL     1      39.361 -10.267   9.757  1.00  0.00     0.001 A 
HETATM   16  C   UNL     1      39.205 -11.235   8.759  1.00  0.00     0.014 A 
HETATM   17  O   UNL     1      43.198 -14.092   3.396  1.00  0.00    -0.247 OA
HETATM   18  H   UNL     1      40.909 -15.759   4.747  1.00  0.00     0.170 HD
ENDROOT
BRANCH   1  19
HETATM   19  C   UNL     1      42.343 -16.867   3.783  1.00  0.00     0.037 A 
HETATM   20  C   UNL     1      42.244 -17.537   2.565  1.00  0.00     0.032 A 
HETATM   21  C   UNL     1      43.022 -18.673   2.316  1.00  0.00     0.039 A 
HETATM   22  C   UNL     1      43.909 -19.145   3.283  1.00  0.00     0.075 A 
HETATM   23  C   UNL     1      43.951 -18.543   4.547  1.00  0.00    -0.026 A 
HETATM   24  C   UNL     1      44.873 -19.048   5.621  1.00  0.00     0.051 C 
HETATM   25  C   UNL     1      43.177 -17.394   4.779  1.00  0.00     0.039 A 
BRANCH  22  26
HETATM   26  O   UNL     1      44.735 -20.217   3.070  1.00  0.00    -0.346 OA
BRANCH  26  27
HETATM   27  C   UNL     1      44.079 -21.485   2.901  1.00  0.00     0.121 C 
HETATM   28  C   UNL     1      44.251 -22.017   1.478  1.00  0.00     0.040 C 
HETATM   29  C   UNL     1      44.731 -22.446   3.892  1.00  0.00     0.040 C 
ENDBRANCH  26  27
ENDBRANCH  22  26
ENDBRANCH   1  19
TORSDOF 3
ENDMDL
MODEL 7
REMARK VINA RESULT:      -8.2      6.825      9.929
REMARK  3 active torsions:
REMARK  status: ('A' for Active; 'I' for Inactive)
REMARK    1  A    between atoms: C_3  and  O_4 
REMARK    2  A    between atoms: O_4  and  C_5 
REMARK    3  A    between atoms: C_10  and  N_11 
REMARK       I    between atoms: N_11  and  C_12 
REMARK       I    between atoms: C_12  and  N_13 
ROOT
HETATM    1  N   UNL     1      42.235 -16.033   2.222  1.00  0.00    -0.309 N 
HETATM    2  C   UNL     1      41.448 -16.103   1.092  1.00  0.00     0.323 C 
HETATM    3  N   UNL     1      40.980 -14.875   0.645  1.00  0.00    -0.328 N 
HETATM    4  C   UNL     1      40.449 -14.809  -0.721  1.00  0.00     0.185 C 
HETATM    5  C   UNL     1      41.021 -13.583  -1.354  1.00  0.00     0.035 A 
HETATM    6  C   UNL     1      41.639 -12.528  -0.708  1.00  0.00    -0.020 A 
HETATM    7  C   UNL     1      41.823 -12.526   0.773  1.00  0.00     0.061 C 
HETATM    8  C   UNL     1      40.927 -13.610   1.410  1.00  0.00     0.132 C 
HETATM    9  N   UNL     1      41.038 -13.329  -2.696  1.00  0.00    -0.357 N 
HETATM   10  H   UNL     1      40.672 -13.936  -3.417  1.00  0.00     0.166 HD
HETATM   11  C   UNL     1      41.663 -12.123  -2.934  1.00  0.00     0.043 A 
HETATM   12  C   UNL     1      42.048 -11.597  -1.698  1.00  0.00    -0.001 A 
HETATM   13  C   UNL     1      41.924 -11.470  -4.145  1.00  0.00     0.030 A 
HETATM   14  C   UNL     1      42.596 -10.245  -4.090  1.00  0.00     0.002 A 
HETATM   15  C   UNL     1      42.989  -9.695  -2.872  1.00  0.00     0.001 A 
HETATM   16  C   UNL     1      42.723 -10.361  -1.669  1.00  0.00     0.014 A 
HETATM   17  O   UNL     1      41.197 -17.137   0.480  1.00  0.00    -0.247 OA
HETATM   18  H   UNL     1      42.612 -15.124   2.425  1.00  0.00     0.170 HD
ENDROOT
BRANCH   1  19
HETATM   19  C   UNL     1      42.862 -17.108   2.889  1.00  0.00     0.037 A 
HETATM   20  C   UNL     1      43.123 -18.343   2.299  1.00  0.00     0.032 A 
HETATM   21  C   UNL     1      43.826 -19.328   3.001  1.00  0.00     0.039 A 
HETATM   22  C   UNL     1      44.277 -19.085   4.298  1.00  0.00     0.075 A 
HETATM   23  C   UNL     1      43.939 -17.886   4.941  1.00  0.00    -0.026 A 
HETATM   24  C   UNL     1      44.382 -17.607   6.350  1.00  0.00     0.051 C 
HETATM   25  C   UNL     1      43.247 -16.899   4.220  1.00  0.00     0.039 A 
BRANCH  22  26
HETATM   26  O   UNL     1      45.018 -19.991   5.008  1.00  0.00    -0.346 OA
BRANCH  26  27
HETATM   27  C   UNL     1      44.371 -21.246   5.281  1.00  0.00     0.121 C 
HETATM   28  C   UNL     1      45.340 -22.419   5.128  1.00  0.00     0.040 C 
HETATM   29  C   UNL     1      43.874 -21.173   6.723  1.00  0.00     0.040 C 
ENDBRANCH  26  27
ENDBRANCH  22  26
ENDBRANCH   1  19
TORSDOF 3
ENDMDL
MODEL 8
REMARK VINA RESULT:      -8.2      7.274     11.219
REMARK  3 active torsions:
REMARK  status: ('A' for Active; 'I' for Inactive)
REMARK    1  A    between atoms: C_3  and  O_4 
REMARK    2  A    between atoms: O_4  and  C_5 
REMARK    3  A    between atoms: C_10  and  N_11 
REMARK       I    between atoms: N_11  and  C_12 
REMARK       I    between atoms: C_12  and  N_13 
ROOT
HETATM    1  N   UNL     1      41.489 -13.758   0.120  1.00  0.00    -0.309 N 
HETATM    2  C   UNL     1      41.946 -13.889   1.414  1.00  0.00     0.323 C 
HETATM    3  N   UNL     1      41.646 -15.109   2.005  1.00  0.00    -0.328 N 
HETATM    4  C   UNL     1      42.384 -15.472   3.220  1.00  0.00     0.185 C 
HETATM    5  C   UNL     1      42.805 -16.897   3.067  1.00  0.00     0.035 A 
HETATM    6  C   UNL     1      42.320 -17.810   2.149  1.00  0.00    -0.020 A 
HETATM    7  C   UNL     1      41.280 -17.428   1.150  1.00  0.00     0.061 C 
HETATM    8  C   UNL     1      40.631 -16.089   1.560  1.00  0.00     0.132 C 
HETATM    9  N   UNL     1      43.770 -17.513   3.812  1.00  0.00    -0.357 N 
HETATM   10  H   UNL     1      44.312 -17.083   4.548  1.00  0.00     0.166 HD
HETATM   11  C   UNL     1      43.923 -18.817   3.389  1.00  0.00     0.043 A 
HETATM   12  C   UNL     1      43.019 -19.030   2.345  1.00  0.00    -0.001 A 
HETATM   13  C   UNL     1      44.797 -19.813   3.844  1.00  0.00     0.030 A 
HETATM   14  C   UNL     1      44.743 -21.060   3.214  1.00  0.00     0.002 A 
HETATM   15  C   UNL     1      43.851 -21.301   2.172  1.00  0.00     0.001 A 
HETATM   16  C   UNL     1      42.984 -20.296   1.727  1.00  0.00     0.014 A 
HETATM   17  O   UNL     1      42.602 -13.041   2.012  1.00  0.00    -0.247 OA
HETATM   18  H   UNL     1      41.257 -14.621  -0.341  1.00  0.00     0.170 HD
ENDROOT
BRANCH   1  19
HETATM   19  C   UNL     1      41.659 -12.647  -0.733  1.00  0.00     0.037 A 
HETATM   20  C   UNL     1      42.806 -12.416  -1.490  1.00  0.00     0.032 A 
HETATM   21  C   UNL     1      42.864 -11.336  -2.378  1.00  0.00     0.039 A 
HETATM   22  C   UNL     1      41.772 -10.480  -2.519  1.00  0.00     0.075 A 
HETATM   23  C   UNL     1      40.649 -10.639  -1.696  1.00  0.00    -0.026 A 
HETATM   24  C   UNL     1      39.469  -9.714  -1.801  1.00  0.00     0.051 C 
HETATM   25  C   UNL     1      40.597 -11.737  -0.821  1.00  0.00     0.039 A 
BRANCH  22  26
HETATM   26  O   UNL     1      41.754  -9.444  -3.413  1.00  0.00    -0.346 OA
BRANCH  26  27
HETATM   27  C   UNL     1      41.998  -9.801  -4.785  1.00  0.00     0.121 C 
HETATM   28  C   UNL     1      40.732 -10.332  -5.458  1.00  0.00     0.040 C 
HETATM   29  C   UNL     1      42.459  -8.526  -5.488  1.00  0.00     0.040 C 
ENDBRANCH  26  27
ENDBRANCH  22  26
ENDBRANCH   1  19
TORSDOF 3
ENDMDL
MODEL 9
REMARK VINA RESULT:      -8.1      2.439      3.192
REMARK  3 active torsions:
REMARK  status: ('A' for Active; 'I' for Inactive)
REMARK    1  A    between atoms: C_3  and  O_4 
REMARK    2  A    between atoms: O_4  and  C_5 
REMARK    3  A    between atoms: C_10  and  N_11 
REMARK       I    between atoms: N_11  and  C_12 
REMARK       I    between atoms: C_12  and  N_13 
ROOT
HETATM    1  N   UNL     1      40.273 -13.014   6.387  1.00  0.00    -0.309 N 
HETATM    2  C   UNL     1      41.099 -11.918   6.515  1.00  0.00     0.323 C 
HETATM    3  N   UNL     1      40.769 -11.073   7.565  1.00  0.00    -0.328 N 
HETATM    4  C   UNL     1      41.779 -10.099   7.994  1.00  0.00     0.185 C 
HETATM    5  C   UNL     1      41.820 -10.139   9.486  1.00  0.00     0.035 A 
HETATM    6  C   UNL     1      40.878 -10.702  10.326  1.00  0.00    -0.020 A 
HETATM    7  C   UNL     1      39.666 -11.385   9.786  1.00  0.00     0.061 C 
HETATM    8  C   UNL     1      39.484 -11.021   8.297  1.00  0.00     0.132 C 
HETATM    9  N   UNL     1      42.829  -9.634  10.256  1.00  0.00    -0.357 N 
HETATM   10  H   UNL     1      43.664  -9.179   9.912  1.00  0.00     0.166 HD
HETATM   11  C   UNL     1      42.558  -9.864  11.589  1.00  0.00     0.043 A 
HETATM   12  C   UNL     1      41.333 -10.533  11.660  1.00  0.00    -0.001 A 
HETATM   13  C   UNL     1      43.308  -9.541  12.727  1.00  0.00     0.030 A 
HETATM   14  C   UNL     1      42.790  -9.913  13.972  1.00  0.00     0.002 A 
HETATM   15  C   UNL     1      41.570 -10.578  14.073  1.00  0.00     0.001 A 
HETATM   16  C   UNL     1      40.833 -10.895  12.926  1.00  0.00     0.014 A 
HETATM   17  O   UNL     1      42.078 -11.696   5.807  1.00  0.00    -0.247 OA
HETATM   18  H   UNL     1      39.727 -13.235   7.202  1.00  0.00     0.170 HD
ENDROOT
BRANCH   1  19
HETATM   19  C   UNL     1      40.373 -14.048   5.432  1.00  0.00     0.037 A 
HETATM   20  C   UNL     1      39.974 -13.919   4.102  1.00  0.00     0.032 A 
HETATM   21  C   UNL     1      40.185 -14.963   3.195  1.00  0.00     0.039 A 
HETATM   22  C   UNL     1      40.800 -16.144   3.610  1.00  0.00     0.075 A 
HETATM   23  C   UNL     1      41.118 -16.329   4.962  1.00  0.00    -0.026 A 
HETATM   24  C   UNL     1      41.752 -17.602   5.446  1.00  0.00     0.051 C 
HETATM   25  C   UNL     1      40.917 -15.267   5.859  1.00  0.00     0.039 A 
BRANCH  22  26
HETATM   26  O   UNL     1      41.082 -17.174   2.752  1.00  0.00    -0.346 OA
BRANCH  26  27
HETATM   27  C   UNL     1      42.159 -16.938   1.829  1.00  0.00     0.121 C 
HETATM   28  C   UNL     1      43.191 -18.065   1.875  1.00  0.00     0.040 C 
HETATM   29  C   UNL     1      41.531 -16.871   0.439  1.00  0.00     0.040 C 
ENDBRANCH  26  27
ENDBRANCH  22  26
ENDBRANCH   1  19
TORSDOF 3
ENDMDL
MODEL 10
REMARK VINA RESULT:      -7.9      6.498     10.364
REMARK  3 active torsions:
REMARK  status: ('A' for Active; 'I' for Inactive)
REMARK    1  A    between atoms: C_3  and  O_4 
REMARK    2  A    between atoms: O_4  and  C_5 
REMARK    3  A    between atoms: C_10  and  N_11 
REMARK       I    between atoms: N_11  and  C_12 
REMARK       I    between atoms: C_12  and  N_13 
ROOT
HETATM    1  N   UNL     1      41.159 -15.235  -0.449  1.00  0.00    -0.309 N 
HETATM    2  C   UNL     1      40.686 -14.970   0.818  1.00  0.00     0.323 C 
HETATM    3  N   UNL     1      40.764 -16.044   1.694  1.00  0.00    -0.328 N 
HETATM    4  C   UNL     1      40.625 -15.762   3.127  1.00  0.00     0.185 C 
HETATM    5  C   UNL     1      41.698 -16.527   3.829  1.00  0.00     0.035 A 
HETATM    6  C   UNL     1      42.452 -17.563   3.310  1.00  0.00    -0.020 A 
HETATM    7  C   UNL     1      42.269 -18.028   1.905  1.00  0.00     0.061 C 
HETATM    8  C   UNL     1      40.945 -17.470   1.341  1.00  0.00     0.132 C 
HETATM    9  N   UNL     1      42.116 -16.295   5.109  1.00  0.00    -0.357 N 
HETATM   10  H   UNL     1      41.756 -15.582   5.728  1.00  0.00     0.166 HD
HETATM   11  C   UNL     1      43.138 -17.165   5.430  1.00  0.00     0.043 A 
HETATM   12  C   UNL     1      43.366 -17.976   4.315  1.00  0.00    -0.001 A 
HETATM   13  C   UNL     1      43.878 -17.284   6.613  1.00  0.00     0.030 A 
HETATM   14  C   UNL     1      44.878 -18.260   6.657  1.00  0.00     0.002 A 
HETATM   15  C   UNL     1      45.126 -19.084   5.562  1.00  0.00     0.001 A 
HETATM   16  C   UNL     1      44.379 -18.952   4.385  1.00  0.00     0.014 A 
HETATM   17  O   UNL     1      40.265 -13.878   1.192  1.00  0.00    -0.247 OA
HETATM   18  H   UNL     1      41.752 -16.044  -0.524  1.00  0.00     0.170 HD
ENDROOT
BRANCH   1  19
HETATM   19  C   UNL     1      41.224 -14.339  -1.537  1.00  0.00     0.037 A 
HETATM   20  C   UNL     1      40.517 -14.507  -2.726  1.00  0.00     0.032 A 
HETATM   21  C   UNL     1      40.568 -13.529  -3.726  1.00  0.00     0.039 A 
HETATM   22  C   UNL     1      41.326 -12.373  -3.542  1.00  0.00     0.075 A 
HETATM   23  C   UNL     1      42.120 -12.232  -2.396  1.00  0.00    -0.026 A 
HETATM   24  C   UNL     1      42.972 -11.013  -2.184  1.00  0.00     0.051 C 
HETATM   25  C   UNL     1      42.046 -13.213  -1.393  1.00  0.00     0.039 A 
BRANCH  22  26
HETATM   26  O   UNL     1      41.366 -11.359  -4.462  1.00  0.00    -0.346 OA
BRANCH  26  27
HETATM   27  C   UNL     1      40.106 -10.728  -4.748  1.00  0.00     0.121 C 
HETATM   28  C   UNL     1      39.805  -9.606  -3.753  1.00  0.00     0.040 C 
HETATM   29  C   UNL     1      40.221 -10.150  -6.157  1.00  0.00     0.040 C 
ENDBRANCH  26  27
ENDBRANCH  22  26
ENDBRANCH   1  19
TORSDOF 3
ENDMDL
