MODEL 1
REMARK VINA RESULT:      -9.2      0.000      0.000
REMARK  5 active torsions:
REMARK  status: ('A' for Active; 'I' for Inactive)
REMARK    1  A    between atoms: C_2  and  N_3 
REMARK       I    between atoms: N_3  and  C_4 
REMARK       I    between atoms: C_4  and  N_5 
REMARK    2  A    between atoms: N_5  and  C_6 
REMARK    3  A    between atoms: C_9  and  C_10 
REMARK    4  A    between atoms: C_10  and  C_11 
REMARK       I    between atoms: C_11  and  N_12 
REMARK    5  A    between atoms: N_12  and  C_13 
ROOT
HETATM    1  C   UNL     1      42.506 -13.682   5.491  1.00  0.00     0.174 A 
HETATM    2  S   UNL     1      40.848 -13.764   5.878  1.00  0.00    -0.062 SA
HETATM    3  C   UNL     1      40.546 -14.468   4.340  1.00  0.00     0.081 A 
HETATM    4  C   UNL     1      41.734 -14.612   3.643  1.00  0.00     0.052 A 
HETATM    5  N   UNL     1      42.856 -14.157   4.323  1.00  0.00    -0.228 NA
ENDROOT
BRANCH   1   6
HETATM    6  N   UNL     1      43.295 -13.149   6.469  1.00  0.00    -0.287 N 
HETATM    7  C   UNL     1      44.273 -13.876   7.076  1.00  0.00     0.326 C 
HETATM    8  N   UNL     1      44.929 -13.273   8.115  1.00  0.00    -0.309 N 
HETATM    9  O   UNL     1      44.671 -14.983   6.717  1.00  0.00    -0.247 OA
HETATM   10  H   UNL     1      45.798 -13.751   8.326  1.00  0.00     0.170 HD
HETATM   11  H   UNL     1      43.310 -12.147   6.557  1.00  0.00     0.172 HD
BRANCH   8  12
HETATM   12  C   UNL     1      44.555 -12.237   8.988  1.00  0.00     0.036 A 
HETATM   13  C   UNL     1      43.400 -11.463   8.834  1.00  0.00     0.032 A 
HETATM   14  C   UNL     1      43.081 -10.479   9.776  1.00  0.00     0.044 A 
HETATM   15  C   UNL     1      43.909 -10.280  10.874  1.00  0.00     0.116 A 
HETATM   16  C   UNL     1      45.046 -11.055  11.055  1.00  0.00     0.044 A 
HETATM   17  F   UNL     1      43.595  -9.343  11.777  1.00  0.00    -0.206 F 
HETATM   18  C   UNL     1      45.363 -12.039  10.117  1.00  0.00     0.032 A 
ENDBRANCH   8  12
ENDBRANCH   1   6
BRANCH   4  19
HETATM   19  C   UNL     1      41.920 -15.237   2.300  1.00  0.00     0.163 C 
BRANCH  19  20
HETATM   20  C   UNL     1      42.226 -16.728   2.336  1.00  0.00     0.227 C 
HETATM   21  N   UNL     1      43.376 -17.065   3.025  1.00  0.00    -0.327 N 
HETATM   22  H   UNL     1      43.999 -16.285   3.261  1.00  0.00     0.169 HD
HETATM   23  O   UNL     1      41.430 -17.524   1.839  1.00  0.00    -0.273 OA
BRANCH  21  24
HETATM   24  C   UNL     1      43.832 -18.353   3.368  1.00  0.00     0.036 A 
HETATM   25  C   UNL     1      43.906 -19.422   2.472  1.00  0.00     0.055 A 
HETATM   26  C   UNL     1      44.343 -20.682   2.902  1.00  0.00     0.058 A 
HETATM   27 CL   UNL     1      44.387 -21.961   1.737  1.00  0.00    -0.082 Cl
HETATM   28  C   UNL     1      44.718 -20.879   4.235  1.00  0.00     0.055 A 
HETATM   29 CL   UNL     1      45.265 -22.405   4.835  1.00  0.00    -0.083 Cl
HETATM   30  C   UNL     1      44.648 -19.816   5.134  1.00  0.00     0.028 A 
HETATM   31  C   UNL     1      44.202 -18.563   4.701  1.00  0.00     0.031 A 
ENDBRANCH  21  24
ENDBRANCH  19  20
ENDBRANCH   4  19
TORSDOF 5
ENDMDL
MODEL 2
REMARK VINA RESULT:      -9.1      5.752      8.569
REMARK  5 active torsions:
REMARK  status: ('A' for Active; 'I' for Inactive)
REMARK    1  A    between atoms: C_2  and  N_3 
REMARK       I    between atoms: N_3  and  C_4 
REMARK       I    between atoms: C_4  and  N_5 
REMARK    2  A    between atoms: N_5  and  C_6 
REMARK    3  A    between atoms: C_9  and  C_10 
REMARK    4  A    between atoms: C_10  and  C_11 
REMARK       I    between atoms: C_11  and  N_12 
REMARK    5  A    between atoms: N_12  and  C_13 
ROOT
HETATM    1  C   UNL     1      42.284 -16.512   4.985  1.00  0.00     0.174 A 
HETATM    2  S   UNL     1      41.069 -16.411   6.177  1.00  0.00    -0.062 SA
HETATM    3  C   UNL     1      40.796 -14.775   5.731  1.00  0.00     0.081 A 
HETATM    4  C   UNL     1      41.635 -14.421   4.688  1.00  0.00     0.052 A 
HETATM    5  N   UNL     1      42.485 -15.436   4.267  1.00  0.00    -0.228 NA
ENDROOT
BRANCH   1   6
HETATM    6  N   UNL     1      42.896 -17.728   4.893  1.00  0.00    -0.287 N 
HETATM    7  C   UNL     1      44.081 -17.982   5.513  1.00  0.00     0.326 C 
HETATM    8  N   UNL     1      44.653 -19.200   5.264  1.00  0.00    -0.309 N 
HETATM    9  O   UNL     1      44.629 -17.253   6.338  1.00  0.00    -0.247 OA
HETATM   10  H   UNL     1      45.364 -19.418   5.953  1.00  0.00     0.170 HD
HETATM   11  H   UNL     1      42.340 -18.503   4.572  1.00  0.00     0.172 HD
BRANCH   8  12
HETATM   12  C   UNL     1      44.527 -20.095   4.188  1.00  0.00     0.036 A 
HETATM   13  C   UNL     1      44.730 -21.475   4.290  1.00  0.00     0.032 A 
HETATM   14  C   UNL     1      44.540 -22.299   3.176  1.00  0.00     0.044 A 
HETATM   15  C   UNL     1      44.135 -21.744   1.967  1.00  0.00     0.116 A 
HETATM   16  C   UNL     1      43.906 -20.381   1.854  1.00  0.00     0.044 A 
HETATM   17  F   UNL     1      43.947 -22.538   0.906  1.00  0.00    -0.206 F 
HETATM   18  C   UNL     1      44.093 -19.558   2.967  1.00  0.00     0.032 A 
ENDBRANCH   8  12
ENDBRANCH   1   6
BRANCH   4  19
HETATM   19  C   UNL     1      41.673 -13.115   3.966  1.00  0.00     0.163 C 
BRANCH  19  20
HETATM   20  C   UNL     1      41.723 -13.235   2.449  1.00  0.00     0.227 C 
HETATM   21  N   UNL     1      40.778 -14.085   1.905  1.00  0.00    -0.327 N 
HETATM   22  H   UNL     1      40.286 -14.689   2.572  1.00  0.00     0.169 HD
HETATM   23  O   UNL     1      42.514 -12.543   1.809  1.00  0.00    -0.273 OA
BRANCH  21  24
HETATM   24  C   UNL     1      40.470 -14.279   0.544  1.00  0.00     0.036 A 
HETATM   25  C   UNL     1      39.409 -13.655  -0.115  1.00  0.00     0.055 A 
HETATM   26  C   UNL     1      39.152 -13.926  -1.466  1.00  0.00     0.058 A 
HETATM   27 CL   UNL     1      37.806 -13.130  -2.207  1.00  0.00    -0.082 Cl
HETATM   28  C   UNL     1      39.964 -14.822  -2.170  1.00  0.00     0.055 A 
HETATM   29 CL   UNL     1      39.706 -15.204  -3.836  1.00  0.00    -0.083 Cl
HETATM   30  C   UNL     1      41.026 -15.446  -1.518  1.00  0.00     0.028 A 
HETATM   31  C   UNL     1      41.272 -15.179  -0.168  1.00  0.00     0.031 A 
ENDBRANCH  21  24
ENDBRANCH  19  20
ENDBRANCH   4  19
TORSDOF 5
ENDMDL
MODEL 3
REMARK VINA RESULT:      -9.0      5.649     10.254
REMARK  5 active torsions:
REMARK  status: ('A' for Active; 'I' for Inactive)
REMARK    1  A    between atoms: C_2  and  N_3 
REMARK       I    between atoms: N_3  and  C_4 
REMARK       I    between atoms: C_4  and  N_5 
REMARK    2  A    between atoms: N_5  and  C_6 
REMARK    3  A    between atoms: C_9  and  C_10 
REMARK    4  A    between atoms: C_10  and  C_11 
REMARK       I    between atoms: C_11  and  N_12 
REMARK    5  A    between atoms: N_12  and  C_13 
ROOT
HETATM    1  C   UNL     1      43.458 -14.928   6.044  1.00  0.00     0.174 A 
HETATM    2  S   UNL     1      42.517 -13.599   5.538  1.00  0.00    -0.062 SA
HETATM    3  C   UNL     1      43.339 -12.610   6.677  1.00  0.00     0.081 A 
HETATM    4  C   UNL     1      44.290 -13.355   7.353  1.00  0.00     0.052 A 
HETATM    5  N   UNL     1      44.348 -14.690   6.972  1.00  0.00    -0.228 NA
ENDROOT
BRANCH   1   6
HETATM    6  N   UNL     1      43.191 -16.097   5.393  1.00  0.00    -0.287 N 
HETATM    7  C   UNL     1      42.213 -16.945   5.814  1.00  0.00     0.326 C 
HETATM    8  N   UNL     1      42.107 -18.137   5.149  1.00  0.00    -0.309 N 
HETATM    9  O   UNL     1      41.369 -16.695   6.673  1.00  0.00    -0.247 OA
HETATM   10  H   UNL     1      41.212 -18.577   5.327  1.00  0.00     0.170 HD
HETATM   11  H   UNL     1      43.556 -16.201   4.461  1.00  0.00     0.172 HD
BRANCH   8  12
HETATM   12  C   UNL     1      43.037 -18.884   4.406  1.00  0.00     0.036 A 
HETATM   13  C   UNL     1      44.056 -19.654   4.976  1.00  0.00     0.032 A 
HETATM   14  C   UNL     1      44.912 -20.403   4.162  1.00  0.00     0.044 A 
HETATM   15  C   UNL     1      44.741 -20.390   2.783  1.00  0.00     0.116 A 
HETATM   16  C   UNL     1      43.721 -19.649   2.201  1.00  0.00     0.044 A 
HETATM   17  F   UNL     1      45.558 -21.114   2.008  1.00  0.00    -0.206 F 
HETATM   18  C   UNL     1      42.864 -18.904   3.014  1.00  0.00     0.032 A 
ENDBRANCH   8  12
ENDBRANCH   1   6
BRANCH   4  19
HETATM   19  C   UNL     1      45.260 -12.863   8.376  1.00  0.00     0.163 C 
BRANCH  19  20
HETATM   20  C   UNL     1      44.751 -11.703   9.220  1.00  0.00     0.227 C 
HETATM   21  N   UNL     1      43.673 -12.008  10.031  1.00  0.00    -0.327 N 
HETATM   22  H   UNL     1      43.208 -12.901   9.837  1.00  0.00     0.169 HD
HETATM   23  O   UNL     1      45.345 -10.626   9.195  1.00  0.00    -0.273 OA
BRANCH  21  24
HETATM   24  C   UNL     1      43.089 -11.206  11.031  1.00  0.00     0.036 A 
HETATM   25  C   UNL     1      41.718 -10.966  11.141  1.00  0.00     0.055 A 
HETATM   26  C   UNL     1      41.220 -10.129  12.149  1.00  0.00     0.058 A 
HETATM   27 CL   UNL     1      39.512  -9.865  12.207  1.00  0.00    -0.082 Cl
HETATM   28  C   UNL     1      42.096  -9.529  13.060  1.00  0.00     0.055 A 
HETATM   29 CL   UNL     1      41.554  -8.485  14.327  1.00  0.00    -0.083 Cl
HETATM   30  C   UNL     1      43.466  -9.765  12.956  1.00  0.00     0.028 A 
HETATM   31  C   UNL     1      43.957 -10.594  11.943  1.00  0.00     0.031 A 
ENDBRANCH  21  24
ENDBRANCH  19  20
ENDBRANCH   4  19
TORSDOF 5
ENDMDL
MODEL 4
REMARK VINA RESULT:      -9.0      1.848      2.238
REMARK  5 active torsions:
REMARK  status: ('A' for Active; 'I' for Inactive)
REMARK    1  A    between atoms: C_2  and  N_3 
REMARK       I    between atoms: N_3  and  C_4 
REMARK       I    between atoms: C_4  and  N_5 
REMARK    2  A    between atoms: N_5  and  C_6 
REMARK    3  A    between atoms: C_9  and  C_10 
REMARK    4  A    between atoms: C_10  and  C_11 
REMARK       I    between atoms: C_11  and  N_12 
REMARK    5  A    between atoms: N_12  and  C_13 
ROOT
HETATM    1  C   UNL     1      41.094 -12.910   5.765  1.00  0.00     0.174 A 
HETATM    2  S   UNL     1      39.467 -13.228   5.366  1.00  0.00    -0.062 SA
HETATM    3  C   UNL     1      40.000 -14.165   4.029  1.00  0.00     0.081 A 
HETATM    4  C   UNL     1      41.384 -14.189   3.989  1.00  0.00     0.052 A 
HETATM    5  N   UNL     1      42.000 -13.463   5.000  1.00  0.00    -0.228 NA
ENDROOT
BRANCH   1   6
HETATM    6  N   UNL     1      41.269 -12.127   6.870  1.00  0.00    -0.287 N 
HETATM    7  C   UNL     1      41.582 -10.806   6.770  1.00  0.00     0.326 C 
HETATM    8  N   UNL     1      41.838 -10.148   7.942  1.00  0.00    -0.309 N 
HETATM    9  O   UNL     1      41.567 -10.143   5.735  1.00  0.00    -0.247 OA
HETATM   10  H   UNL     1      41.790  -9.143   7.816  1.00  0.00     0.170 HD
HETATM   11  H   UNL     1      40.920 -12.479   7.746  1.00  0.00     0.172 HD
BRANCH   8  12
HETATM   12  C   UNL     1      42.272 -10.602   9.200  1.00  0.00     0.036 A 
HETATM   13  C   UNL     1      43.591 -10.967   9.488  1.00  0.00     0.032 A 
HETATM   14  C   UNL     1      43.945 -11.366  10.780  1.00  0.00     0.044 A 
HETATM   15  C   UNL     1      42.984 -11.389  11.784  1.00  0.00     0.116 A 
HETATM   16  C   UNL     1      41.675 -11.007  11.522  1.00  0.00     0.044 A 
HETATM   17  F   UNL     1      43.329 -11.765  13.022  1.00  0.00    -0.206 F 
HETATM   18  C   UNL     1      41.322 -10.605  10.232  1.00  0.00     0.032 A 
ENDBRANCH   8  12
ENDBRANCH   1   6
BRANCH   4  19
HETATM   19  C   UNL     1      42.244 -14.941   3.027  1.00  0.00     0.163 C 
BRANCH  19  20
HETATM   20  C   UNL     1      42.305 -16.441   3.275  1.00  0.00     0.227 C 
HETATM   21  N   UNL     1      43.578 -16.981   3.247  1.00  0.00    -0.327 N 
HETATM   22  H   UNL     1      44.311 -16.372   2.869  1.00  0.00     0.169 HD
HETATM   23  O   UNL     1      41.275 -17.054   3.552  1.00  0.00    -0.273 OA
BRANCH  21  24
HETATM   24  C   UNL     1      43.971 -18.288   3.595  1.00  0.00     0.036 A 
HETATM   25  C   UNL     1      44.062 -19.346   2.688  1.00  0.00     0.055 A 
HETATM   26  C   UNL     1      44.432 -20.626   3.122  1.00  0.00     0.058 A 
HETATM   27 CL   UNL     1      44.503 -21.889   1.942  1.00  0.00    -0.082 Cl
HETATM   28  C   UNL     1      44.721 -20.854   4.472  1.00  0.00     0.055 A 
HETATM   29 CL   UNL     1      45.182 -22.406   5.078  1.00  0.00    -0.083 Cl
HETATM   30  C   UNL     1      44.632 -19.802   5.382  1.00  0.00     0.028 A 
HETATM   31  C   UNL     1      44.254 -18.529   4.944  1.00  0.00     0.031 A 
ENDBRANCH  21  24
ENDBRANCH  19  20
ENDBRANCH   4  19
TORSDOF 5
ENDMDL
MODEL 5
REMARK VINA RESULT:      -8.9      5.490      8.529
REMARK  5 active torsions:
REMARK  status: ('A' for Active; 'I' for Inactive)
REMARK    1  A    between atoms: C_2  and  N_3 
REMARK       I    between atoms: N_3  and  C_4 
REMARK       I    between atoms: C_4  and  N_5 
REMARK    2  A    between atoms: N_5  and  C_6 
REMARK    3  A    between atoms: C_9  and  C_10 
REMARK    4  A    between atoms: C_10  and  C_11 
REMARK       I    between atoms: C_11  and  N_12 
REMARK    5  A    between atoms: N_12  and  C_13 
ROOT
HETATM    1  C   UNL     1      42.336 -16.068   4.762  1.00  0.00     0.174 A 
HETATM    2  S   UNL     1      41.183 -15.815   5.992  1.00  0.00    -0.062 SA
HETATM    3  C   UNL     1      41.042 -14.177   5.495  1.00  0.00     0.081 A 
HETATM    4  C   UNL     1      41.870 -13.937   4.411  1.00  0.00     0.052 A 
HETATM    5  N   UNL     1      42.606 -15.040   3.998  1.00  0.00    -0.228 NA
ENDROOT
BRANCH   1   6
HETATM    6  N   UNL     1      42.831 -17.338   4.694  1.00  0.00    -0.287 N 
HETATM    7  C   UNL     1      43.947 -17.709   5.380  1.00  0.00     0.326 C 
HETATM    8  N   UNL     1      44.411 -18.977   5.152  1.00  0.00    -0.309 N 
HETATM    9  O   UNL     1      44.515 -17.040   6.241  1.00  0.00    -0.247 OA
HETATM   10  H   UNL     1      45.055 -19.266   5.879  1.00  0.00     0.170 HD
HETATM   11  H   UNL     1      42.221 -18.053   4.334  1.00  0.00     0.172 HD
BRANCH   8  12
HETATM   12  C   UNL     1      44.261 -19.851   4.062  1.00  0.00     0.036 A 
HETATM   13  C   UNL     1      43.776 -19.463   2.809  1.00  0.00     0.032 A 
HETATM   14  C   UNL     1      43.701 -20.390   1.765  1.00  0.00     0.044 A 
HETATM   15  C   UNL     1      44.121 -21.699   1.972  1.00  0.00     0.116 A 
HETATM   16  C   UNL     1      44.626 -22.096   3.201  1.00  0.00     0.044 A 
HETATM   17  F   UNL     1      44.054 -22.581   0.967  1.00  0.00    -0.206 F 
HETATM   18  C   UNL     1      44.705 -21.169   4.243  1.00  0.00     0.032 A 
ENDBRANCH   8  12
ENDBRANCH   1   6
BRANCH   4  19
HETATM   19  C   UNL     1      41.998 -12.665   3.639  1.00  0.00     0.163 C 
BRANCH  19  20
HETATM   20  C   UNL     1      41.780 -12.813   2.140  1.00  0.00     0.227 C 
HETATM   21  N   UNL     1      40.788 -13.710   1.786  1.00  0.00    -0.327 N 
HETATM   22  H   UNL     1      40.450 -14.319   2.538  1.00  0.00     0.169 HD
HETATM   23  O   UNL     1      42.414 -12.104   1.360  1.00  0.00    -0.273 OA
BRANCH  21  24
HETATM   24  C   UNL     1      40.249 -13.942   0.506  1.00  0.00     0.036 A 
HETATM   25  C   UNL     1      40.916 -14.623  -0.513  1.00  0.00     0.055 A 
HETATM   26  C   UNL     1      40.320 -14.785  -1.772  1.00  0.00     0.058 A 
HETATM   27 CL   UNL     1      41.220 -15.622  -2.989  1.00  0.00    -0.082 Cl
HETATM   28  C   UNL     1      39.043 -14.268  -2.016  1.00  0.00     0.055 A 
HETATM   29 CL   UNL     1      38.247 -14.429  -3.541  1.00  0.00    -0.083 Cl
HETATM   30  C   UNL     1      38.371 -13.588  -1.002  1.00  0.00     0.028 A 
HETATM   31  C   UNL     1      38.974 -13.423   0.249  1.00  0.00     0.031 A 
ENDBRANCH  21  24
ENDBRANCH  19  20
ENDBRANCH   4  19
TORSDOF 5
ENDMDL
MODEL 6
REMARK VINA RESULT:      -8.8      2.953      3.709
REMARK  5 active torsions:
REMARK  status: ('A' for Active; 'I' for Inactive)
REMARK    1  A    between atoms: C_2  and  N_3 
REMARK       I    between atoms: N_3  and  C_4 
REMARK       I    between atoms: C_4  and  N_5 
REMARK    2  A    between atoms: N_5  and  C_6 
REMARK    3  A    between atoms: C_9  and  C_10 
REMARK    4  A    between atoms: C_10  and  C_11 
REMARK       I    between atoms: C_11  and  N_12 
REMARK    5  A    between atoms: N_12  and  C_13 
ROOT
HETATM    1  C   UNL     1      41.371 -10.996   6.932  1.00  0.00     0.174 A 
HETATM    2  S   UNL     1      41.232  -9.436   6.257  1.00  0.00    -0.062 SA
HETATM    3  C   UNL     1      41.360 -10.126   4.689  1.00  0.00     0.081 A 
HETATM    4  C   UNL     1      41.481 -11.502   4.785  1.00  0.00     0.052 A 
HETATM    5  N   UNL     1      41.481 -11.988   6.086  1.00  0.00    -0.228 NA
ENDROOT
BRANCH   1   6
HETATM    6  N   UNL     1      41.322 -11.035   8.295  1.00  0.00    -0.287 N 
HETATM    7  C   UNL     1      40.140 -11.025   8.971  1.00  0.00     0.326 C 
HETATM    8  N   UNL     1      40.215 -10.959  10.336  1.00  0.00    -0.309 N 
HETATM    9  O   UNL     1      39.026 -11.156   8.467  1.00  0.00    -0.247 OA
HETATM   10  H   UNL     1      39.337 -11.228  10.764  1.00  0.00     0.170 HD
HETATM   11  H   UNL     1      42.156 -11.323   8.780  1.00  0.00     0.172 HD
BRANCH   8  12
HETATM   12  C   UNL     1      41.212 -10.474  11.200  1.00  0.00     0.036 A 
HETATM   13  C   UNL     1      41.708  -9.167  11.166  1.00  0.00     0.032 A 
HETATM   14  C   UNL     1      42.670  -8.754  12.093  1.00  0.00     0.044 A 
HETATM   15  C   UNL     1      43.125  -9.645  13.059  1.00  0.00     0.116 A 
HETATM   16  C   UNL     1      42.627 -10.938  13.122  1.00  0.00     0.044 A 
HETATM   17  F   UNL     1      44.041  -9.243  13.949  1.00  0.00    -0.206 F 
HETATM   18  C   UNL     1      41.664 -11.349  12.198  1.00  0.00     0.032 A 
ENDBRANCH   8  12
ENDBRANCH   1   6
BRANCH   4  19
HETATM   19  C   UNL     1      41.553 -12.481   3.659  1.00  0.00     0.163 C 
BRANCH  19  20
HETATM   20  C   UNL     1      42.612 -13.561   3.831  1.00  0.00     0.227 C 
HETATM   21  N   UNL     1      42.122 -14.793   4.227  1.00  0.00    -0.327 N 
HETATM   22  H   UNL     1      41.150 -14.801   4.555  1.00  0.00     0.169 HD
HETATM   23  O   UNL     1      43.784 -13.316   3.547  1.00  0.00    -0.273 OA
BRANCH  21  24
HETATM   24  C   UNL     1      42.819 -16.013   4.313  1.00  0.00     0.036 A 
HETATM   25  C   UNL     1      43.007 -16.885   3.238  1.00  0.00     0.055 A 
HETATM   26  C   UNL     1      43.688 -18.098   3.415  1.00  0.00     0.058 A 
HETATM   27 CL   UNL     1      43.861 -19.133   2.040  1.00  0.00    -0.082 Cl
HETATM   28  C   UNL     1      44.193 -18.443   4.673  1.00  0.00     0.055 A 
HETATM   29 CL   UNL     1      45.041 -19.920   4.964  1.00  0.00    -0.083 Cl
HETATM   30  C   UNL     1      44.010 -17.576   5.749  1.00  0.00     0.028 A 
HETATM   31  C   UNL     1      43.323 -16.372   5.569  1.00  0.00     0.031 A 
ENDBRANCH  21  24
ENDBRANCH  19  20
ENDBRANCH   4  19
TORSDOF 5
ENDMDL
MODEL 7
REMARK VINA RESULT:      -8.7      4.664      7.734
REMARK  5 active torsions:
REMARK  status: ('A' for Active; 'I' for Inactive)
REMARK    1  A    between atoms: C_2  and  N_3 
REMARK       I    between atoms: N_3  and  C_4 
REMARK       I    between atoms: C_4  and  N_5 
REMARK    2  A    between atoms: N_5  and  C_6 
REMARK    3  A    between atoms: C_9  and  C_10 
REMARK    4  A    between atoms: C_10  and  C_11 
REMARK       I    between atoms: C_11  and  N_12 
REMARK    5  A    between atoms: N_12  and  C_13 
ROOT
HETATM    1  C   UNL     1      40.360 -13.623   2.980  1.00  0.00     0.174 A 
HETATM    2  S   UNL     1      39.809 -12.354   3.976  1.00  0.00    -0.062 SA
HETATM    3  C   UNL     1      40.593 -13.092   5.314  1.00  0.00     0.081 A 
HETATM    4  C   UNL     1      41.239 -14.247   4.907  1.00  0.00     0.052 A 
HETATM    5  N   UNL     1      41.098 -14.537   3.556  1.00  0.00    -0.228 NA
ENDROOT
BRANCH   1   6
HETATM    6  N   UNL     1      39.988 -13.525   1.670  1.00  0.00    -0.287 N 
HETATM    7  C   UNL     1      39.100 -14.393   1.111  1.00  0.00     0.326 C 
HETATM    8  N   UNL     1      38.884 -14.264  -0.235  1.00  0.00    -0.309 N 
HETATM    9  O   UNL     1      38.420 -15.215   1.721  1.00  0.00    -0.247 OA
HETATM   10  H   UNL     1      38.035 -14.741  -0.516  1.00  0.00     0.170 HD
HETATM   11  H   UNL     1      40.184 -12.659   1.197  1.00  0.00     0.172 HD
BRANCH   8  12
HETATM   12  C   UNL     1      39.672 -13.725  -1.266  1.00  0.00     0.036 A 
HETATM   13  C   UNL     1      39.736 -12.362  -1.571  1.00  0.00     0.032 A 
HETATM   14  C   UNL     1      40.582 -11.906  -2.587  1.00  0.00     0.044 A 
HETATM   15  C   UNL     1      41.370 -12.812  -3.288  1.00  0.00     0.116 A 
HETATM   16  C   UNL     1      41.337 -14.166  -2.983  1.00  0.00     0.044 A 
HETATM   17  F   UNL     1      42.184 -12.371  -4.255  1.00  0.00    -0.206 F 
HETATM   18  C   UNL     1      40.495 -14.620  -1.966  1.00  0.00     0.032 A 
ENDBRANCH   8  12
ENDBRANCH   1   6
BRANCH   4  19
HETATM   19  C   UNL     1      42.088 -15.147   5.744  1.00  0.00     0.163 C 
BRANCH  19  20
HETATM   20  C   UNL     1      42.113 -16.598   5.282  1.00  0.00     0.227 C 
HETATM   21  N   UNL     1      43.039 -16.874   4.293  1.00  0.00    -0.327 N 
HETATM   22  H   UNL     1      43.460 -16.057   3.838  1.00  0.00     0.169 HD
HETATM   23  O   UNL     1      41.395 -17.427   5.841  1.00  0.00    -0.273 OA
BRANCH  21  24
HETATM   24  C   UNL     1      43.408 -18.133   3.782  1.00  0.00     0.036 A 
HETATM   25  C   UNL     1      44.060 -19.119   4.524  1.00  0.00     0.055 A 
HETATM   26  C   UNL     1      44.421 -20.337   3.931  1.00  0.00     0.058 A 
HETATM   27 CL   UNL     1      45.244 -21.500   4.911  1.00  0.00    -0.082 Cl
HETATM   28  C   UNL     1      44.124 -20.577   2.585  1.00  0.00     0.055 A 
HETATM   29 CL   UNL     1      44.539 -22.053   1.787  1.00  0.00    -0.083 Cl
HETATM   30  C   UNL     1      43.472 -19.597   1.838  1.00  0.00     0.028 A 
HETATM   31  C   UNL     1      43.122 -18.381   2.434  1.00  0.00     0.031 A 
ENDBRANCH  21  24
ENDBRANCH  19  20
ENDBRANCH   4  19
TORSDOF 5
ENDMDL
MODEL 8
REMARK VINA RESULT:      -8.6      5.110      8.134
REMARK  5 active torsions:
REMARK  status: ('A' for Active; 'I' for Inactive)
REMARK    1  A    between atoms: C_2  and  N_3 
REMARK       I    between atoms: N_3  and  C_4 
REMARK       I    between atoms: C_4  and  N_5 
REMARK    2  A    between atoms: N_5  and  C_6 
REMARK    3  A    between atoms: C_9  and  C_10 
REMARK    4  A    between atoms: C_10  and  C_11 
REMARK       I    between atoms: C_11  and  N_12 
REMARK    5  A    between atoms: N_12  and  C_13 
ROOT
HETATM    1  C   UNL     1      40.561 -13.912   2.399  1.00  0.00     0.174 A 
HETATM    2  S   UNL     1      39.603 -12.554   2.781  1.00  0.00    -0.062 SA
HETATM    3  C   UNL     1      39.738 -12.952   4.446  1.00  0.00     0.081 A 
HETATM    4  C   UNL     1      40.522 -14.083   4.601  1.00  0.00     0.052 A 
HETATM    5  N   UNL     1      40.992 -14.622   3.410  1.00  0.00    -0.228 NA
ENDROOT
BRANCH   1   6
HETATM    6  N   UNL     1      40.796 -14.089   1.067  1.00  0.00    -0.287 N 
HETATM    7  C   UNL     1      41.695 -13.323   0.390  1.00  0.00     0.326 C 
HETATM    8  N   UNL     1      41.770 -13.519  -0.963  1.00  0.00    -0.309 N 
HETATM    9  O   UNL     1      42.497 -12.542   0.898  1.00  0.00    -0.247 OA
HETATM   10  H   UNL     1      42.625 -13.128  -1.343  1.00  0.00     0.170 HD
HETATM   11  H   UNL     1      40.484 -14.952   0.653  1.00  0.00     0.172 HD
BRANCH   8  12
HETATM   12  C   UNL     1      40.844 -14.024  -1.892  1.00  0.00     0.036 A 
HETATM   13  C   UNL     1      39.803 -13.273  -2.447  1.00  0.00     0.032 A 
HETATM   14  C   UNL     1      38.953 -13.844  -3.400  1.00  0.00     0.044 A 
HETATM   15  C   UNL     1      39.153 -15.159  -3.804  1.00  0.00     0.116 A 
HETATM   16  C   UNL     1      40.194 -15.912  -3.281  1.00  0.00     0.044 A 
HETATM   17  F   UNL     1      38.341 -15.699  -4.721  1.00  0.00    -0.206 F 
HETATM   18  C   UNL     1      41.046 -15.341  -2.332  1.00  0.00     0.032 A 
ENDBRANCH   8  12
ENDBRANCH   1   6
BRANCH   4  19
HETATM   19  C   UNL     1      40.939 -14.722   5.885  1.00  0.00     0.163 C 
BRANCH  19  20
HETATM   20  C   UNL     1      41.276 -16.202   5.772  1.00  0.00     0.227 C 
HETATM   21  N   UNL     1      42.488 -16.474   5.165  1.00  0.00    -0.327 N 
HETATM   22  H   UNL     1      42.931 -15.686   4.682  1.00  0.00     0.169 HD
HETATM   23  O   UNL     1      40.524 -17.038   6.272  1.00  0.00    -0.273 OA
BRANCH  21  24
HETATM   24  C   UNL     1      43.143 -17.717   5.061  1.00  0.00     0.036 A 
HETATM   25  C   UNL     1      43.323 -18.409   3.862  1.00  0.00     0.055 A 
HETATM   26  C   UNL     1      43.960 -19.658   3.849  1.00  0.00     0.058 A 
HETATM   27 CL   UNL     1      44.126 -20.463   2.327  1.00  0.00    -0.082 Cl
HETATM   28  C   UNL     1      44.430 -20.219   5.041  1.00  0.00     0.055 A 
HETATM   29 CL   UNL     1      45.223 -21.754   5.101  1.00  0.00    -0.083 Cl
HETATM   30  C   UNL     1      44.255 -19.532   6.241  1.00  0.00     0.028 A 
HETATM   31  C   UNL     1      43.611 -18.291   6.249  1.00  0.00     0.031 A 
ENDBRANCH  21  24
ENDBRANCH  19  20
ENDBRANCH   4  19
TORSDOF 5
ENDMDL
MODEL 9
REMARK VINA RESULT:      -8.6      4.798      8.200
REMARK  5 active torsions:
REMARK  status: ('A' for Active; 'I' for Inactive)
REMARK    1  A    between atoms: C_2  and  N_3 
REMARK       I    between atoms: N_3  and  C_4 
REMARK       I    between atoms: C_4  and  N_5 
REMARK    2  A    between atoms: N_5  and  C_6 
REMARK    3  A    between atoms: C_9  and  C_10 
REMARK    4  A    between atoms: C_10  and  C_11 
REMARK       I    between atoms: C_11  and  N_12 
REMARK    5  A    between atoms: N_12  and  C_13 
ROOT
HETATM    1  C   UNL     1      41.385 -14.081   2.463  1.00  0.00     0.174 A 
HETATM    2  S   UNL     1      39.877 -13.884   3.235  1.00  0.00    -0.062 SA
HETATM    3  C   UNL     1      40.677 -13.905   4.756  1.00  0.00     0.081 A 
HETATM    4  C   UNL     1      42.043 -14.041   4.572  1.00  0.00     0.052 A 
HETATM    5  N   UNL     1      42.435 -14.136   3.242  1.00  0.00    -0.228 NA
ENDROOT
BRANCH   1   6
HETATM    6  N   UNL     1      41.327 -14.129   1.101  1.00  0.00    -0.287 N 
HETATM    7  C   UNL     1      41.843 -13.135   0.326  1.00  0.00     0.326 C 
HETATM    8  N   UNL     1      41.633 -13.239  -1.023  1.00  0.00    -0.309 N 
HETATM    9  O   UNL     1      42.548 -12.209   0.724  1.00  0.00    -0.247 OA
HETATM   10  H   UNL     1      42.262 -12.634  -1.538  1.00  0.00     0.170 HD
HETATM   11  H   UNL     1      41.125 -15.019   0.678  1.00  0.00     0.172 HD
BRANCH   8  12
HETATM   12  C   UNL     1      40.649 -13.906  -1.772  1.00  0.00     0.036 A 
HETATM   13  C   UNL     1      39.298 -13.543  -1.788  1.00  0.00     0.032 A 
HETATM   14  C   UNL     1      38.393 -14.235  -2.598  1.00  0.00     0.044 A 
HETATM   15  C   UNL     1      38.840 -15.280  -3.398  1.00  0.00     0.116 A 
HETATM   16  C   UNL     1      40.181 -15.639  -3.412  1.00  0.00     0.044 A 
HETATM   17  F   UNL     1      37.971 -15.935  -4.177  1.00  0.00    -0.206 F 
HETATM   18  C   UNL     1      41.086 -14.945  -2.606  1.00  0.00     0.032 A 
ENDBRANCH   8  12
ENDBRANCH   1   6
BRANCH   4  19
HETATM   19  C   UNL     1      43.098 -14.038   5.627  1.00  0.00     0.163 C 
BRANCH  19  20
HETATM   20  C   UNL     1      43.575 -15.423   6.044  1.00  0.00     0.227 C 
HETATM   21  N   UNL     1      43.120 -16.456   5.245  1.00  0.00    -0.327 N 
HETATM   22  H   UNL     1      42.365 -16.216   4.595  1.00  0.00     0.169 HD
HETATM   23  O   UNL     1      44.366 -15.538   6.980  1.00  0.00    -0.273 OA
BRANCH  21  24
HETATM   24  C   UNL     1      43.511 -17.809   5.276  1.00  0.00     0.036 A 
HETATM   25  C   UNL     1      43.347 -18.646   6.381  1.00  0.00     0.055 A 
HETATM   26  C   UNL     1      43.791 -19.975   6.340  1.00  0.00     0.058 A 
HETATM   27 CL   UNL     1      43.571 -20.944   7.756  1.00  0.00    -0.082 Cl
HETATM   28  C   UNL     1      44.399 -20.477   5.184  1.00  0.00     0.055 A 
HETATM   29 CL   UNL     1      44.972 -22.103   5.062  1.00  0.00    -0.083 Cl
HETATM   30  C   UNL     1      44.564 -19.646   4.077  1.00  0.00     0.028 A 
HETATM   31  C   UNL     1      44.127 -18.319   4.127  1.00  0.00     0.031 A 
ENDBRANCH  21  24
ENDBRANCH  19  20
ENDBRANCH   4  19
TORSDOF 5
ENDMDL
MODEL 10
REMARK VINA RESULT:      -8.6      5.347      8.577
REMARK  5 active torsions:
REMARK  status: ('A' for Active; 'I' for Inactive)
REMARK    1  A    between atoms: C_2  and  N_3 
REMARK       I    between atoms: N_3  and  C_4 
REMARK       I    between atoms: C_4  and  N_5 
REMARK    2  A    between atoms: N_5  and  C_6 
REMARK    3  A    between atoms: C_9  and  C_10 
REMARK    4  A    between atoms: C_10  and  C_11 
REMARK       I    between atoms: C_11  and  N_12 
REMARK    5  A    between atoms: N_12  and  C_13 
ROOT
HETATM    1  C   UNL     1      40.426 -14.189   1.733  1.00  0.00     0.174 A 
HETATM    2  S   UNL     1      39.729 -12.777   2.389  1.00  0.00    -0.062 SA
HETATM    3  C   UNL     1      40.181 -13.308   3.959  1.00  0.00     0.081 A 
HETATM    4  C   UNL     1      40.851 -14.517   3.876  1.00  0.00     0.052 A 
HETATM    5  N   UNL     1      40.987 -15.009   2.584  1.00  0.00    -0.228 NA
ENDROOT
BRANCH   1   6
HETATM    6  N   UNL     1      40.343 -14.290   0.375  1.00  0.00    -0.287 N 
HETATM    7  C   UNL     1      41.171 -13.589  -0.447  1.00  0.00     0.326 C 
HETATM    8  N   UNL     1      40.926 -13.687  -1.791  1.00  0.00    -0.309 N 
HETATM    9  O   UNL     1      42.161 -12.952  -0.094  1.00  0.00    -0.247 OA
HETATM   10  H   UNL     1      41.724 -13.374  -2.332  1.00  0.00     0.170 HD
HETATM   11  H   UNL     1      39.835 -15.073  -0.000  1.00  0.00     0.172 HD
BRANCH   8  12
HETATM   12  C   UNL     1      39.762 -14.002  -2.513  1.00  0.00     0.036 A 
HETATM   13  C   UNL     1      39.577 -15.197  -3.215  1.00  0.00     0.032 A 
HETATM   14  C   UNL     1      38.368 -15.448  -3.872  1.00  0.00     0.044 A 
HETATM   15  C   UNL     1      37.344 -14.510  -3.816  1.00  0.00     0.116 A 
HETATM   16  C   UNL     1      37.502 -13.329  -3.105  1.00  0.00     0.044 A 
HETATM   17  F   UNL     1      36.186 -14.758  -4.440  1.00  0.00    -0.206 F 
HETATM   18  C   UNL     1      38.707 -13.080  -2.446  1.00  0.00     0.032 A 
ENDBRANCH   8  12
ENDBRANCH   1   6
BRANCH   4  19
HETATM   19  C   UNL     1      41.466 -15.285   4.999  1.00  0.00     0.163 C 
BRANCH  19  20
HETATM   20  C   UNL     1      41.651 -16.770   4.720  1.00  0.00     0.227 C 
HETATM   21  N   UNL     1      42.640 -17.066   3.799  1.00  0.00    -0.327 N 
HETATM   22  H   UNL     1      42.998 -16.271   3.260  1.00  0.00     0.169 HD
HETATM   23  O   UNL     1      40.996 -17.595   5.355  1.00  0.00    -0.273 OA
BRANCH  21  24
HETATM   24  C   UNL     1      43.151 -18.333   3.457  1.00  0.00     0.036 A 
HETATM   25  C   UNL     1      43.860 -19.155   4.335  1.00  0.00     0.055 A 
HETATM   26  C   UNL     1      44.363 -20.391   3.906  1.00  0.00     0.058 A 
HETATM   27 CL   UNL     1      45.249 -21.342   5.047  1.00  0.00    -0.082 Cl
HETATM   28  C   UNL     1      44.151 -20.816   2.590  1.00  0.00     0.055 A 
HETATM   29 CL   UNL     1      44.742 -22.326   1.991  1.00  0.00    -0.083 Cl
HETATM   30  C   UNL     1      43.443 -20.001   1.709  1.00  0.00     0.028 A 
HETATM   31  C   UNL     1      42.952 -18.765   2.140  1.00  0.00     0.031 A 
ENDBRANCH  21  24
ENDBRANCH  19  20
ENDBRANCH   4  19
TORSDOF 5
ENDMDL
