MODEL 1
REMARK VINA RESULT:      -7.4      0.000      0.000
REMARK  5 active torsions:
REMARK  status: ('A' for Active; 'I' for Inactive)
REMARK    1  A    between atoms: C_7  and  O_8 
REMARK    2  A    between atoms: O_8  and  C_9 
REMARK    3  A    between atoms: C_12  and  N_13 
REMARK    4  A    between atoms: N_13  and  C_16 
REMARK    5  A    between atoms: C_16  and  C_17 
ROOT
HETATM    1  C   UNL     1      43.923 -19.073   2.682  1.00  0.00     0.028 A 
HETATM    2  C   UNL     1      44.284 -20.360   3.069  1.00  0.00     0.062 A 
HETATM    3  C   UNL     1      44.265 -21.452   2.150  1.00  0.00     0.101 C 
HETATM    4  N   UNL     1      44.257 -22.352   1.420  1.00  0.00    -0.191 NA
HETATM    5  C   UNL     1      44.670 -20.560   4.391  1.00  0.00     0.142 A 
HETATM    6  N   UNL     1      44.719 -19.583   5.335  1.00  0.00    -0.236 NA
HETATM    7  C   UNL     1      44.356 -18.347   4.923  1.00  0.00     0.164 A 
HETATM    8  C   UNL     1      43.960 -18.049   3.625  1.00  0.00     0.059 A 
ENDROOT
BRANCH   7   9
HETATM    9  O   UNL     1      44.361 -17.283   5.793  1.00  0.00    -0.329 OA
BRANCH   9  10
HETATM   10  C   UNL     1      43.169 -16.532   6.011  1.00  0.00     0.130 C 
HETATM   11  C   UNL     1      41.898 -17.392   6.055  1.00  0.00     0.034 C 
HETATM   12  C   UNL     1      40.667 -16.550   6.389  1.00  0.00     0.035 C 
HETATM   13  C   UNL     1      40.515 -15.321   5.488  1.00  0.00     0.186 C 
HETATM   14  C   UNL     1      41.794 -14.477   5.466  1.00  0.00     0.035 C 
HETATM   15  C   UNL     1      43.044 -15.286   5.122  1.00  0.00     0.034 C 
BRANCH  13  16
HETATM   16  N   UNL     1      40.184 -15.735   4.094  1.00  0.00    -0.066 N 
HETATM   17  H   UNL     1      40.985 -16.231   3.661  1.00  0.00     0.278 HD
HETATM   18  H   UNL     1      39.431 -16.436   4.048  1.00  0.00     0.278 HD
BRANCH  16  19
HETATM   19  C   UNL     1      39.879 -14.635   3.119  1.00  0.00     0.292 C 
BRANCH  19  20
HETATM   20  C   UNL     1      40.450 -14.983   1.783  1.00  0.00     0.067 A 
HETATM   21  N   UNL     1      41.351 -16.048   1.733  1.00  0.00    -0.256 NA
HETATM   22  C   UNL     1      41.769 -16.205   0.491  1.00  0.00     0.166 A 
HETATM   23  S   UNL     1      41.133 -15.109  -0.663  1.00  0.00    -0.092 SA
HETATM   24  C   UNL     1      40.218 -14.353   0.576  1.00  0.00     0.080 A 
ENDBRANCH  19  20
ENDBRANCH  16  19
ENDBRANCH  13  16
ENDBRANCH   9  10
ENDBRANCH   7   9
TORSDOF 5
ENDMDL
MODEL 2
REMARK VINA RESULT:      -7.2      2.622      4.237
REMARK  5 active torsions:
REMARK  status: ('A' for Active; 'I' for Inactive)
REMARK    1  A    between atoms: C_7  and  O_8 
REMARK    2  A    between atoms: O_8  and  C_9 
REMARK    3  A    between atoms: C_12  and  N_13 
REMARK    4  A    between atoms: N_13  and  C_16 
REMARK    5  A    between atoms: C_16  and  C_17 
ROOT
HETATM    1  C   UNL     1      44.158 -20.632   2.430  1.00  0.00     0.028 A 
HETATM    2  C   UNL     1      44.447 -20.382   3.768  1.00  0.00     0.062 A 
HETATM    3  C   UNL     1      44.779 -21.436   4.672  1.00  0.00     0.101 C 
HETATM    4  N   UNL     1      45.050 -22.276   5.424  1.00  0.00    -0.191 NA
HETATM    5  C   UNL     1      44.405 -19.064   4.210  1.00  0.00     0.142 A 
HETATM    6  N   UNL     1      44.100 -17.997   3.423  1.00  0.00    -0.236 NA
HETATM    7  C   UNL     1      43.820 -18.281   2.130  1.00  0.00     0.164 A 
HETATM    8  C   UNL     1      43.840 -19.563   1.597  1.00  0.00     0.059 A 
ENDROOT
BRANCH   7   9
HETATM    9  O   UNL     1      43.492 -17.283   1.245  1.00  0.00    -0.329 OA
BRANCH   9  10
HETATM   10  C   UNL     1      42.398 -16.411   1.522  1.00  0.00     0.130 C 
HETATM   11  C   UNL     1      42.724 -15.322   2.554  1.00  0.00     0.034 C 
HETATM   12  C   UNL     1      41.552 -14.360   2.738  1.00  0.00     0.035 C 
HETATM   13  C   UNL     1      40.228 -15.073   3.033  1.00  0.00     0.186 C 
HETATM   14  C   UNL     1      39.923 -16.149   1.985  1.00  0.00     0.035 C 
HETATM   15  C   UNL     1      41.072 -17.137   1.785  1.00  0.00     0.034 C 
BRANCH  13  16
HETATM   16  N   UNL     1      40.267 -15.706   4.383  1.00  0.00    -0.066 N 
HETATM   17  H   UNL     1      39.307 -15.920   4.712  1.00  0.00     0.278 HD
HETATM   18  H   UNL     1      40.719 -16.631   4.382  1.00  0.00     0.278 HD
BRANCH  16  19
HETATM   19  C   UNL     1      40.849 -14.884   5.496  1.00  0.00     0.292 C 
BRANCH  19  20
HETATM   20  C   UNL     1      41.885 -15.686   6.216  1.00  0.00     0.067 A 
HETATM   21  N   UNL     1      43.172 -15.151   6.283  1.00  0.00    -0.256 NA
HETATM   22  C   UNL     1      43.958 -15.990   6.929  1.00  0.00     0.166 A 
HETATM   23  S   UNL     1      43.225 -17.440   7.476  1.00  0.00    -0.092 SA
HETATM   24  C   UNL     1      41.732 -16.925   6.806  1.00  0.00     0.080 A 
ENDBRANCH  19  20
ENDBRANCH  16  19
ENDBRANCH  13  16
ENDBRANCH   9  10
ENDBRANCH   7   9
TORSDOF 5
ENDMDL
MODEL 3
REMARK VINA RESULT:      -7.0      3.823      5.096
REMARK  5 active torsions:
REMARK  status: ('A' for Active; 'I' for Inactive)
REMARK    1  A    between atoms: C_7  and  O_8 
REMARK    2  A    between atoms: O_8  and  C_9 
REMARK    3  A    between atoms: C_12  and  N_13 
REMARK    4  A    between atoms: N_13  and  C_16 
REMARK    5  A    between atoms: C_16  and  C_17 
ROOT
HETATM    1  C   UNL     1      43.315 -19.102   2.720  1.00  0.00     0.028 A 
HETATM    2  C   UNL     1      44.141 -20.148   3.122  1.00  0.00     0.062 A 
HETATM    3  C   UNL     1      44.307 -21.320   2.324  1.00  0.00     0.101 C 
HETATM    4  N   UNL     1      44.457 -22.280   1.692  1.00  0.00    -0.191 NA
HETATM    5  C   UNL     1      44.808 -20.024   4.336  1.00  0.00     0.142 A 
HETATM    6  N   UNL     1      44.712 -18.948   5.162  1.00  0.00    -0.236 NA
HETATM    7  C   UNL     1      43.897 -17.954   4.740  1.00  0.00     0.164 A 
HETATM    8  C   UNL     1      43.192 -17.986   3.543  1.00  0.00     0.059 A 
ENDROOT
BRANCH   7   9
HETATM    9  O   UNL     1      43.717 -16.820   5.495  1.00  0.00    -0.329 OA
BRANCH   9  10
HETATM   10  C   UNL     1      42.797 -15.816   5.072  1.00  0.00     0.130 C 
HETATM   11  C   UNL     1      43.438 -14.436   4.876  1.00  0.00     0.034 C 
HETATM   12  C   UNL     1      42.431 -13.426   4.330  1.00  0.00     0.035 C 
HETATM   13  C   UNL     1      41.138 -13.362   5.147  1.00  0.00     0.186 C 
HETATM   14  C   UNL     1      40.514 -14.752   5.322  1.00  0.00     0.035 C 
HETATM   15  C   UNL     1      41.492 -15.784   5.881  1.00  0.00     0.034 C 
BRANCH  13  16
HETATM   16  N   UNL     1      41.400 -12.774   6.492  1.00  0.00    -0.066 N 
HETATM   17  H   UNL     1      40.581 -12.911   7.115  1.00  0.00     0.278 HD
HETATM   18  H   UNL     1      42.156 -13.253   7.002  1.00  0.00     0.278 HD
BRANCH  16  19
HETATM   19  C   UNL     1      41.642 -11.294   6.545  1.00  0.00     0.292 C 
BRANCH  19  20
HETATM   20  C   UNL     1      41.689 -10.849   7.971  1.00  0.00     0.067 A 
HETATM   21  N   UNL     1      42.949 -10.654   8.537  1.00  0.00    -0.256 NA
HETATM   22  C   UNL     1      42.808 -10.286   9.796  1.00  0.00     0.166 A 
HETATM   23  S   UNL     1      41.196 -10.161  10.369  1.00  0.00    -0.092 SA
HETATM   24  C   UNL     1      40.623 -10.633   8.822  1.00  0.00     0.080 A 
ENDBRANCH  19  20
ENDBRANCH  16  19
ENDBRANCH  13  16
ENDBRANCH   9  10
ENDBRANCH   7   9
TORSDOF 5
ENDMDL
MODEL 4
REMARK VINA RESULT:      -7.0      2.624      3.696
REMARK  5 active torsions:
REMARK  status: ('A' for Active; 'I' for Inactive)
REMARK    1  A    between atoms: C_7  and  O_8 
REMARK    2  A    between atoms: O_8  and  C_9 
REMARK    3  A    between atoms: C_12  and  N_13 
REMARK    4  A    between atoms: N_13  and  C_16 
REMARK    5  A    between atoms: C_16  and  C_17 
ROOT
HETATM    1  C   UNL     1      43.822 -19.516   4.059  1.00  0.00     0.028 A 
HETATM    2  C   UNL     1      44.038 -19.921   2.745  1.00  0.00     0.062 A 
HETATM    3  C   UNL     1      44.342 -21.278   2.420  1.00  0.00     0.101 C 
HETATM    4  N   UNL     1      44.590 -22.374   2.134  1.00  0.00    -0.191 NA
HETATM    5  C   UNL     1      43.949 -18.961   1.742  1.00  0.00     0.142 A 
HETATM    6  N   UNL     1      43.665 -17.649   1.955  1.00  0.00    -0.236 NA
HETATM    7  C   UNL     1      43.466 -17.292   3.245  1.00  0.00     0.164 A 
HETATM    8  C   UNL     1      43.531 -18.178   4.313  1.00  0.00     0.059 A 
ENDROOT
BRANCH   7   9
HETATM    9  O   UNL     1      43.179 -15.991   3.580  1.00  0.00    -0.329 OA
BRANCH   9  10
HETATM   10  C   UNL     1      42.066 -15.327   2.985  1.00  0.00     0.130 C 
HETATM   11  C   UNL     1      40.905 -16.267   2.631  1.00  0.00     0.034 C 
HETATM   12  C   UNL     1      39.706 -15.492   2.088  1.00  0.00     0.035 C 
HETATM   13  C   UNL     1      40.068 -14.547   0.939  1.00  0.00     0.186 C 
HETATM   14  C   UNL     1      41.225 -13.615   1.321  1.00  0.00     0.035 C 
HETATM   15  C   UNL     1      42.447 -14.360   1.855  1.00  0.00     0.034 C 
BRANCH  13  16
HETATM   16  N   UNL     1      40.452 -15.325  -0.274  1.00  0.00    -0.066 N 
HETATM   17  H   UNL     1      41.353 -15.815  -0.122  1.00  0.00     0.278 HD
HETATM   18  H   UNL     1      39.804 -16.097  -0.481  1.00  0.00     0.278 HD
BRANCH  16  19
HETATM   19  C   UNL     1      40.685 -14.539  -1.532  1.00  0.00     0.292 C 
BRANCH  19  20
HETATM   20  C   UNL     1      39.611 -14.857  -2.522  1.00  0.00     0.067 A 
HETATM   21  N   UNL     1      39.920 -15.780  -3.522  1.00  0.00    -0.256 NA
HETATM   22  C   UNL     1      38.875 -15.927  -4.314  1.00  0.00     0.166 A 
HETATM   23  S   UNL     1      37.496 -14.986  -3.926  1.00  0.00    -0.092 SA
HETATM   24  C   UNL     1      38.341 -14.319  -2.590  1.00  0.00     0.080 A 
ENDBRANCH  19  20
ENDBRANCH  16  19
ENDBRANCH  13  16
ENDBRANCH   9  10
ENDBRANCH   7   9
TORSDOF 5
ENDMDL
MODEL 5
REMARK VINA RESULT:      -6.8      2.602      3.441
REMARK  5 active torsions:
REMARK  status: ('A' for Active; 'I' for Inactive)
REMARK    1  A    between atoms: C_7  and  O_8 
REMARK    2  A    between atoms: O_8  and  C_9 
REMARK    3  A    between atoms: C_12  and  N_13 
REMARK    4  A    between atoms: N_13  and  C_16 
REMARK    5  A    between atoms: C_16  and  C_17 
ROOT
HETATM    1  C   UNL     1      44.426 -20.194   2.737  1.00  0.00     0.028 A 
HETATM    2  C   UNL     1      44.574 -20.277   4.119  1.00  0.00     0.062 A 
HETATM    3  C   UNL     1      44.909 -21.507   4.763  1.00  0.00     0.101 C 
HETATM    4  N   UNL     1      45.180 -22.493   5.307  1.00  0.00    -0.191 NA
HETATM    5  C   UNL     1      44.386 -19.120   4.867  1.00  0.00     0.142 A 
HETATM    6  N   UNL     1      44.066 -17.907   4.342  1.00  0.00    -0.236 NA
HETATM    7  C   UNL     1      43.925 -17.866   2.997  1.00  0.00     0.164 A 
HETATM    8  C   UNL     1      44.096 -18.967   2.167  1.00  0.00     0.059 A 
ENDROOT
BRANCH   7   9
HETATM    9  O   UNL     1      43.597 -16.695   2.357  1.00  0.00    -0.329 OA
BRANCH   9  10
HETATM   10  C   UNL     1      42.275 -16.171   2.458  1.00  0.00     0.130 C 
HETATM   11  C   UNL     1      41.200 -17.092   1.866  1.00  0.00     0.034 C 
HETATM   12  C   UNL     1      39.798 -16.527   2.089  1.00  0.00     0.035 C 
HETATM   13  C   UNL     1      39.651 -15.076   1.622  1.00  0.00     0.186 C 
HETATM   14  C   UNL     1      40.732 -14.176   2.232  1.00  0.00     0.035 C 
HETATM   15  C   UNL     1      42.149 -14.706   2.015  1.00  0.00     0.034 C 
BRANCH  13  16
HETATM   16  N   UNL     1      39.736 -14.996   0.135  1.00  0.00    -0.066 N 
HETATM   17  H   UNL     1      40.697 -15.217  -0.187  1.00  0.00     0.278 HD
HETATM   18  H   UNL     1      39.167 -15.709  -0.341  1.00  0.00     0.278 HD
BRANCH  16  19
HETATM   19  C   UNL     1      39.453 -13.658  -0.485  1.00  0.00     0.292 C 
BRANCH  19  20
HETATM   20  C   UNL     1      40.525 -13.332  -1.473  1.00  0.00     0.067 A 
HETATM   21  N   UNL     1      40.186 -13.395  -2.826  1.00  0.00    -0.256 NA
HETATM   22  C   UNL     1      41.247 -13.100  -3.553  1.00  0.00     0.166 A 
HETATM   23  S   UNL     1      42.683 -12.747  -2.685  1.00  0.00    -0.092 SA
HETATM   24  C   UNL     1      41.841 -13.002  -1.212  1.00  0.00     0.080 A 
ENDBRANCH  19  20
ENDBRANCH  16  19
ENDBRANCH  13  16
ENDBRANCH   9  10
ENDBRANCH   7   9
TORSDOF 5
ENDMDL
MODEL 6
REMARK VINA RESULT:      -6.8      3.912      7.599
REMARK  5 active torsions:
REMARK  status: ('A' for Active; 'I' for Inactive)
REMARK    1  A    between atoms: C_7  and  O_8 
REMARK    2  A    between atoms: O_8  and  C_9 
REMARK    3  A    between atoms: C_12  and  N_13 
REMARK    4  A    between atoms: N_13  and  C_16 
REMARK    5  A    between atoms: C_16  and  C_17 
ROOT
HETATM    1  C   UNL     1      39.589 -15.114  -3.425  1.00  0.00     0.028 A 
HETATM    2  C   UNL     1      38.332 -14.618  -3.095  1.00  0.00     0.062 A 
HETATM    3  C   UNL     1      37.242 -14.665  -4.017  1.00  0.00     0.101 C 
HETATM    4  N   UNL     1      36.344 -14.692  -4.748  1.00  0.00    -0.191 NA
HETATM    5  C   UNL     1      38.159 -14.067  -1.829  1.00  0.00     0.142 A 
HETATM    6  N   UNL     1      39.136 -13.980  -0.887  1.00  0.00    -0.236 NA
HETATM    7  C   UNL     1      40.345 -14.468  -1.247  1.00  0.00     0.164 A 
HETATM    8  C   UNL     1      40.613 -15.039  -2.485  1.00  0.00     0.059 A 
ENDROOT
BRANCH   7   9
HETATM    9  O   UNL     1      41.409 -14.427  -0.378  1.00  0.00    -0.329 OA
BRANCH   9  10
HETATM   10  C   UNL     1      41.306 -15.034   0.909  1.00  0.00     0.130 C 
HETATM   11  C   UNL     1      42.362 -14.543   1.908  1.00  0.00     0.034 C 
HETATM   12  C   UNL     1      42.145 -15.151   3.292  1.00  0.00     0.035 C 
HETATM   13  C   UNL     1      42.022 -16.677   3.269  1.00  0.00     0.186 C 
HETATM   14  C   UNL     1      40.956 -17.140   2.269  1.00  0.00     0.035 C 
HETATM   15  C   UNL     1      41.152 -16.561   0.868  1.00  0.00     0.034 C 
BRANCH  13  16
HETATM   16  N   UNL     1      43.328 -17.299   2.908  1.00  0.00    -0.066 N 
HETATM   17  H   UNL     1      43.225 -17.904   2.072  1.00  0.00     0.278 HD
HETATM   18  H   UNL     1      44.034 -16.612   2.607  1.00  0.00     0.278 HD
BRANCH  16  19
HETATM   19  C   UNL     1      43.945 -18.210   3.930  1.00  0.00     0.292 C 
BRANCH  19  20
HETATM   20  C   UNL     1      44.061 -19.587   3.362  1.00  0.00     0.067 A 
HETATM   21  N   UNL     1      43.423 -19.830   2.144  1.00  0.00    -0.256 NA
HETATM   22  C   UNL     1      43.608 -21.091   1.801  1.00  0.00     0.166 A 
HETATM   23  S   UNL     1      44.527 -22.042   2.892  1.00  0.00    -0.092 SA
HETATM   24  C   UNL     1      44.704 -20.677   3.915  1.00  0.00     0.080 A 
ENDBRANCH  19  20
ENDBRANCH  16  19
ENDBRANCH  13  16
ENDBRANCH   9  10
ENDBRANCH   7   9
TORSDOF 5
ENDMDL
MODEL 7
REMARK VINA RESULT:      -6.8      4.802      7.968
REMARK  5 active torsions:
REMARK  status: ('A' for Active; 'I' for Inactive)
REMARK    1  A    between atoms: C_7  and  O_8 
REMARK    2  A    between atoms: O_8  and  C_9 
REMARK    3  A    between atoms: C_12  and  N_13 
REMARK    4  A    between atoms: N_13  and  C_16 
REMARK    5  A    between atoms: C_16  and  C_17 
ROOT
HETATM    1  C   UNL     1      43.346 -11.010   9.511  1.00  0.00     0.028 A 
HETATM    2  C   UNL     1      44.108 -11.133  10.669  1.00  0.00     0.062 A 
HETATM    3  C   UNL     1      43.835 -10.352  11.832  1.00  0.00     0.101 C 
HETATM    4  N   UNL     1      43.631  -9.729  12.788  1.00  0.00    -0.191 NA
HETATM    5  C   UNL     1      45.157 -12.047  10.666  1.00  0.00     0.142 A 
HETATM    6  N   UNL     1      45.491 -12.833   9.608  1.00  0.00    -0.236 NA
HETATM    7  C   UNL     1      44.731 -12.681   8.499  1.00  0.00     0.164 A 
HETATM    8  C   UNL     1      43.663 -11.797   8.407  1.00  0.00     0.059 A 
ENDROOT
BRANCH   7   9
HETATM    9  O   UNL     1      44.981 -13.417   7.366  1.00  0.00    -0.329 OA
BRANCH   9  10
HETATM   10  C   UNL     1      43.966 -14.257   6.820  1.00  0.00     0.130 C 
HETATM   11  C   UNL     1      43.996 -15.692   7.362  1.00  0.00     0.034 C 
HETATM   12  C   UNL     1      42.830 -16.517   6.819  1.00  0.00     0.035 C 
HETATM   13  C   UNL     1      42.716 -16.468   5.292  1.00  0.00     0.186 C 
HETATM   14  C   UNL     1      42.682 -15.024   4.777  1.00  0.00     0.035 C 
HETATM   15  C   UNL     1      43.842 -14.173   5.292  1.00  0.00     0.034 C 
BRANCH  13  16
HETATM   16  N   UNL     1      43.863 -17.181   4.660  1.00  0.00    -0.066 N 
HETATM   17  H   UNL     1      43.587 -17.572   3.741  1.00  0.00     0.278 HD
HETATM   18  H   UNL     1      44.644 -16.554   4.417  1.00  0.00     0.278 HD
BRANCH  16  19
HETATM   19  C   UNL     1      44.409 -18.368   5.401  1.00  0.00     0.292 C 
BRANCH  19  20
HETATM   20  C   UNL     1      44.433 -19.552   4.490  1.00  0.00     0.067 A 
HETATM   21  N   UNL     1      44.767 -20.784   5.055  1.00  0.00    -0.256 NA
HETATM   22  C   UNL     1      44.761 -21.709   4.114  1.00  0.00     0.166 A 
HETATM   23  S   UNL     1      44.373 -21.173   2.533  1.00  0.00    -0.092 SA
HETATM   24  C   UNL     1      44.193 -19.575   3.130  1.00  0.00     0.080 A 
ENDBRANCH  19  20
ENDBRANCH  16  19
ENDBRANCH  13  16
ENDBRANCH   9  10
ENDBRANCH   7   9
TORSDOF 5
ENDMDL
MODEL 8
REMARK VINA RESULT:      -6.6      2.796      4.388
REMARK  5 active torsions:
REMARK  status: ('A' for Active; 'I' for Inactive)
REMARK    1  A    between atoms: C_7  and  O_8 
REMARK    2  A    between atoms: O_8  and  C_9 
REMARK    3  A    between atoms: C_12  and  N_13 
REMARK    4  A    between atoms: N_13  and  C_16 
REMARK    5  A    between atoms: C_16  and  C_17 
ROOT
HETATM    1  C   UNL     1      44.153 -19.514   4.628  1.00  0.00     0.028 A 
HETATM    2  C   UNL     1      43.624 -19.271   5.892  1.00  0.00     0.062 A 
HETATM    3  C   UNL     1      43.585 -20.287   6.895  1.00  0.00     0.101 C 
HETATM    4  N   UNL     1      43.544 -21.096   7.724  1.00  0.00    -0.191 NA
HETATM    5  C   UNL     1      43.129 -17.999   6.159  1.00  0.00     0.142 A 
HETATM    6  N   UNL     1      43.124 -16.971   5.269  1.00  0.00    -0.236 NA
HETATM    7  C   UNL     1      43.641 -17.247   4.050  1.00  0.00     0.164 A 
HETATM    8  C   UNL     1      44.161 -18.484   3.691  1.00  0.00     0.059 A 
ENDROOT
BRANCH   7   9
HETATM    9  O   UNL     1      43.682 -16.286   3.068  1.00  0.00    -0.329 OA
BRANCH   9  10
HETATM   10  C   UNL     1      42.528 -16.026   2.273  1.00  0.00     0.130 C 
HETATM   11  C   UNL     1      42.404 -16.941   1.047  1.00  0.00     0.034 C 
HETATM   12  C   UNL     1      41.103 -16.685   0.288  1.00  0.00     0.035 C 
HETATM   13  C   UNL     1      40.888 -15.209  -0.057  1.00  0.00     0.186 C 
HETATM   14  C   UNL     1      41.010 -14.317   1.184  1.00  0.00     0.035 C 
HETATM   15  C   UNL     1      42.307 -14.539   1.960  1.00  0.00     0.034 C 
BRANCH  13  16
HETATM   16  N   UNL     1      41.882 -14.761  -1.075  1.00  0.00    -0.066 N 
HETATM   17  H   UNL     1      42.641 -14.214  -0.627  1.00  0.00     0.278 HD
HETATM   18  H   UNL     1      42.391 -15.542  -1.513  1.00  0.00     0.278 HD
BRANCH  16  19
HETATM   19  C   UNL     1      41.376 -13.848  -2.155  1.00  0.00     0.292 C 
BRANCH  19  20
HETATM   20  C   UNL     1      40.183 -14.467  -2.809  1.00  0.00     0.067 A 
HETATM   21  N   UNL     1      40.397 -15.624  -3.560  1.00  0.00    -0.256 NA
HETATM   22  C   UNL     1      39.251 -16.022  -4.080  1.00  0.00     0.166 A 
HETATM   23  S   UNL     1      37.883 -15.054  -3.718  1.00  0.00    -0.092 SA
HETATM   24  C   UNL     1      38.880 -14.011  -2.789  1.00  0.00     0.080 A 
ENDBRANCH  19  20
ENDBRANCH  16  19
ENDBRANCH  13  16
ENDBRANCH   9  10
ENDBRANCH   7   9
TORSDOF 5
ENDMDL
MODEL 9
REMARK VINA RESULT:      -6.6      3.632      4.928
REMARK  5 active torsions:
REMARK  status: ('A' for Active; 'I' for Inactive)
REMARK    1  A    between atoms: C_7  and  O_8 
REMARK    2  A    between atoms: O_8  and  C_9 
REMARK    3  A    between atoms: C_12  and  N_13 
REMARK    4  A    between atoms: N_13  and  C_16 
REMARK    5  A    between atoms: C_16  and  C_17 
ROOT
HETATM    1  C   UNL     1      44.595 -19.920   4.383  1.00  0.00     0.028 A 
HETATM    2  C   UNL     1      44.126 -20.036   3.078  1.00  0.00     0.062 A 
HETATM    3  C   UNL     1      44.274 -21.245   2.333  1.00  0.00     0.101 C 
HETATM    4  N   UNL     1      44.383 -22.217   1.711  1.00  0.00    -0.191 NA
HETATM    5  C   UNL     1      43.502 -18.931   2.508  1.00  0.00     0.142 A 
HETATM    6  N   UNL     1      43.316 -17.741   3.138  1.00  0.00    -0.236 NA
HETATM    7  C   UNL     1      43.789 -17.665   4.403  1.00  0.00     0.164 A 
HETATM    8  C   UNL     1      44.423 -18.714   5.057  1.00  0.00     0.059 A 
ENDROOT
BRANCH   7   9
HETATM    9  O   UNL     1      43.663 -16.509   5.135  1.00  0.00    -0.329 OA
BRANCH   9  10
HETATM   10  C   UNL     1      42.717 -15.515   4.746  1.00  0.00     0.130 C 
HETATM   11  C   UNL     1      43.093 -14.096   5.196  1.00  0.00     0.034 C 
HETATM   12  C   UNL     1      42.099 -13.063   4.669  1.00  0.00     0.035 C 
HETATM   13  C   UNL     1      40.642 -13.413   4.986  1.00  0.00     0.186 C 
HETATM   14  C   UNL     1      40.290 -14.831   4.521  1.00  0.00     0.035 C 
HETATM   15  C   UNL     1      41.258 -15.892   5.041  1.00  0.00     0.034 C 
BRANCH  13  16
HETATM   16  N   UNL     1      40.386 -13.305   6.451  1.00  0.00    -0.066 N 
HETATM   17  H   UNL     1      40.089 -14.221   6.837  1.00  0.00     0.278 HD
HETATM   18  H   UNL     1      41.234 -13.093   6.995  1.00  0.00     0.278 HD
BRANCH  16  19
HETATM   19  C   UNL     1      39.291 -12.370   6.876  1.00  0.00     0.292 C 
BRANCH  19  20
HETATM   20  C   UNL     1      39.886 -11.212   7.610  1.00  0.00     0.067 A 
HETATM   21  N   UNL     1      39.020 -10.427   8.374  1.00  0.00    -0.256 NA
HETATM   22  C   UNL     1      39.701  -9.446   8.933  1.00  0.00     0.166 A 
HETATM   23  S   UNL     1      41.378  -9.396   8.580  1.00  0.00    -0.092 SA
HETATM   24  C   UNL     1      41.203 -10.795   7.602  1.00  0.00     0.080 A 
ENDBRANCH  19  20
ENDBRANCH  16  19
ENDBRANCH  13  16
ENDBRANCH   9  10
ENDBRANCH   7   9
TORSDOF 5
ENDMDL
MODEL 10
REMARK VINA RESULT:      -6.4      4.008      7.759
REMARK  5 active torsions:
REMARK  status: ('A' for Active; 'I' for Inactive)
REMARK    1  A    between atoms: C_7  and  O_8 
REMARK    2  A    between atoms: O_8  and  C_9 
REMARK    3  A    between atoms: C_12  and  N_13 
REMARK    4  A    between atoms: N_13  and  C_16 
REMARK    5  A    between atoms: C_16  and  C_17 
ROOT
HETATM    1  C   UNL     1      38.244 -13.954  -2.041  1.00  0.00     0.028 A 
HETATM    2  C   UNL     1      38.253 -14.670  -3.235  1.00  0.00     0.062 A 
HETATM    3  C   UNL     1      37.140 -14.649  -4.129  1.00  0.00     0.101 C 
HETATM    4  N   UNL     1      36.249 -14.647  -4.869  1.00  0.00    -0.191 NA
HETATM    5  C   UNL     1      39.387 -15.415  -3.540  1.00  0.00     0.142 A 
HETATM    6  N   UNL     1      40.492 -15.494  -2.752  1.00  0.00    -0.236 NA
HETATM    7  C   UNL     1      40.444 -14.790  -1.598  1.00  0.00     0.164 A 
HETATM    8  C   UNL     1      39.358 -14.015  -1.209  1.00  0.00     0.059 A 
ENDROOT
BRANCH   7   9
HETATM    9  O   UNL     1      41.501 -14.800  -0.720  1.00  0.00    -0.329 OA
BRANCH   9  10
HETATM   10  C   UNL     1      41.342 -15.353   0.585  1.00  0.00     0.130 C 
HETATM   11  C   UNL     1      42.046 -14.549   1.685  1.00  0.00     0.034 C 
HETATM   12  C   UNL     1      41.762 -15.130   3.069  1.00  0.00     0.035 C 
HETATM   13  C   UNL     1      42.049 -16.631   3.164  1.00  0.00     0.186 C 
HETATM   14  C   UNL     1      41.329 -17.412   2.058  1.00  0.00     0.035 C 
HETATM   15  C   UNL     1      41.603 -16.865   0.658  1.00  0.00     0.034 C 
BRANCH  13  16
HETATM   16  N   UNL     1      43.515 -16.888   3.064  1.00  0.00    -0.066 N 
HETATM   17  H   UNL     1      43.837 -16.780   2.084  1.00  0.00     0.278 HD
HETATM   18  H   UNL     1      44.082 -16.193   3.568  1.00  0.00     0.278 HD
BRANCH  16  19
HETATM   19  C   UNL     1      43.984 -18.263   3.442  1.00  0.00     0.292 C 
BRANCH  19  20
HETATM   20  C   UNL     1      43.969 -18.401   4.930  1.00  0.00     0.067 A 
HETATM   21  N   UNL     1      43.822 -19.688   5.450  1.00  0.00    -0.256 NA
HETATM   22  C   UNL     1      43.808 -19.625   6.768  1.00  0.00     0.166 A 
HETATM   23  S   UNL     1      43.958 -18.059   7.449  1.00  0.00    -0.092 SA
HETATM   24  C   UNL     1      44.052 -17.393   5.871  1.00  0.00     0.080 A 
ENDBRANCH  19  20
ENDBRANCH  16  19
ENDBRANCH  13  16
ENDBRANCH   9  10
ENDBRANCH   7   9
TORSDOF 5
ENDMDL
