MODEL 1
REMARK VINA RESULT:      -9.0      0.000      0.000
REMARK  11 active torsions:
REMARK  status: ('A' for Active; 'I' for Inactive)
REMARK    1  A    between atoms: C_2  and  O_3 
REMARK    2  A    between atoms: O_3  and  C_4 
REMARK    3  A    between atoms: C_5  and  O_6 
REMARK    4  A    between atoms: C_9  and  C_10 
REMARK    5  A    between atoms: N_11  and  C_12 
REMARK    6  A    between atoms: C_12  and  C_13 
REMARK    7  A    between atoms: C_13  and  C_14 
REMARK    8  A    between atoms: C_14  and  N_15 
REMARK    9  A    between atoms: C_24  and  O_25 
REMARK   10  A    between atoms: C_26  and  C_27 
REMARK   11  A    between atoms: C_27  and  C_28 
ROOT
HETATM    1  C   UNL     1      42.486 -15.804   3.234  1.00  0.00     0.161 C 
HETATM    2  N   UNL     1      41.192 -15.157   3.035  1.00  0.00    -0.333 N 
HETATM    3  C   UNL     1      40.336 -15.942   2.299  1.00  0.00     0.278 C 
HETATM    4  O   UNL     1      39.234 -15.625   1.873  1.00  0.00    -0.265 OA
HETATM    5  C   UNL     1      41.090 -17.132   1.860  1.00  0.00     0.146 C 
HETATM    6  C   UNL     1      42.351 -16.960   2.278  1.00  0.00     0.059 C 
ENDROOT
BRANCH   1   7
HETATM    7  C   UNL     1      42.686 -16.185   4.695  1.00  0.00    -0.028 A 
HETATM    8  C   UNL     1      42.041 -17.302   5.268  1.00  0.00     0.012 A 
HETATM    9  C   UNL     1      42.230 -17.632   6.609  1.00  0.00     0.040 A 
HETATM   10  C   UNL     1      43.055 -16.842   7.393  1.00  0.00     0.099 A 
HETATM   11  C   UNL     1      43.715 -15.731   6.863  1.00  0.00     0.102 A 
HETATM   12  C   UNL     1      43.519 -15.397   5.520  1.00  0.00     0.049 A 
BRANCH  10  13
HETATM   13  O   UNL     1      43.221 -17.189   8.704  1.00  0.00    -0.358 OA
HETATM   14  H   UNL     1      42.709 -16.531   9.213  1.00  0.00     0.218 HD
ENDBRANCH  10  13
BRANCH  11  15
HETATM   15  O   UNL     1      44.491 -15.045   7.760  1.00  0.00    -0.349 OA
BRANCH  15  16
HETATM   16  C   UNL     1      44.995 -13.780   7.338  1.00  0.00     0.171 C 
HETATM   17  C   UNL     1      44.814 -12.807   8.490  1.00  0.00     0.034 C 
ENDBRANCH  15  16
ENDBRANCH  11  15
ENDBRANCH   1   7
BRANCH   2  18
HETATM   18  C   UNL     1      40.955 -13.746   3.282  1.00  0.00     0.129 C 
BRANCH  18  19
HETATM   19  C   UNL     1      41.859 -12.823   2.454  1.00  0.00     0.048 C 
BRANCH  19  20
HETATM   20  C   UNL     1      41.274 -12.240   1.163  1.00  0.00     0.236 C 
BRANCH  20  21
HETATM   21  N   UNL     1      40.612 -13.256   0.271  1.00  0.00    -0.067 N 
HETATM   22  H   UNL     1      40.153 -13.970   0.874  1.00  0.00     0.280 HD
HETATM   23  C   UNL     1      39.581 -12.665  -0.680  1.00  0.00     0.261 C 
HETATM   24  C   UNL     1      38.995 -13.759  -1.579  1.00  0.00     0.195 C 
HETATM   25  O   UNL     1      40.026 -14.446  -2.297  1.00  0.00    -0.388 OA
HETATM   26  C   UNL     1      40.939 -15.092  -1.404  1.00  0.00     0.195 C 
HETATM   27  C   UNL     1      41.648 -14.060  -0.523  1.00  0.00     0.261 C 
ENDBRANCH  20  21
ENDBRANCH  19  20
ENDBRANCH  18  19
ENDBRANCH   2  18
BRANCH   6  28
HETATM   28  C   UNL     1      43.571 -17.707   1.908  1.00  0.00     0.193 C 
HETATM   29  O   UNL     1      44.324 -17.258   1.050  1.00  0.00    -0.287 OA
BRANCH  28  30
HETATM   30  C   UNL     1      43.843 -19.044   2.483  1.00  0.00     0.015 A 
HETATM   31  C   UNL     1      43.580 -20.217   1.765  1.00  0.00     0.016 A 
HETATM   32  C   UNL     1      43.866 -21.462   2.331  1.00  0.00     0.007 A 
HETATM   33  C   UNL     1      44.434 -21.543   3.607  1.00  0.00    -0.062 A 
HETATM   34  C   UNL     1      44.761 -22.878   4.211  1.00  0.00     0.048 C 
HETATM   35  C   UNL     1      44.751 -20.364   4.293  1.00  0.00     0.007 A 
HETATM   36  C   UNL     1      44.461 -19.118   3.733  1.00  0.00     0.016 A 
ENDBRANCH  28  30
ENDBRANCH   6  28
BRANCH   5  37
HETATM   37  O   UNL     1      40.570 -18.077   1.033  1.00  0.00    -0.355 OA
HETATM   38  H   UNL     1      41.015 -17.988   0.167  1.00  0.00     0.218 HD
ENDBRANCH   5  37
TORSDOF 11
ENDMDL
MODEL 2
REMARK VINA RESULT:      -9.0      2.016      3.875
REMARK  11 active torsions:
REMARK  status: ('A' for Active; 'I' for Inactive)
REMARK    1  A    between atoms: C_2  and  O_3 
REMARK    2  A    between atoms: O_3  and  C_4 
REMARK    3  A    between atoms: C_5  and  O_6 
REMARK    4  A    between atoms: C_9  and  C_10 
REMARK    5  A    between atoms: N_11  and  C_12 
REMARK    6  A    between atoms: C_12  and  C_13 
REMARK    7  A    between atoms: C_13  and  C_14 
REMARK    8  A    between atoms: C_14  and  N_15 
REMARK    9  A    between atoms: C_24  and  O_25 
REMARK   10  A    between atoms: C_26  and  C_27 
REMARK   11  A    between atoms: C_27  and  C_28 
ROOT
HETATM    1  C   UNL     1      42.489 -15.691   3.202  1.00  0.00     0.161 C 
HETATM    2  N   UNL     1      41.185 -15.063   3.009  1.00  0.00    -0.333 N 
HETATM    3  C   UNL     1      40.334 -15.867   2.287  1.00  0.00     0.278 C 
HETATM    4  O   UNL     1      39.224 -15.568   1.869  1.00  0.00    -0.265 OA
HETATM    5  C   UNL     1      41.099 -17.050   1.852  1.00  0.00     0.146 C 
HETATM    6  C   UNL     1      42.361 -16.858   2.257  1.00  0.00     0.059 C 
ENDROOT
BRANCH   1   7
HETATM    7  C   UNL     1      42.708 -16.057   4.665  1.00  0.00    -0.028 A 
HETATM    8  C   UNL     1      42.070 -17.166   5.258  1.00  0.00     0.012 A 
HETATM    9  C   UNL     1      42.275 -17.482   6.600  1.00  0.00     0.040 A 
HETATM   10  C   UNL     1      43.111 -16.684   7.364  1.00  0.00     0.099 A 
HETATM   11  C   UNL     1      43.764 -15.579   6.814  1.00  0.00     0.102 A 
HETATM   12  C   UNL     1      43.552 -15.260   5.470  1.00  0.00     0.049 A 
BRANCH  10  13
HETATM   13  O   UNL     1      43.294 -17.016   8.678  1.00  0.00    -0.358 OA
HETATM   14  H   UNL     1      44.259 -16.984   8.822  1.00  0.00     0.218 HD
ENDBRANCH  10  13
BRANCH  11  15
HETATM   15  O   UNL     1      44.552 -14.884   7.694  1.00  0.00    -0.349 OA
BRANCH  15  16
HETATM   16  C   UNL     1      45.054 -13.625   7.250  1.00  0.00     0.171 C 
HETATM   17  C   UNL     1      45.223 -12.743   8.475  1.00  0.00     0.034 C 
ENDBRANCH  15  16
ENDBRANCH  11  15
ENDBRANCH   1   7
BRANCH   2  18
HETATM   18  C   UNL     1      40.932 -13.654   3.245  1.00  0.00     0.129 C 
BRANCH  18  19
HETATM   19  C   UNL     1      39.881 -13.398   4.335  1.00  0.00     0.048 C 
BRANCH  19  20
HETATM   20  C   UNL     1      40.161 -13.972   5.728  1.00  0.00     0.236 C 
BRANCH  20  21
HETATM   21  N   UNL     1      40.525 -12.938   6.761  1.00  0.00    -0.067 N 
HETATM   22  H   UNL     1      40.823 -13.432   7.627  1.00  0.00     0.280 HD
HETATM   23  C   UNL     1      41.628 -11.986   6.320  1.00  0.00     0.261 C 
HETATM   24  C   UNL     1      41.897 -10.941   7.408  1.00  0.00     0.195 C 
HETATM   25  O   UNL     1      40.704 -10.227   7.748  1.00  0.00    -0.388 OA
HETATM   26  C   UNL     1      39.700 -11.107   8.262  1.00  0.00     0.195 C 
HETATM   27  C   UNL     1      39.295 -12.136   7.202  1.00  0.00     0.261 C 
ENDBRANCH  20  21
ENDBRANCH  19  20
ENDBRANCH  18  19
ENDBRANCH   2  18
BRANCH   6  28
HETATM   28  C   UNL     1      43.588 -17.592   1.883  1.00  0.00     0.193 C 
HETATM   29  O   UNL     1      44.359 -17.111   1.059  1.00  0.00    -0.287 OA
BRANCH  28  30
HETATM   30  C   UNL     1      43.847 -18.950   2.411  1.00  0.00     0.015 A 
HETATM   31  C   UNL     1      43.592 -20.095   1.646  1.00  0.00     0.016 A 
HETATM   32  C   UNL     1      43.866 -21.360   2.168  1.00  0.00     0.007 A 
HETATM   33  C   UNL     1      44.414 -21.492   3.449  1.00  0.00    -0.062 A 
HETATM   34  C   UNL     1      44.729 -22.850   4.006  1.00  0.00     0.048 C 
HETATM   35  C   UNL     1      44.725 -20.341   4.183  1.00  0.00     0.007 A 
HETATM   36  C   UNL     1      44.447 -19.073   3.666  1.00  0.00     0.016 A 
ENDBRANCH  28  30
ENDBRANCH   6  28
BRANCH   5  37
HETATM   37  O   UNL     1      40.584 -18.010   1.039  1.00  0.00    -0.355 OA
HETATM   38  H   UNL     1      41.259 -18.213   0.360  1.00  0.00     0.218 HD
ENDBRANCH   5  37
TORSDOF 11
ENDMDL
MODEL 3
REMARK VINA RESULT:      -8.5      1.028      2.188
REMARK  11 active torsions:
REMARK  status: ('A' for Active; 'I' for Inactive)
REMARK    1  A    between atoms: C_2  and  O_3 
REMARK    2  A    between atoms: O_3  and  C_4 
REMARK    3  A    between atoms: C_5  and  O_6 
REMARK    4  A    between atoms: C_9  and  C_10 
REMARK    5  A    between atoms: N_11  and  C_12 
REMARK    6  A    between atoms: C_12  and  C_13 
REMARK    7  A    between atoms: C_13  and  C_14 
REMARK    8  A    between atoms: C_14  and  N_15 
REMARK    9  A    between atoms: C_24  and  O_25 
REMARK   10  A    between atoms: C_26  and  C_27 
REMARK   11  A    between atoms: C_27  and  C_28 
ROOT
HETATM    1  C   UNL     1      42.652 -15.312   2.650  1.00  0.00     0.161 C 
HETATM    2  N   UNL     1      41.277 -14.877   2.420  1.00  0.00    -0.333 N 
HETATM    3  C   UNL     1      40.451 -15.934   2.119  1.00  0.00     0.278 C 
HETATM    4  O   UNL     1      39.282 -15.872   1.764  1.00  0.00    -0.265 OA
HETATM    5  C   UNL     1      41.292 -17.142   2.014  1.00  0.00     0.146 C 
HETATM    6  C   UNL     1      42.559 -16.738   2.173  1.00  0.00     0.059 C 
ENDROOT
BRANCH   1   7
HETATM    7  C   UNL     1      43.042 -15.137   4.112  1.00  0.00    -0.028 A 
HETATM    8  C   UNL     1      43.824 -14.047   4.549  1.00  0.00     0.012 A 
HETATM    9  C   UNL     1      44.178 -13.907   5.890  1.00  0.00     0.040 A 
HETATM   10  C   UNL     1      43.764 -14.862   6.804  1.00  0.00     0.099 A 
HETATM   11  C   UNL     1      42.986 -15.954   6.414  1.00  0.00     0.102 A 
HETATM   12  C   UNL     1      42.637 -16.096   5.067  1.00  0.00     0.049 A 
BRANCH  10  13
HETATM   13  O   UNL     1      44.127 -14.700   8.112  1.00  0.00    -0.358 OA
HETATM   14  H   UNL     1      43.827 -15.511   8.567  1.00  0.00     0.218 HD
ENDBRANCH  10  13
BRANCH  11  15
HETATM   15  O   UNL     1      42.659 -16.815   7.427  1.00  0.00    -0.349 OA
BRANCH  15  16
HETATM   16  C   UNL     1      42.977 -18.190   7.229  1.00  0.00     0.171 C 
HETATM   17  C   UNL     1      44.210 -18.500   8.060  1.00  0.00     0.034 C 
ENDBRANCH  15  16
ENDBRANCH  11  15
ENDBRANCH   1   7
BRANCH   2  18
HETATM   18  C   UNL     1      40.901 -13.493   2.201  1.00  0.00     0.129 C 
BRANCH  18  19
HETATM   19  C   UNL     1      40.938 -13.078   0.723  1.00  0.00     0.048 C 
BRANCH  19  20
HETATM   20  C   UNL     1      39.626 -13.166  -0.063  1.00  0.00     0.236 C 
BRANCH  20  21
HETATM   21  N   UNL     1      39.600 -14.256  -1.102  1.00  0.00    -0.067 N 
HETATM   22  H   UNL     1      39.185 -15.108  -0.670  1.00  0.00     0.280 HD
HETATM   23  C   UNL     1      38.816 -13.897  -2.356  1.00  0.00     0.261 C 
HETATM   24  C   UNL     1      38.885 -15.041  -3.374  1.00  0.00     0.195 C 
HETATM   25  O   UNL     1      40.241 -15.373  -3.690  1.00  0.00    -0.388 OA
HETATM   26  C   UNL     1      40.952 -15.813  -2.528  1.00  0.00     0.195 C 
HETATM   27  C   UNL     1      41.019 -14.694  -1.484  1.00  0.00     0.261 C 
ENDBRANCH  20  21
ENDBRANCH  19  20
ENDBRANCH  18  19
ENDBRANCH   2  18
BRANCH   6  28
HETATM   28  C   UNL     1      43.816 -17.473   1.918  1.00  0.00     0.193 C 
HETATM   29  O   UNL     1      44.628 -17.030   1.112  1.00  0.00    -0.287 OA
BRANCH  28  30
HETATM   30  C   UNL     1      44.061 -18.792   2.544  1.00  0.00     0.015 A 
HETATM   31  C   UNL     1      44.380 -18.910   3.902  1.00  0.00     0.016 A 
HETATM   32  C   UNL     1      44.587 -20.172   4.464  1.00  0.00     0.007 A 
HETATM   33  C   UNL     1      44.457 -21.324   3.681  1.00  0.00    -0.062 A 
HETATM   34  C   UNL     1      44.658 -22.682   4.286  1.00  0.00     0.048 C 
HETATM   35  C   UNL     1      44.076 -21.201   2.339  1.00  0.00     0.007 A 
HETATM   36  C   UNL     1      43.874 -19.940   1.771  1.00  0.00     0.016 A 
ENDBRANCH  28  30
ENDBRANCH   6  28
BRANCH   5  37
HETATM   37  O   UNL     1      40.807 -18.355   1.637  1.00  0.00    -0.355 OA
HETATM   38  H   UNL     1      40.447 -18.259   0.733  1.00  0.00     0.218 HD
ENDBRANCH   5  37
TORSDOF 11
ENDMDL
MODEL 4
REMARK VINA RESULT:      -8.1      1.826      2.547
REMARK  11 active torsions:
REMARK  status: ('A' for Active; 'I' for Inactive)
REMARK    1  A    between atoms: C_2  and  O_3 
REMARK    2  A    between atoms: O_3  and  C_4 
REMARK    3  A    between atoms: C_5  and  O_6 
REMARK    4  A    between atoms: C_9  and  C_10 
REMARK    5  A    between atoms: N_11  and  C_12 
REMARK    6  A    between atoms: C_12  and  C_13 
REMARK    7  A    between atoms: C_13  and  C_14 
REMARK    8  A    between atoms: C_14  and  N_15 
REMARK    9  A    between atoms: C_24  and  O_25 
REMARK   10  A    between atoms: C_26  and  C_27 
REMARK   11  A    between atoms: C_27  and  C_28 
ROOT
HETATM    1  C   UNL     1      42.420 -15.633   3.303  1.00  0.00     0.161 C 
HETATM    2  N   UNL     1      41.096 -15.044   3.119  1.00  0.00    -0.333 N 
HETATM    3  C   UNL     1      40.277 -15.854   2.368  1.00  0.00     0.278 C 
HETATM    4  O   UNL     1      39.161 -15.582   1.952  1.00  0.00    -0.265 OA
HETATM    5  C   UNL     1      41.086 -16.998   1.904  1.00  0.00     0.146 C 
HETATM    6  C   UNL     1      42.338 -16.775   2.324  1.00  0.00     0.059 C 
ENDROOT
BRANCH   1   7
HETATM    7  C   UNL     1      42.642 -16.033   4.756  1.00  0.00    -0.028 A 
HETATM    8  C   UNL     1      41.964 -17.124   5.339  1.00  0.00     0.012 A 
HETATM    9  C   UNL     1      42.174 -17.472   6.673  1.00  0.00     0.040 A 
HETATM   10  C   UNL     1      43.054 -16.726   7.438  1.00  0.00     0.099 A 
HETATM   11  C   UNL     1      43.749 -15.641   6.898  1.00  0.00     0.102 A 
HETATM   12  C   UNL     1      43.532 -15.290   5.562  1.00  0.00     0.049 A 
BRANCH  10  13
HETATM   13  O   UNL     1      43.240 -17.089   8.743  1.00  0.00    -0.358 OA
HETATM   14  H   UNL     1      42.679 -16.482   9.263  1.00  0.00     0.218 HD
ENDBRANCH  10  13
BRANCH  11  15
HETATM   15  O   UNL     1      44.579 -14.998   7.777  1.00  0.00    -0.349 OA
BRANCH  15  16
HETATM   16  C   UNL     1      45.024 -13.695   7.405  1.00  0.00     0.171 C 
HETATM   17  C   UNL     1      44.727 -12.761   8.565  1.00  0.00     0.034 C 
ENDBRANCH  15  16
ENDBRANCH  11  15
ENDBRANCH   1   7
BRANCH   2  18
HETATM   18  C   UNL     1      40.794 -13.652   3.394  1.00  0.00     0.129 C 
BRANCH  18  19
HETATM   19  C   UNL     1      41.637 -12.670   2.569  1.00  0.00     0.048 C 
BRANCH  19  20
HETATM   20  C   UNL     1      41.065 -11.265   2.351  1.00  0.00     0.236 C 
BRANCH  20  21
HETATM   21  N   UNL     1      39.599 -11.138   2.670  1.00  0.00    -0.067 N 
HETATM   22  H   UNL     1      39.276 -12.038   3.083  1.00  0.00     0.280 HD
HETATM   23  C   UNL     1      39.270 -10.000   3.625  1.00  0.00     0.261 C 
HETATM   24  C   UNL     1      37.757  -9.915   3.853  1.00  0.00     0.195 C 
HETATM   25  O   UNL     1      37.053  -9.770   2.615  1.00  0.00    -0.388 OA
HETATM   26  C   UNL     1      37.278 -10.892   1.756  1.00  0.00     0.195 C 
HETATM   27  C   UNL     1      38.761 -11.001   1.392  1.00  0.00     0.261 C 
ENDBRANCH  20  21
ENDBRANCH  19  20
ENDBRANCH  18  19
ENDBRANCH   2  18
BRANCH   6  28
HETATM   28  C   UNL     1      43.591 -17.456   1.937  1.00  0.00     0.193 C 
HETATM   29  O   UNL     1      44.348 -16.927   1.129  1.00  0.00    -0.287 OA
BRANCH  28  30
HETATM   30  C   UNL     1      43.896 -18.817   2.431  1.00  0.00     0.015 A 
HETATM   31  C   UNL     1      44.438 -19.030   3.705  1.00  0.00     0.016 A 
HETATM   32  C   UNL     1      44.696 -20.329   4.146  1.00  0.00     0.007 A 
HETATM   33  C   UNL     1      44.397 -21.425   3.330  1.00  0.00    -0.062 A 
HETATM   34  C   UNL     1      44.654 -22.824   3.809  1.00  0.00     0.048 C 
HETATM   35  C   UNL     1      43.797 -21.207   2.083  1.00  0.00     0.007 A 
HETATM   36  C   UNL     1      43.543 -19.909   1.635  1.00  0.00     0.016 A 
ENDBRANCH  28  30
ENDBRANCH   6  28
BRANCH   5  37
HETATM   37  O   UNL     1      40.609 -17.951   1.060  1.00  0.00    -0.355 OA
HETATM   38  H   UNL     1      41.075 -17.847   0.206  1.00  0.00     0.218 HD
ENDBRANCH   5  37
TORSDOF 11
ENDMDL
MODEL 5
REMARK VINA RESULT:      -7.7      2.931      5.785
REMARK  11 active torsions:
REMARK  status: ('A' for Active; 'I' for Inactive)
REMARK    1  A    between atoms: C_2  and  O_3 
REMARK    2  A    between atoms: O_3  and  C_4 
REMARK    3  A    between atoms: C_5  and  O_6 
REMARK    4  A    between atoms: C_9  and  C_10 
REMARK    5  A    between atoms: N_11  and  C_12 
REMARK    6  A    between atoms: C_12  and  C_13 
REMARK    7  A    between atoms: C_13  and  C_14 
REMARK    8  A    between atoms: C_14  and  N_15 
REMARK    9  A    between atoms: C_24  and  O_25 
REMARK   10  A    between atoms: C_26  and  C_27 
REMARK   11  A    between atoms: C_27  and  C_28 
ROOT
HETATM    1  C   UNL     1      40.878 -14.606   1.828  1.00  0.00     0.161 C 
HETATM    2  N   UNL     1      39.683 -13.835   2.159  1.00  0.00    -0.333 N 
HETATM    3  C   UNL     1      39.983 -12.728   2.918  1.00  0.00     0.278 C 
HETATM    4  O   UNL     1      39.187 -11.962   3.442  1.00  0.00    -0.265 OA
HETATM    5  C   UNL     1      41.423 -12.784   3.237  1.00  0.00     0.146 C 
HETATM    6  C   UNL     1      41.880 -13.937   2.733  1.00  0.00     0.059 C 
ENDROOT
BRANCH   1   7
HETATM    7  C   UNL     1      41.186 -14.524   0.339  1.00  0.00    -0.028 A 
HETATM    8  C   UNL     1      40.895 -15.588  -0.541  1.00  0.00     0.012 A 
HETATM    9  C   UNL     1      41.192 -15.499  -1.900  1.00  0.00     0.040 A 
HETATM   10  C   UNL     1      41.791 -14.351  -2.390  1.00  0.00     0.099 A 
HETATM   11  C   UNL     1      42.092 -13.274  -1.553  1.00  0.00     0.102 A 
HETATM   12  C   UNL     1      41.801 -13.367  -0.189  1.00  0.00     0.049 A 
BRANCH  10  13
HETATM   13  O   UNL     1      42.071 -14.291  -3.727  1.00  0.00    -0.358 OA
HETATM   14  H   UNL     1      41.683 -15.101  -4.110  1.00  0.00     0.218 HD
ENDBRANCH  10  13
BRANCH  11  15
HETATM   15  O   UNL     1      42.688 -12.211  -2.180  1.00  0.00    -0.349 OA
BRANCH  15  16
HETATM   16  C   UNL     1      42.356 -10.912  -1.698  1.00  0.00     0.171 C 
HETATM   17  C   UNL     1      43.652 -10.218  -1.318  1.00  0.00     0.034 C 
ENDBRANCH  15  16
ENDBRANCH  11  15
ENDBRANCH   1   7
BRANCH   2  18
HETATM   18  C   UNL     1      38.333 -14.343   2.003  1.00  0.00     0.129 C 
BRANCH  18  19
HETATM   19  C   UNL     1      37.740 -14.079   0.612  1.00  0.00     0.048 C 
BRANCH  19  20
HETATM   20  C   UNL     1      37.570 -12.616   0.187  1.00  0.00     0.236 C 
BRANCH  20  21
HETATM   21  N   UNL     1      37.784 -12.371  -1.283  1.00  0.00    -0.067 N 
HETATM   22  H   UNL     1      36.877 -12.075  -1.700  1.00  0.00     0.280 HD
HETATM   23  C   UNL     1      38.843 -11.320  -1.586  1.00  0.00     0.261 C 
HETATM   24  C   UNL     1      39.028 -11.171  -3.100  1.00  0.00     0.195 C 
HETATM   25  O   UNL     1      39.355 -12.425  -3.708  1.00  0.00    -0.388 OA
HETATM   26  C   UNL     1      38.312 -13.385  -3.513  1.00  0.00     0.195 C 
HETATM   27  C   UNL     1      38.118 -13.672  -2.022  1.00  0.00     0.261 C 
ENDBRANCH  20  21
ENDBRANCH  19  20
ENDBRANCH  18  19
ENDBRANCH   2  18
BRANCH   6  28
HETATM   28  C   UNL     1      43.171 -14.617   2.970  1.00  0.00     0.193 C 
HETATM   29  O   UNL     1      44.168 -13.954   3.239  1.00  0.00    -0.287 OA
BRANCH  28  30
HETATM   30  C   UNL     1      43.302 -16.079   2.783  1.00  0.00     0.015 A 
HETATM   31  C   UNL     1      42.795 -16.986   3.721  1.00  0.00     0.016 A 
HETATM   32  C   UNL     1      42.919 -18.360   3.504  1.00  0.00     0.007 A 
HETATM   33  C   UNL     1      43.531 -18.838   2.340  1.00  0.00    -0.062 A 
HETATM   34  C   UNL     1      43.647 -20.314   2.094  1.00  0.00     0.048 C 
HETATM   35  C   UNL     1      43.979 -17.926   1.377  1.00  0.00     0.007 A 
HETATM   36  C   UNL     1      43.862 -16.551   1.594  1.00  0.00     0.016 A 
ENDBRANCH  28  30
ENDBRANCH   6  28
BRANCH   5  37
HETATM   37  O   UNL     1      42.038 -11.887   4.052  1.00  0.00    -0.355 OA
HETATM   38  H   UNL     1      42.491 -12.392   4.757  1.00  0.00     0.218 HD
ENDBRANCH   5  37
TORSDOF 11
ENDMDL
MODEL 6
REMARK VINA RESULT:      -7.7      2.920      6.394
REMARK  11 active torsions:
REMARK  status: ('A' for Active; 'I' for Inactive)
REMARK    1  A    between atoms: C_2  and  O_3 
REMARK    2  A    between atoms: O_3  and  C_4 
REMARK    3  A    between atoms: C_5  and  O_6 
REMARK    4  A    between atoms: C_9  and  C_10 
REMARK    5  A    between atoms: N_11  and  C_12 
REMARK    6  A    between atoms: C_12  and  C_13 
REMARK    7  A    between atoms: C_13  and  C_14 
REMARK    8  A    between atoms: C_14  and  N_15 
REMARK    9  A    between atoms: C_24  and  O_25 
REMARK   10  A    between atoms: C_26  and  C_27 
REMARK   11  A    between atoms: C_27  and  C_28 
ROOT
HETATM    1  C   UNL     1      40.869 -14.432   1.519  1.00  0.00     0.161 C 
HETATM    2  N   UNL     1      39.626 -13.759   1.891  1.00  0.00    -0.333 N 
HETATM    3  C   UNL     1      39.824 -12.839   2.893  1.00  0.00     0.278 C 
HETATM    4  O   UNL     1      38.962 -12.209   3.489  1.00  0.00    -0.265 OA
HETATM    5  C   UNL     1      41.230 -12.949   3.328  1.00  0.00     0.146 C 
HETATM    6  C   UNL     1      41.764 -13.964   2.636  1.00  0.00     0.059 C 
ENDROOT
BRANCH   1   7
HETATM    7  C   UNL     1      41.309 -14.030   0.118  1.00  0.00    -0.028 A 
HETATM    8  C   UNL     1      42.062 -12.860  -0.120  1.00  0.00     0.012 A 
HETATM    9  C   UNL     1      42.450 -12.503  -1.410  1.00  0.00     0.040 A 
HETATM   10  C   UNL     1      42.079 -13.306  -2.476  1.00  0.00     0.099 A 
HETATM   11  C   UNL     1      41.337 -14.473  -2.284  1.00  0.00     0.102 A 
HETATM   12  C   UNL     1      40.944 -14.826  -0.990  1.00  0.00     0.049 A 
BRANCH  10  13
HETATM   13  O   UNL     1      42.472 -12.931  -3.731  1.00  0.00    -0.358 OA
HETATM   14  H   UNL     1      41.658 -12.932  -4.269  1.00  0.00     0.218 HD
ENDBRANCH  10  13
BRANCH  11  15
HETATM   15  O   UNL     1      41.042 -15.159  -3.433  1.00  0.00    -0.349 OA
BRANCH  15  16
HETATM   16  C   UNL     1      40.153 -16.266  -3.309  1.00  0.00     0.171 C 
HETATM   17  C   UNL     1      39.042 -16.078  -4.328  1.00  0.00     0.034 C 
ENDBRANCH  15  16
ENDBRANCH  11  15
ENDBRANCH   1   7
BRANCH   2  18
HETATM   18  C   UNL     1      38.312 -14.234   1.501  1.00  0.00     0.129 C 
BRANCH  18  19
HETATM   19  C   UNL     1      37.561 -13.261   0.581  1.00  0.00     0.048 C 
BRANCH  19  20
HETATM   20  C   UNL     1      37.673 -13.495  -0.929  1.00  0.00     0.236 C 
BRANCH  20  21
HETATM   21  N   UNL     1      37.999 -12.258  -1.723  1.00  0.00    -0.067 N 
HETATM   22  H   UNL     1      37.112 -11.746  -1.909  1.00  0.00     0.280 HD
HETATM   23  C   UNL     1      38.984 -11.323  -1.034  1.00  0.00     0.261 C 
HETATM   24  C   UNL     1      39.295 -10.120  -1.932  1.00  0.00     0.195 C 
HETATM   25  O   UNL     1      39.787 -10.540  -3.209  1.00  0.00    -0.388 OA
HETATM   26  C   UNL     1      38.820 -11.333  -3.904  1.00  0.00     0.195 C 
HETATM   27  C   UNL     1      38.515 -12.614  -3.122  1.00  0.00     0.261 C 
ENDBRANCH  20  21
ENDBRANCH  19  20
ENDBRANCH  18  19
ENDBRANCH   2  18
BRANCH   6  28
HETATM   28  C   UNL     1      43.047 -14.667   2.845  1.00  0.00     0.193 C 
HETATM   29  O   UNL     1      44.051 -14.028   3.146  1.00  0.00    -0.287 OA
BRANCH  28  30
HETATM   30  C   UNL     1      43.162 -16.121   2.594  1.00  0.00     0.015 A 
HETATM   31  C   UNL     1      43.768 -16.618   1.433  1.00  0.00     0.016 A 
HETATM   32  C   UNL     1      43.877 -17.996   1.236  1.00  0.00     0.007 A 
HETATM   33  C   UNL     1      43.400 -18.887   2.203  1.00  0.00    -0.062 A 
HETATM   34  C   UNL     1      43.533 -20.369   2.005  1.00  0.00     0.048 C 
HETATM   35  C   UNL     1      42.852 -18.383   3.389  1.00  0.00     0.007 A 
HETATM   36  C   UNL     1      42.737 -17.005   3.587  1.00  0.00     0.016 A 
ENDBRANCH  28  30
ENDBRANCH   6  28
BRANCH   5  37
HETATM   37  O   UNL     1      41.742 -12.243   4.371  1.00  0.00    -0.355 OA
HETATM   38  H   UNL     1      41.574 -11.295   4.194  1.00  0.00     0.218 HD
ENDBRANCH   5  37
TORSDOF 11
ENDMDL
MODEL 7
REMARK VINA RESULT:      -7.7      2.735      5.121
REMARK  11 active torsions:
REMARK  status: ('A' for Active; 'I' for Inactive)
REMARK    1  A    between atoms: C_2  and  O_3 
REMARK    2  A    between atoms: O_3  and  C_4 
REMARK    3  A    between atoms: C_5  and  O_6 
REMARK    4  A    between atoms: C_9  and  C_10 
REMARK    5  A    between atoms: N_11  and  C_12 
REMARK    6  A    between atoms: C_12  and  C_13 
REMARK    7  A    between atoms: C_13  and  C_14 
REMARK    8  A    between atoms: C_14  and  N_15 
REMARK    9  A    between atoms: C_24  and  O_25 
REMARK   10  A    between atoms: C_26  and  C_27 
REMARK   11  A    between atoms: C_27  and  C_28 
ROOT
HETATM    1  C   UNL     1      41.530 -13.932   2.822  1.00  0.00     0.161 C 
HETATM    2  N   UNL     1      40.515 -12.935   3.154  1.00  0.00    -0.333 N 
HETATM    3  C   UNL     1      39.330 -13.175   2.501  1.00  0.00     0.278 C 
HETATM    4  O   UNL     1      38.342 -12.454   2.486  1.00  0.00    -0.265 OA
HETATM    5  C   UNL     1      39.549 -14.310   1.583  1.00  0.00     0.146 C 
HETATM    6  C   UNL     1      40.847 -14.628   1.674  1.00  0.00     0.059 C 
ENDROOT
BRANCH   1   7
HETATM    7  C   UNL     1      41.844 -14.812   4.025  1.00  0.00    -0.028 A 
HETATM    8  C   UNL     1      40.967 -15.831   4.452  1.00  0.00     0.012 A 
HETATM    9  C   UNL     1      41.267 -16.621   5.560  1.00  0.00     0.040 A 
HETATM   10  C   UNL     1      42.441 -16.394   6.258  1.00  0.00     0.099 A 
HETATM   11  C   UNL     1      43.339 -15.398   5.866  1.00  0.00     0.102 A 
HETATM   12  C   UNL     1      43.033 -14.602   4.758  1.00  0.00     0.049 A 
BRANCH  10  13
HETATM   13  O   UNL     1      42.710 -17.184   7.341  1.00  0.00    -0.358 OA
HETATM   14  H   UNL     1      42.508 -18.095   7.054  1.00  0.00     0.218 HD
ENDBRANCH  10  13
BRANCH  11  15
HETATM   15  O   UNL     1      44.453 -15.288   6.656  1.00  0.00    -0.349 OA
BRANCH  15  16
HETATM   16  C   UNL     1      45.118 -14.027   6.656  1.00  0.00     0.171 C 
HETATM   17  C   UNL     1      44.720 -13.300   7.929  1.00  0.00     0.034 C 
ENDBRANCH  15  16
ENDBRANCH  11  15
ENDBRANCH   1   7
BRANCH   2  18
HETATM   18  C   UNL     1      40.815 -11.676   3.810  1.00  0.00     0.129 C 
BRANCH  18  19
HETATM   19  C   UNL     1      40.502 -11.682   5.313  1.00  0.00     0.048 C 
BRANCH  19  20
HETATM   20  C   UNL     1      41.675 -11.469   6.276  1.00  0.00     0.236 C 
BRANCH  20  21
HETATM   21  N   UNL     1      41.286 -11.459   7.731  1.00  0.00    -0.067 N 
HETATM   22  H   UNL     1      41.276 -12.442   8.073  1.00  0.00     0.280 HD
HETATM   23  C   UNL     1      42.211 -10.630   8.611  1.00  0.00     0.261 C 
HETATM   24  C   UNL     1      41.714 -10.637  10.061  1.00  0.00     0.195 C 
HETATM   25  O   UNL     1      40.363 -10.170  10.148  1.00  0.00    -0.388 OA
HETATM   26  C   UNL     1      39.475 -11.010   9.404  1.00  0.00     0.195 C 
HETATM   27  C   UNL     1      39.838 -10.992   7.917  1.00  0.00     0.261 C 
ENDBRANCH  20  21
ENDBRANCH  19  20
ENDBRANCH  18  19
ENDBRANCH   2  18
BRANCH   6  28
HETATM   28  C   UNL     1      41.658 -15.509   0.808  1.00  0.00     0.193 C 
HETATM   29  O   UNL     1      41.721 -15.289  -0.397  1.00  0.00    -0.287 OA
BRANCH  28  30
HETATM   30  C   UNL     1      42.312 -16.717   1.359  1.00  0.00     0.015 A 
HETATM   31  C   UNL     1      41.593 -17.894   1.601  1.00  0.00     0.016 A 
HETATM   32  C   UNL     1      42.246 -19.021   2.104  1.00  0.00     0.007 A 
HETATM   33  C   UNL     1      43.623 -18.989   2.350  1.00  0.00    -0.062 A 
HETATM   34  C   UNL     1      44.331 -20.205   2.872  1.00  0.00     0.048 C 
HETATM   35  C   UNL     1      44.346 -17.829   2.046  1.00  0.00     0.007 A 
HETATM   36  C   UNL     1      43.696 -16.697   1.548  1.00  0.00     0.016 A 
ENDBRANCH  28  30
ENDBRANCH   6  28
BRANCH   5  37
HETATM   37  O   UNL     1      38.603 -14.755   0.714  1.00  0.00    -0.355 OA
HETATM   38  H   UNL     1      38.273 -15.611   1.052  1.00  0.00     0.218 HD
ENDBRANCH   5  37
TORSDOF 11
ENDMDL
MODEL 8
REMARK VINA RESULT:      -7.5      2.191      3.981
REMARK  11 active torsions:
REMARK  status: ('A' for Active; 'I' for Inactive)
REMARK    1  A    between atoms: C_2  and  O_3 
REMARK    2  A    between atoms: O_3  and  C_4 
REMARK    3  A    between atoms: C_5  and  O_6 
REMARK    4  A    between atoms: C_9  and  C_10 
REMARK    5  A    between atoms: N_11  and  C_12 
REMARK    6  A    between atoms: C_12  and  C_13 
REMARK    7  A    between atoms: C_13  and  C_14 
REMARK    8  A    between atoms: C_14  and  N_15 
REMARK    9  A    between atoms: C_24  and  O_25 
REMARK   10  A    between atoms: C_26  and  C_27 
REMARK   11  A    between atoms: C_27  and  C_28 
ROOT
HETATM    1  C   UNL     1      43.053 -14.192   5.706  1.00  0.00     0.161 C 
HETATM    2  N   UNL     1      41.942 -13.458   5.106  1.00  0.00    -0.333 N 
HETATM    3  C   UNL     1      40.730 -14.038   5.396  1.00  0.00     0.278 C 
HETATM    4  O   UNL     1      39.640 -13.723   4.942  1.00  0.00    -0.265 OA
HETATM    5  C   UNL     1      41.000 -15.293   6.124  1.00  0.00     0.146 C 
HETATM    6  C   UNL     1      42.332 -15.435   6.158  1.00  0.00     0.059 C 
ENDROOT
BRANCH   1   7
HETATM    7  C   UNL     1      43.710 -13.379   6.814  1.00  0.00    -0.028 A 
HETATM    8  C   UNL     1      45.002 -13.682   7.294  1.00  0.00     0.012 A 
HETATM    9  C   UNL     1      45.584 -12.932   8.314  1.00  0.00     0.040 A 
HETATM   10  C   UNL     1      44.877 -11.880   8.871  1.00  0.00     0.099 A 
HETATM   11  C   UNL     1      43.598 -11.544   8.422  1.00  0.00     0.102 A 
HETATM   12  C   UNL     1      43.012 -12.302   7.403  1.00  0.00     0.049 A 
BRANCH  10  13
HETATM   13  O   UNL     1      45.472 -11.162   9.871  1.00  0.00    -0.358 OA
HETATM   14  H   UNL     1      45.039 -11.456  10.695  1.00  0.00     0.218 HD
ENDBRANCH  10  13
BRANCH  11  15
HETATM   15  O   UNL     1      43.023 -10.485   9.073  1.00  0.00    -0.349 OA
BRANCH  15  16
HETATM   16  C   UNL     1      41.784 -10.733   9.734  1.00  0.00     0.171 C 
HETATM   17  C   UNL     1      42.095 -11.050  11.186  1.00  0.00     0.034 C 
ENDBRANCH  15  16
ENDBRANCH  11  15
ENDBRANCH   1   7
BRANCH   2  18
HETATM   18  C   UNL     1      42.111 -12.457   4.069  1.00  0.00     0.129 C 
BRANCH  18  19
HETATM   19  C   UNL     1      42.300 -13.057   2.668  1.00  0.00     0.048 C 
BRANCH  19  20
HETATM   20  C   UNL     1      41.077 -13.082   1.745  1.00  0.00     0.236 C 
BRANCH  20  21
HETATM   21  N   UNL     1      40.773 -14.434   1.158  1.00  0.00    -0.067 N 
HETATM   22  H   UNL     1      39.776 -14.444   0.858  1.00  0.00     0.280 HD
HETATM   23  C   UNL     1      41.657 -14.807  -0.025  1.00  0.00     0.261 C 
HETATM   24  C   UNL     1      41.312 -16.214  -0.525  1.00  0.00     0.195 C 
HETATM   25  O   UNL     1      41.422 -17.180   0.526  1.00  0.00    -0.388 OA
HETATM   26  C   UNL     1      40.516 -16.889   1.595  1.00  0.00     0.195 C 
HETATM   27  C   UNL     1      40.845 -15.533   2.225  1.00  0.00     0.261 C 
ENDBRANCH  20  21
ENDBRANCH  19  20
ENDBRANCH  18  19
ENDBRANCH   2  18
BRANCH   6  28
HETATM   28  C   UNL     1      43.139 -16.614   6.535  1.00  0.00     0.193 C 
HETATM   29  O   UNL     1      43.587 -16.707   7.673  1.00  0.00    -0.287 OA
BRANCH  28  30
HETATM   30  C   UNL     1      43.505 -17.634   5.527  1.00  0.00     0.015 A 
HETATM   31  C   UNL     1      43.197 -17.467   4.171  1.00  0.00     0.016 A 
HETATM   32  C   UNL     1      43.573 -18.441   3.243  1.00  0.00     0.007 A 
HETATM   33  C   UNL     1      44.276 -19.577   3.658  1.00  0.00    -0.062 A 
HETATM   34  C   UNL     1      44.700 -20.616   2.661  1.00  0.00     0.048 C 
HETATM   35  C   UNL     1      44.635 -19.707   5.006  1.00  0.00     0.007 A 
HETATM   36  C   UNL     1      44.255 -18.737   5.937  1.00  0.00     0.016 A 
ENDBRANCH  28  30
ENDBRANCH   6  28
BRANCH   5  37
HETATM   37  O   UNL     1      40.024 -16.167   6.485  1.00  0.00    -0.355 OA
HETATM   38  H   UNL     1      39.349 -15.664   6.983  1.00  0.00     0.218 HD
ENDBRANCH   5  37
TORSDOF 11
ENDMDL
MODEL 9
REMARK VINA RESULT:      -7.5      1.993      3.093
REMARK  11 active torsions:
REMARK  status: ('A' for Active; 'I' for Inactive)
REMARK    1  A    between atoms: C_2  and  O_3 
REMARK    2  A    between atoms: O_3  and  C_4 
REMARK    3  A    between atoms: C_5  and  O_6 
REMARK    4  A    between atoms: C_9  and  C_10 
REMARK    5  A    between atoms: N_11  and  C_12 
REMARK    6  A    between atoms: C_12  and  C_13 
REMARK    7  A    between atoms: C_13  and  C_14 
REMARK    8  A    between atoms: C_14  and  N_15 
REMARK    9  A    between atoms: C_24  and  O_25 
REMARK   10  A    between atoms: C_26  and  C_27 
REMARK   11  A    between atoms: C_27  and  C_28 
ROOT
HETATM    1  C   UNL     1      42.570 -14.748   1.721  1.00  0.00     0.161 C 
HETATM    2  N   UNL     1      41.415 -14.133   1.073  1.00  0.00    -0.333 N 
HETATM    3  C   UNL     1      40.431 -15.054   0.802  1.00  0.00     0.278 C 
HETATM    4  O   UNL     1      39.405 -14.864   0.165  1.00  0.00    -0.265 OA
HETATM    5  C   UNL     1      40.956 -16.386   1.161  1.00  0.00     0.146 C 
HETATM    6  C   UNL     1      42.227 -16.204   1.541  1.00  0.00     0.059 C 
ENDROOT
BRANCH   1   7
HETATM    7  C   UNL     1      42.698 -14.281   3.165  1.00  0.00    -0.028 A 
HETATM    8  C   UNL     1      43.953 -14.160   3.800  1.00  0.00     0.012 A 
HETATM    9  C   UNL     1      44.051 -13.739   5.125  1.00  0.00     0.040 A 
HETATM   10  C   UNL     1      42.896 -13.447   5.831  1.00  0.00     0.099 A 
HETATM   11  C   UNL     1      41.635 -13.550   5.239  1.00  0.00     0.102 A 
HETATM   12  C   UNL     1      41.538 -13.979   3.912  1.00  0.00     0.049 A 
BRANCH  10  13
HETATM   13  O   UNL     1      43.022 -13.037   7.130  1.00  0.00    -0.358 OA
HETATM   14  H   UNL     1      43.684 -12.319   7.112  1.00  0.00     0.218 HD
ENDBRANCH  10  13
BRANCH  11  15
HETATM   15  O   UNL     1      40.588 -13.233   6.064  1.00  0.00    -0.349 OA
BRANCH  15  16
HETATM   16  C   UNL     1      39.588 -12.369   5.529  1.00  0.00     0.171 C 
HETATM   17  C   UNL     1      40.129 -10.951   5.588  1.00  0.00     0.034 C 
ENDBRANCH  15  16
ENDBRANCH  11  15
ENDBRANCH   1   7
BRANCH   2  18
HETATM   18  C   UNL     1      41.438 -12.806   0.487  1.00  0.00     0.129 C 
BRANCH  18  19
HETATM   19  C   UNL     1      42.063 -12.769  -0.915  1.00  0.00     0.048 C 
BRANCH  19  20
HETATM   20  C   UNL     1      41.116 -12.563  -2.101  1.00  0.00     0.236 C 
BRANCH  20  21
HETATM   21  N   UNL     1      40.247 -13.753  -2.412  1.00  0.00    -0.067 N 
HETATM   22  H   UNL     1      39.893 -14.143  -1.514  1.00  0.00     0.280 HD
HETATM   23  C   UNL     1      39.069 -13.437  -3.322  1.00  0.00     0.261 C 
HETATM   24  C   UNL     1      38.271 -14.711  -3.624  1.00  0.00     0.195 C 
HETATM   25  O   UNL     1      39.107 -15.723  -4.195  1.00  0.00    -0.388 OA
HETATM   26  C   UNL     1      40.157 -16.098  -3.296  1.00  0.00     0.195 C 
HETATM   27  C   UNL     1      41.069 -14.902  -3.009  1.00  0.00     0.261 C 
ENDBRANCH  20  21
ENDBRANCH  19  20
ENDBRANCH  18  19
ENDBRANCH   2  18
BRANCH   6  28
HETATM   28  C   UNL     1      43.292 -17.205   1.762  1.00  0.00     0.193 C 
HETATM   29  O   UNL     1      44.041 -17.512   0.841  1.00  0.00    -0.287 OA
BRANCH  28  30
HETATM   30  C   UNL     1      43.399 -17.922   3.053  1.00  0.00     0.015 A 
HETATM   31  C   UNL     1      42.563 -17.615   4.133  1.00  0.00     0.016 A 
HETATM   32  C   UNL     1      42.679 -18.324   5.331  1.00  0.00     0.007 A 
HETATM   33  C   UNL     1      43.615 -19.357   5.452  1.00  0.00    -0.062 A 
HETATM   34  C   UNL     1      43.728 -20.136   6.730  1.00  0.00     0.048 C 
HETATM   35  C   UNL     1      44.403 -19.701   4.346  1.00  0.00     0.007 A 
HETATM   36  C   UNL     1      44.294 -18.990   3.149  1.00  0.00     0.016 A 
ENDBRANCH  28  30
ENDBRANCH   6  28
BRANCH   5  37
HETATM   37  O   UNL     1      40.273 -17.539   0.935  1.00  0.00    -0.355 OA
HETATM   38  H   UNL     1      40.478 -17.828   0.024  1.00  0.00     0.218 HD
ENDBRANCH   5  37
TORSDOF 11
ENDMDL
MODEL 10
REMARK VINA RESULT:      -7.5      3.215      6.738
REMARK  11 active torsions:
REMARK  status: ('A' for Active; 'I' for Inactive)
REMARK    1  A    between atoms: C_2  and  O_3 
REMARK    2  A    between atoms: O_3  and  C_4 
REMARK    3  A    between atoms: C_5  and  O_6 
REMARK    4  A    between atoms: C_9  and  C_10 
REMARK    5  A    between atoms: N_11  and  C_12 
REMARK    6  A    between atoms: C_12  and  C_13 
REMARK    7  A    between atoms: C_13  and  C_14 
REMARK    8  A    between atoms: C_14  and  N_15 
REMARK    9  A    between atoms: C_24  and  O_25 
REMARK   10  A    between atoms: C_26  and  C_27 
REMARK   11  A    between atoms: C_27  and  C_28 
ROOT
HETATM    1  C   UNL     1      42.092 -12.636   4.574  1.00  0.00     0.161 C 
HETATM    2  N   UNL     1      41.039 -11.857   5.219  1.00  0.00    -0.333 N 
HETATM    3  C   UNL     1      39.811 -12.085   4.644  1.00  0.00     0.278 C 
HETATM    4  O   UNL     1      38.767 -11.496   4.888  1.00  0.00    -0.265 OA
HETATM    5  C   UNL     1      40.021 -12.962   3.476  1.00  0.00     0.146 C 
HETATM    6  C   UNL     1      41.344 -13.141   3.368  1.00  0.00     0.059 C 
ENDROOT
BRANCH   1   7
HETATM    7  C   UNL     1      42.626 -13.713   5.509  1.00  0.00    -0.028 A 
HETATM    8  C   UNL     1      43.798 -13.524   6.271  1.00  0.00     0.012 A 
HETATM    9  C   UNL     1      44.277 -14.523   7.116  1.00  0.00     0.040 A 
HETATM   10  C   UNL     1      43.594 -15.725   7.200  1.00  0.00     0.099 A 
HETATM   11  C   UNL     1      42.427 -15.952   6.466  1.00  0.00     0.102 A 
HETATM   12  C   UNL     1      41.952 -14.950   5.613  1.00  0.00     0.049 A 
BRANCH  10  13
HETATM   13  O   UNL     1      44.086 -16.689   8.036  1.00  0.00    -0.358 OA
HETATM   14  H   UNL     1      44.038 -16.303   8.932  1.00  0.00     0.218 HD
ENDBRANCH  10  13
BRANCH  11  15
HETATM   15  O   UNL     1      41.868 -17.189   6.648  1.00  0.00    -0.349 OA
BRANCH  15  16
HETATM   16  C   UNL     1      41.812 -18.042   5.507  1.00  0.00     0.171 C 
HETATM   17  C   UNL     1      43.072 -18.889   5.506  1.00  0.00     0.034 C 
ENDBRANCH  15  16
ENDBRANCH  11  15
ENDBRANCH   1   7
BRANCH   2  18
HETATM   18  C   UNL     1      41.299 -10.744   6.112  1.00  0.00     0.129 C 
BRANCH  18  19
HETATM   19  C   UNL     1      41.101 -11.093   7.594  1.00  0.00     0.048 C 
BRANCH  19  20
HETATM   20  C   UNL     1      42.243 -10.746   8.555  1.00  0.00     0.236 C 
BRANCH  20  21
HETATM   21  N   UNL     1      42.042 -11.250   9.960  1.00  0.00    -0.067 N 
HETATM   22  H   UNL     1      41.971 -12.288   9.927  1.00  0.00     0.280 HD
HETATM   23  C   UNL     1      43.152 -10.853  10.923  1.00  0.00     0.261 C 
HETATM   24  C   UNL     1      42.842 -11.364  12.334  1.00  0.00     0.195 C 
HETATM   25  O   UNL     1      41.570 -10.891  12.789  1.00  0.00    -0.388 OA
HETATM   26  C   UNL     1      40.512 -11.352  11.942  1.00  0.00     0.195 C 
HETATM   27  C   UNL     1      40.686 -10.808  10.522  1.00  0.00     0.261 C 
ENDBRANCH  20  21
ENDBRANCH  19  20
ENDBRANCH  18  19
ENDBRANCH   2  18
BRANCH   6  28
HETATM   28  C   UNL     1      42.124 -13.715   2.251  1.00  0.00     0.193 C 
HETATM   29  O   UNL     1      42.525 -12.986   1.350  1.00  0.00    -0.287 OA
BRANCH  28  30
HETATM   30  C   UNL     1      42.336 -15.176   2.150  1.00  0.00     0.015 A 
HETATM   31  C   UNL     1      41.344 -16.028   1.649  1.00  0.00     0.016 A 
HETATM   32  C   UNL     1      41.586 -17.400   1.549  1.00  0.00     0.007 A 
HETATM   33  C   UNL     1      42.824 -17.929   1.930  1.00  0.00    -0.062 A 
HETATM   34  C   UNL     1      43.094 -19.400   1.805  1.00  0.00     0.048 C 
HETATM   35  C   UNL     1      43.833 -17.063   2.370  1.00  0.00     0.007 A 
HETATM   36  C   UNL     1      43.593 -15.691   2.477  1.00  0.00     0.016 A 
ENDBRANCH  28  30
ENDBRANCH   6  28
BRANCH   5  37
HETATM   37  O   UNL     1      39.023 -13.314   2.622  1.00  0.00    -0.355 OA
HETATM   38  H   UNL     1      39.441 -13.653   1.806  1.00  0.00     0.218 HD
ENDBRANCH   5  37
TORSDOF 11
ENDMDL
