MODEL 1
REMARK VINA RESULT:      -7.7      0.000      0.000
REMARK  7 active torsions:
REMARK  status: ('A' for Active; 'I' for Inactive)
REMARK    1  A    between atoms: C_6  and  O_7 
REMARK    2  A    between atoms: O_7  and  C_8 
REMARK    3  A    between atoms: C_11  and  C_12 
REMARK       I    between atoms: C_12  and  N_13 
REMARK    4  A    between atoms: N_13  and  C_14 
REMARK    5  A    between atoms: N_22  and  C_23 
REMARK    6  A    between atoms: C_23  and  C_24 
REMARK    7  A    between atoms: C_24  and  O_25 
ROOT
HETATM    1  C           1      41.437 -12.110  -1.751  0.00  0.00     0.113 A 
HETATM    2  C           1      41.497 -11.016  -2.547  0.00  0.00     0.102 A 
HETATM    3  C           1      41.551 -11.975  -0.413  0.00  0.00     0.002 A 
HETATM    4  C           1      41.447 -13.187   0.480  0.00  0.00     0.138 C 
HETATM    5  C           1      41.736 -14.465  -0.318  0.00  0.00     0.161 C 
HETATM    6  C           1      40.780 -14.392  -1.528  0.00  0.00     0.155 C 
HETATM    7  C           1      40.930 -15.659  -2.386  0.00  0.00     0.072 C 
HETATM    8  N           1      39.379 -14.167  -1.105  0.00  0.00    -0.323 N 
HETATM    9  C           1      39.063 -13.748   0.180  0.00  0.00     0.172 C 
HETATM   10  S           1      37.596 -13.686   0.766  0.00  0.00    -0.041 SA
HETATM   11  N           1      40.072 -13.244   0.963  0.00  0.00    -0.357 N 
HETATM   12  O           1      41.215 -13.329  -2.342  0.00  0.00    -0.316 OA
HETATM   13  C           1      41.744 -10.768   0.139  0.00  0.00     0.012 A 
HETATM   14  C           1      41.820  -9.682  -0.639  0.00  0.00     0.003 A 
HETATM   15  C           1      41.693  -9.815  -1.967  0.00  0.00     0.040 A 
HETATM   16  H           1      39.847 -12.841   1.873  0.00  0.00     0.162 HD
ENDROOT
BRANCH   5  17
HETATM   17  C           1      41.673 -15.725   0.556  0.00  0.00     0.233 C 
HETATM   18  N           1      42.885 -16.136   1.029  0.00  0.00    -0.326 N 
HETATM   19  H           1      43.679 -15.557   0.800  0.00  0.00     0.169 HD
HETATM   20  O           1      40.627 -16.262   0.823  0.00  0.00    -0.273 OA
BRANCH  18  21
HETATM   21  C           1      43.288 -17.181   1.784  0.00  0.00     0.040 A 
HETATM   22  C           1      43.463 -16.946   3.102  0.00  0.00    -0.035 A 
HETATM   23  C           1      43.211 -15.581   3.710  0.00  0.00     0.050 C 
HETATM   24  C           1      43.866 -17.948   3.906  0.00  0.00     0.015 A 
HETATM   25  C           1      44.109 -19.185   3.446  0.00  0.00    -0.061 A 
HETATM   26  C           1      44.558 -20.281   4.382  0.00  0.00     0.048 C 
HETATM   27  C           1      43.933 -19.408   2.133  0.00  0.00     0.009 A 
HETATM   28  C           1      43.531 -18.420   1.320  0.00  0.00     0.030 A 
ENDBRANCH  18  21
ENDBRANCH   5  17
BRANCH   8  29
HETATM   29  C           1      38.363 -14.245  -2.162  0.00  0.00     0.154 C 
BRANCH  29  30
HETATM   30  C           1      37.982 -12.875  -2.731  0.00  0.00     0.187 C 
BRANCH  30  31
HETATM   31  O           1      37.176 -13.068  -3.868  0.00  0.00    -0.394 OA
HETATM   32  C           1      36.931 -14.435  -4.124  0.00  0.00     0.201 C 
ENDBRANCH  30  31
ENDBRANCH  29  30
ENDBRANCH   8  29
BRANCH   2  33
HETATM   33  O           1      41.352 -11.208  -3.903  0.00  0.00    -0.349 OA
BRANCH  33  34
HETATM   34  C           1      42.459 -11.039  -4.748  0.00  0.00     0.171 C 
HETATM   35  C           1      42.285  -9.733  -5.519  0.00  0.00     0.034 C 
ENDBRANCH  33  34
ENDBRANCH   2  33
TORSDOF 7
ENDMDL
MODEL 2
REMARK VINA RESULT:      -7.7      2.165      3.534
REMARK  7 active torsions:
REMARK  status: ('A' for Active; 'I' for Inactive)
REMARK    1  A    between atoms: C_6  and  O_7 
REMARK    2  A    between atoms: O_7  and  C_8 
REMARK    3  A    between atoms: C_11  and  C_12 
REMARK       I    between atoms: C_12  and  N_13 
REMARK    4  A    between atoms: N_13  and  C_14 
REMARK    5  A    between atoms: N_22  and  C_23 
REMARK    6  A    between atoms: C_23  and  C_24 
REMARK    7  A    between atoms: C_24  and  O_25 
ROOT
HETATM    1  C           1      39.792 -13.772  -1.435  0.00  0.00     0.113 A 
HETATM    2  C           1      39.154 -13.453  -2.586  0.00  0.00     0.102 A 
HETATM    3  C           1      41.107 -13.502  -1.298  0.00  0.00     0.002 A 
HETATM    4  C           1      41.814 -13.823  -0.003  0.00  0.00     0.138 C 
HETATM    5  C           1      41.031 -14.882   0.784  0.00  0.00     0.161 C 
HETATM    6  C           1      39.598 -14.315   0.879  0.00  0.00     0.155 C 
HETATM    7  C           1      38.717 -15.266   1.707  0.00  0.00     0.072 C 
HETATM    8  N           1      39.590 -12.936   1.419  0.00  0.00    -0.323 N 
HETATM    9  C           1      40.749 -12.176   1.495  0.00  0.00     0.172 C 
HETATM   10  S           1      40.860 -10.787   2.241  0.00  0.00    -0.041 SA
HETATM   11  N           1      41.845 -12.593   0.781  0.00  0.00    -0.357 N 
HETATM   12  O           1      39.054 -14.328  -0.419  0.00  0.00    -0.316 OA
HETATM   13  C           1      41.798 -12.937  -2.299  0.00  0.00     0.012 A 
HETATM   14  C           1      41.182 -12.631  -3.446  0.00  0.00     0.003 A 
HETATM   15  C           1      39.872 -12.887  -3.577  0.00  0.00     0.040 A 
HETATM   16  H           1      42.675 -12.001   0.744  0.00  0.00     0.162 HD
ENDROOT
BRANCH   5  17
HETATM   17  C           1      41.726 -15.265   2.097  0.00  0.00     0.233 C 
HETATM   18  N           1      41.859 -16.610   2.286  0.00  0.00    -0.326 N 
HETATM   19  H           1      41.534 -17.204   1.539  0.00  0.00     0.169 HD
HETATM   20  O           1      42.150 -14.432   2.859  0.00  0.00    -0.273 OA
BRANCH  18  21
HETATM   21  C           1      42.363 -17.368   3.284  0.00  0.00     0.040 A 
HETATM   22  C           1      43.522 -18.013   3.030  0.00  0.00    -0.035 A 
HETATM   23  C           1      44.231 -17.887   1.696  0.00  0.00     0.050 C 
HETATM   24  C           1      44.072 -18.787   3.984  0.00  0.00     0.015 A 
HETATM   25  C           1      43.508 -18.950   5.191  0.00  0.00    -0.061 A 
HETATM   26  C           1      44.160 -19.826   6.234  0.00  0.00     0.048 C 
HETATM   27  C           1      42.356 -18.305   5.433  0.00  0.00     0.009 A 
HETATM   28  C           1      41.795 -17.530   4.493  0.00  0.00     0.030 A 
ENDBRANCH  18  21
ENDBRANCH   5  17
BRANCH   8  29
HETATM   29  C           1      38.270 -12.360   1.706  0.00  0.00     0.154 C 
BRANCH  29  30
HETATM   30  C           1      37.702 -11.549   0.538  0.00  0.00     0.187 C 
BRANCH  30  31
HETATM   31  O           1      36.436 -12.064   0.206  0.00  0.00    -0.394 OA
HETATM   32  C           1      35.390 -11.188   0.568  0.00  0.00     0.201 C 
ENDBRANCH  30  31
ENDBRANCH  29  30
ENDBRANCH   8  29
BRANCH   2  33
HETATM   33  O           1      37.807 -13.729  -2.664  0.00  0.00    -0.349 OA
BRANCH  33  34
HETATM   34  C           1      37.361 -14.764  -3.501  0.00  0.00     0.171 C 
HETATM   35  C           1      36.380 -14.178  -4.514  0.00  0.00     0.034 C 
ENDBRANCH  33  34
ENDBRANCH   2  33
TORSDOF 7
ENDMDL
MODEL 3
REMARK VINA RESULT:      -7.5      3.613      5.701
REMARK  7 active torsions:
REMARK  status: ('A' for Active; 'I' for Inactive)
REMARK    1  A    between atoms: C_6  and  O_7 
REMARK    2  A    between atoms: O_7  and  C_8 
REMARK    3  A    between atoms: C_11  and  C_12 
REMARK       I    between atoms: C_12  and  N_13 
REMARK    4  A    between atoms: N_13  and  C_14 
REMARK    5  A    between atoms: N_22  and  C_23 
REMARK    6  A    between atoms: C_23  and  C_24 
REMARK    7  A    between atoms: C_24  and  O_25 
ROOT
HETATM    1  C           1      41.272 -12.283   5.399  0.00  0.00     0.113 A 
HETATM    2  C           1      41.138 -10.991   5.784  0.00  0.00     0.102 A 
HETATM    3  C           1      40.386 -13.207   5.825  0.00  0.00     0.002 A 
HETATM    4  C           1      40.511 -14.640   5.370  0.00  0.00     0.138 C 
HETATM    5  C           1      41.941 -14.925   4.889  0.00  0.00     0.161 C 
HETATM    6  C           1      42.227 -13.822   3.848  0.00  0.00     0.155 C 
HETATM    7  C           1      43.624 -14.033   3.239  0.00  0.00     0.072 C 
HETATM    8  N           1      41.172 -13.760   2.812  0.00  0.00    -0.323 N 
HETATM    9  C           1      39.946 -14.390   2.981  0.00  0.00     0.172 C 
HETATM   10  S           1      38.855 -14.543   1.847  0.00  0.00    -0.041 SA
HETATM   11  N           1      39.602 -14.810   4.242  0.00  0.00    -0.357 N 
HETATM   12  O           1      42.297 -12.599   4.541  0.00  0.00    -0.316 OA
HETATM   13  C           1      39.381 -12.865   6.645  0.00  0.00     0.012 A 
HETATM   14  C           1      39.247 -11.595   7.044  0.00  0.00     0.003 A 
HETATM   15  C           1      40.120 -10.675   6.609  0.00  0.00     0.040 A 
HETATM   16  H           1      38.669 -15.187   4.408  0.00  0.00     0.162 HD
ENDROOT
BRANCH   5  17
HETATM   17  C           1      42.127 -16.382   4.443  0.00  0.00     0.233 C 
HETATM   18  N           1      43.121 -17.044   5.102  0.00  0.00    -0.326 N 
HETATM   19  H           1      43.595 -16.534   5.832  0.00  0.00     0.169 HD
HETATM   20  O           1      41.414 -16.888   3.612  0.00  0.00    -0.273 OA
BRANCH  18  21
HETATM   21  C           1      43.635 -18.289   5.009  0.00  0.00     0.040 A 
HETATM   22  C           1      43.744 -18.988   6.160  0.00  0.00    -0.035 A 
HETATM   23  C           1      43.301 -18.410   7.490  0.00  0.00     0.050 C 
HETATM   24  C           1      44.251 -20.235   6.133  0.00  0.00     0.015 A 
HETATM   25  C           1      44.664 -20.818   4.997  0.00  0.00    -0.061 A 
HETATM   26  C           1      45.226 -22.219   5.011  0.00  0.00     0.048 C 
HETATM   27  C           1      44.553 -20.114   3.859  0.00  0.00     0.009 A 
HETATM   28  C           1      44.049 -18.872   3.869  0.00  0.00     0.030 A 
ENDBRANCH  18  21
ENDBRANCH   5  17
BRANCH   8  29
HETATM   29  C           1      41.425 -12.858   1.681  0.00  0.00     0.154 C 
BRANCH  29  30
HETATM   30  C           1      41.757 -13.602   0.384  0.00  0.00     0.187 C 
BRANCH  30  31
HETATM   31  O           1      41.074 -12.981  -0.678  0.00  0.00    -0.394 OA
HETATM   32  C           1      40.541 -13.916  -1.591  0.00  0.00     0.201 C 
ENDBRANCH  30  31
ENDBRANCH  29  30
ENDBRANCH   8  29
BRANCH   2  33
HETATM   33  O           1      42.056 -10.085   5.301  0.00  0.00    -0.349 OA
BRANCH  33  34
HETATM   34  C           1      41.649  -8.771   5.024  0.00  0.00     0.171 C 
HETATM   35  C           1      40.990  -8.749   3.646  0.00  0.00     0.034 C 
ENDBRANCH  33  34
ENDBRANCH   2  33
TORSDOF 7
ENDMDL
MODEL 4
REMARK VINA RESULT:      -7.5      1.043      1.538
REMARK  7 active torsions:
REMARK  status: ('A' for Active; 'I' for Inactive)
REMARK    1  A    between atoms: C_6  and  O_7 
REMARK    2  A    between atoms: O_7  and  C_8 
REMARK    3  A    between atoms: C_11  and  C_12 
REMARK       I    between atoms: C_12  and  N_13 
REMARK    4  A    between atoms: N_13  and  C_14 
REMARK    5  A    between atoms: N_22  and  C_23 
REMARK    6  A    between atoms: C_23  and  C_24 
REMARK    7  A    between atoms: C_24  and  O_25 
ROOT
HETATM    1  C           1      42.112 -12.153  -1.390  0.00  0.00     0.113 A 
HETATM    2  C           1      42.322 -11.302  -2.422  0.00  0.00     0.102 A 
HETATM    3  C           1      42.209 -11.708  -0.120  0.00  0.00     0.002 A 
HETATM    4  C           1      41.940 -12.644   1.032  0.00  0.00     0.138 C 
HETATM    5  C           1      42.093 -14.103   0.582  0.00  0.00     0.161 C 
HETATM    6  C           1      41.181 -14.224  -0.658  0.00  0.00     0.155 C 
HETATM    7  C           1      41.199 -15.671  -1.177  0.00  0.00     0.072 C 
HETATM    8  N           1      39.808 -13.749  -0.376  0.00  0.00    -0.323 N 
HETATM    9  C           1      39.513 -12.995   0.752  0.00  0.00     0.172 C 
HETATM   10  S           1      38.051 -12.630   1.228  0.00  0.00    -0.041 SA
HETATM   11  N           1      40.557 -12.429   1.442  0.00  0.00    -0.357 N 
HETATM   12  O           1      41.759 -13.448  -1.681  0.00  0.00    -0.316 OA
HETATM   13  C           1      42.532 -10.431   0.135  0.00  0.00     0.012 A 
HETATM   14  C           1      42.757  -9.585  -0.876  0.00  0.00     0.003 A 
HETATM   15  C           1      42.646 -10.024  -2.138  0.00  0.00     0.040 A 
HETATM   16  H           1      40.360 -11.793   2.215  0.00  0.00     0.162 HD
ENDROOT
BRANCH   5  17
HETATM   17  C           1      41.858 -15.096   1.729  0.00  0.00     0.233 C 
HETATM   18  N           1      42.997 -15.682   2.199  0.00  0.00    -0.326 N 
HETATM   19  H           1      43.865 -15.378   1.786  0.00  0.00     0.169 HD
HETATM   20  O           1      40.760 -15.290   2.187  0.00  0.00    -0.273 OA
BRANCH  18  21
HETATM   21  C           1      43.246 -16.611   3.147  0.00  0.00     0.040 A 
HETATM   22  C           1      43.610 -17.838   2.715  0.00  0.00    -0.035 A 
HETATM   23  C           1      43.743 -18.157   1.238  0.00  0.00     0.050 C 
HETATM   24  C           1      43.869 -18.808   3.611  0.00  0.00     0.015 A 
HETATM   25  C           1      43.775 -18.605   4.935  0.00  0.00    -0.061 A 
HETATM   26  C           1      44.076 -19.721   5.908  0.00  0.00     0.048 C 
HETATM   27  C           1      43.411 -17.383   5.355  0.00  0.00     0.009 A 
HETATM   28  C           1      43.151 -16.407   4.473  0.00  0.00     0.030 A 
ENDBRANCH  18  21
ENDBRANCH   5  17
BRANCH   8  29
HETATM   29  C           1      38.814 -13.971  -1.435  0.00  0.00     0.154 C 
BRANCH  29  30
HETATM   30  C           1      38.631 -12.757  -2.350  0.00  0.00     0.187 C 
BRANCH  30  31
HETATM   31  O           1      37.852 -13.142  -3.457  0.00  0.00    -0.394 OA
HETATM   32  C           1      37.600 -14.530  -3.477  0.00  0.00     0.201 C 
ENDBRANCH  30  31
ENDBRANCH  29  30
ENDBRANCH   8  29
BRANCH   2  33
HETATM   33  O           1      42.186 -11.803  -3.698  0.00  0.00    -0.349 OA
BRANCH  33  34
HETATM   34  C           1      41.255 -11.224  -4.572  0.00  0.00     0.171 C 
HETATM   35  C           1      42.013 -10.394  -5.606  0.00  0.00     0.034 C 
ENDBRANCH  33  34
ENDBRANCH   2  33
TORSDOF 7
ENDMDL
MODEL 5
REMARK VINA RESULT:      -7.4      2.273      8.003
REMARK  7 active torsions:
REMARK  status: ('A' for Active; 'I' for Inactive)
REMARK    1  A    between atoms: C_6  and  O_7 
REMARK    2  A    between atoms: O_7  and  C_8 
REMARK    3  A    between atoms: C_11  and  C_12 
REMARK       I    between atoms: C_12  and  N_13 
REMARK    4  A    between atoms: N_13  and  C_14 
REMARK    5  A    between atoms: N_22  and  C_23 
REMARK    6  A    between atoms: C_23  and  C_24 
REMARK    7  A    between atoms: C_24  and  O_25 
ROOT
HETATM    1  C           1      42.601 -15.554   2.430  0.00  0.00     0.113 A 
HETATM    2  C           1      43.073 -16.275   3.476  0.00  0.00     0.102 A 
HETATM    3  C           1      42.166 -16.185   1.319  0.00  0.00     0.002 A 
HETATM    4  C           1      41.607 -15.388   0.167  0.00  0.00     0.138 C 
HETATM    5  C           1      42.093 -13.934   0.238  0.00  0.00     0.161 C 
HETATM    6  C           1      41.728 -13.471   1.665  0.00  0.00     0.155 C 
HETATM    7  C           1      42.113 -11.994   1.846  0.00  0.00     0.072 C 
HETATM    8  N           1      40.300 -13.717   1.971  0.00  0.00    -0.323 N 
HETATM    9  C           1      39.519 -14.555   1.186  0.00  0.00     0.172 C 
HETATM   10  S           1      37.951 -14.705   1.323  0.00  0.00    -0.041 SA
HETATM   11  N           1      40.155 -15.397   0.308  0.00  0.00    -0.357 N 
HETATM   12  O           1      42.543 -14.188   2.560  0.00  0.00    -0.316 OA
HETATM   13  C           1      42.213 -17.523   1.229  0.00  0.00     0.012 A 
HETATM   14  C           1      42.691 -18.244   2.250  0.00  0.00     0.003 A 
HETATM   15  C           1      43.110 -17.618   3.358  0.00  0.00     0.040 A 
HETATM   16  H           1      39.610 -16.088  -0.208  0.00  0.00     0.162 HD
ENDROOT
BRANCH   5  17
HETATM   17  C           1      41.574 -13.088  -0.932  0.00  0.00     0.233 C 
HETATM   18  N           1      42.546 -12.390  -1.589  0.00  0.00    -0.326 N 
HETATM   19  H           1      43.493 -12.532  -1.275  0.00  0.00     0.169 HD
HETATM   20  O           1      40.412 -13.090  -1.252  0.00  0.00    -0.273 OA
BRANCH  18  21
HETATM   21  C           1      42.535 -11.521  -2.623  0.00  0.00     0.040 A 
HETATM   22  C           1      42.865 -10.242  -2.344  0.00  0.00    -0.035 A 
HETATM   23  C           1      43.240  -9.801  -0.943  0.00  0.00     0.050 C 
HETATM   24  C           1      42.870  -9.328  -3.332  0.00  0.00     0.015 A 
HETATM   25  C           1      42.552  -9.638  -4.598  0.00  0.00    -0.061 A 
HETATM   26  C           1      42.571  -8.581  -5.678  0.00  0.00     0.048 C 
HETATM   27  C           1      42.224 -10.912  -4.865  0.00  0.00     0.009 A 
HETATM   28  C           1      42.215 -11.834  -3.892  0.00  0.00     0.030 A 
ENDBRANCH  18  21
ENDBRANCH   5  17
BRANCH   8  29
HETATM   29  C           1      39.805 -13.166   3.239  0.00  0.00     0.154 C 
BRANCH  29  30
HETATM   30  C           1      39.859 -14.173   4.392  0.00  0.00     0.187 C 
BRANCH  30  31
HETATM   31  O           1      40.085 -13.471   5.591  0.00  0.00    -0.394 OA
HETATM   32  C           1      41.373 -12.896   5.638  0.00  0.00     0.201 C 
ENDBRANCH  30  31
ENDBRANCH  29  30
ENDBRANCH   8  29
BRANCH   2  33
HETATM   33  O           1      43.482 -15.582   4.593  0.00  0.00    -0.349 OA
BRANCH  33  34
HETATM   34  C           1      43.368 -16.180   5.857  0.00  0.00     0.171 C 
HETATM   35  C           1      44.170 -15.352   6.858  0.00  0.00     0.034 C 
ENDBRANCH  33  34
ENDBRANCH   2  33
TORSDOF 7
ENDMDL
MODEL 6
REMARK VINA RESULT:      -7.4      2.672      4.232
REMARK  7 active torsions:
REMARK  status: ('A' for Active; 'I' for Inactive)
REMARK    1  A    between atoms: C_6  and  O_7 
REMARK    2  A    between atoms: O_7  and  C_8 
REMARK    3  A    between atoms: C_11  and  C_12 
REMARK       I    between atoms: C_12  and  N_13 
REMARK    4  A    between atoms: N_13  and  C_14 
REMARK    5  A    between atoms: N_22  and  C_23 
REMARK    6  A    between atoms: C_23  and  C_24 
REMARK    7  A    between atoms: C_24  and  O_25 
ROOT
HETATM    1  C           1      39.466 -12.023   1.581  0.00  0.00     0.113 A 
HETATM    2  C           1      39.106 -10.722   1.465  0.00  0.00     0.102 A 
HETATM    3  C           1      38.568 -12.995   1.318  0.00  0.00     0.002 A 
HETATM    4  C           1      38.976 -14.445   1.411  0.00  0.00     0.138 C 
HETATM    5  C           1      40.224 -14.594   2.291  0.00  0.00     0.161 C 
HETATM    6  C           1      41.246 -13.607   1.685  0.00  0.00     0.155 C 
HETATM    7  C           1      42.577 -13.704   2.449  0.00  0.00     0.072 C 
HETATM    8  N           1      41.420 -13.824   0.231  0.00  0.00    -0.323 N 
HETATM    9  C           1      40.525 -14.587  -0.506  0.00  0.00     0.172 C 
HETATM   10  S           1      40.751 -15.033  -2.005  0.00  0.00    -0.041 SA
HETATM   11  N           1      39.308 -14.882   0.059  0.00  0.00    -0.357 N 
HETATM   12  O           1      40.765 -12.306   1.925  0.00  0.00    -0.316 OA
HETATM   13  C           1      37.312 -12.689   0.960  0.00  0.00     0.012 A 
HETATM   14  C           1      36.941 -11.408   0.857  0.00  0.00     0.003 A 
HETATM   15  C           1      37.837 -10.442   1.105  0.00  0.00     0.040 A 
HETATM   16  H           1      38.599 -15.357  -0.499  0.00  0.00     0.162 HD
ENDROOT
BRANCH   5  17
HETATM   17  C           1      40.661 -16.057   2.441  0.00  0.00     0.233 C 
HETATM   18  N           1      41.829 -16.222   3.128  0.00  0.00    -0.326 N 
HETATM   19  H           1      42.256 -15.387   3.499  0.00  0.00     0.169 HD
HETATM   20  O           1      39.992 -16.967   2.020  0.00  0.00    -0.273 OA
BRANCH  18  21
HETATM   21  C           1      42.576 -17.299   3.455  0.00  0.00     0.040 A 
HETATM   22  C           1      43.386 -17.791   2.492  0.00  0.00    -0.035 A 
HETATM   23  C           1      43.462 -17.163   1.115  0.00  0.00     0.050 C 
HETATM   24  C           1      44.153 -18.865   2.757  0.00  0.00     0.015 A 
HETATM   25  C           1      44.144 -19.477   3.951  0.00  0.00    -0.061 A 
HETATM   26  C           1      45.023 -20.679   4.207  0.00  0.00     0.048 C 
HETATM   27  C           1      43.335 -18.981   4.901  0.00  0.00     0.009 A 
HETATM   28  C           1      42.565 -17.912   4.652  0.00  0.00     0.030 A 
ENDBRANCH  18  21
ENDBRANCH   5  17
BRANCH   8  29
HETATM   29  C           1      42.489 -13.052  -0.415  0.00  0.00     0.154 C 
BRANCH  29  30
HETATM   30  C           1      42.078 -11.611  -0.736  0.00  0.00     0.187 C 
BRANCH  30  31
HETATM   31  O           1      43.016 -10.736  -0.157  0.00  0.00    -0.394 OA
HETATM   32  C           1      43.467  -9.756  -1.068  0.00  0.00     0.201 C 
ENDBRANCH  30  31
ENDBRANCH  29  30
ENDBRANCH   8  29
BRANCH   2  33
HETATM   33  O           1      40.068  -9.771   1.722  0.00  0.00    -0.349 OA
BRANCH  33  34
HETATM   34  C           1      40.067  -8.572   0.991  0.00  0.00     0.171 C 
HETATM   35  C           1      41.341  -7.800   1.328  0.00  0.00     0.034 C 
ENDBRANCH  33  34
ENDBRANCH   2  33
TORSDOF 7
ENDMDL
MODEL 7
REMARK VINA RESULT:      -7.0      2.222      3.241
REMARK  7 active torsions:
REMARK  status: ('A' for Active; 'I' for Inactive)
REMARK    1  A    between atoms: C_6  and  O_7 
REMARK    2  A    between atoms: O_7  and  C_8 
REMARK    3  A    between atoms: C_11  and  C_12 
REMARK       I    between atoms: C_12  and  N_13 
REMARK    4  A    between atoms: N_13  and  C_14 
REMARK    5  A    between atoms: N_22  and  C_23 
REMARK    6  A    between atoms: C_23  and  C_24 
REMARK    7  A    between atoms: C_24  and  O_25 
ROOT
HETATM    1  C           1      40.319 -12.851  -0.723  0.00  0.00     0.113 A 
HETATM    2  C           1      40.037 -11.824  -1.561  0.00  0.00     0.102 A 
HETATM    3  C           1      41.597 -13.252  -0.558  0.00  0.00     0.002 A 
HETATM    4  C           1      41.919 -14.371   0.402  0.00  0.00     0.138 C 
HETATM    5  C           1      40.672 -15.225   0.664  0.00  0.00     0.161 C 
HETATM    6  C           1      39.590 -14.211   1.094  0.00  0.00     0.155 C 
HETATM    7  C           1      38.292 -14.955   1.448  0.00  0.00     0.072 C 
HETATM    8  N           1      40.059 -13.350   2.203  0.00  0.00    -0.323 N 
HETATM    9  C           1      41.401 -13.269   2.548  0.00  0.00     0.172 C 
HETATM   10  S           1      41.951 -12.540   3.838  0.00  0.00    -0.041 SA
HETATM   11  N           1      42.328 -13.752   1.657  0.00  0.00    -0.357 N 
HETATM   12  O           1      39.281 -13.424  -0.031  0.00  0.00    -0.316 OA
HETATM   13  C           1      42.594 -12.657  -1.230  0.00  0.00     0.012 A 
HETATM   14  C           1      42.326 -11.652  -2.071  0.00  0.00     0.003 A 
HETATM   15  C           1      41.058 -11.245  -2.225  0.00  0.00     0.040 A 
HETATM   16  H           1      43.321 -13.616   1.845  0.00  0.00     0.162 HD
ENDROOT
BRANCH   5  17
HETATM   17  C           1      40.957 -16.398   1.613  0.00  0.00     0.233 C 
HETATM   18  N           1      42.259 -16.803   1.621  0.00  0.00    -0.326 N 
HETATM   19  H           1      42.900 -16.275   1.050  0.00  0.00     0.169 HD
HETATM   20  O           1      40.097 -16.873   2.312  0.00  0.00    -0.273 OA
BRANCH  18  21
HETATM   21  C           1      42.927 -17.788   2.260  0.00  0.00     0.040 A 
HETATM   22  C           1      43.420 -17.494   3.483  0.00  0.00    -0.035 A 
HETATM   23  C           1      43.226 -16.129   4.114  0.00  0.00     0.050 C 
HETATM   24  C           1      44.097 -18.433   4.169  0.00  0.00     0.015 A 
HETATM   25  C           1      44.310 -19.665   3.681  0.00  0.00    -0.061 A 
HETATM   26  C           1      45.074 -20.690   4.484  0.00  0.00     0.048 C 
HETATM   27  C           1      43.817 -19.948   2.464  0.00  0.00     0.009 A 
HETATM   28  C           1      43.140 -19.022   1.769  0.00  0.00     0.030 A 
ENDBRANCH  18  21
ENDBRANCH   5  17
BRANCH   8  29
HETATM   29  C           1      39.055 -12.461   2.802  0.00  0.00     0.154 C 
BRANCH  29  30
HETATM   30  C           1      39.025 -11.070   2.159  0.00  0.00     0.187 C 
BRANCH  30  31
HETATM   31  O           1      37.723 -10.549   2.275  0.00  0.00    -0.394 OA
HETATM   32  C           1      36.852 -11.062   1.289  0.00  0.00     0.201 C 
ENDBRANCH  30  31
ENDBRANCH  29  30
ENDBRANCH   8  29
BRANCH   2  33
HETATM   33  O           1      38.720 -11.440  -1.675  0.00  0.00    -0.349 OA
BRANCH  33  34
HETATM   34  C           1      38.121 -11.393  -2.942  0.00  0.00     0.171 C 
HETATM   35  C           1      37.744 -12.815  -3.352  0.00  0.00     0.034 C 
ENDBRANCH  33  34
ENDBRANCH   2  33
TORSDOF 7
ENDMDL
MODEL 8
REMARK VINA RESULT:      -6.9      2.307      7.763
REMARK  7 active torsions:
REMARK  status: ('A' for Active; 'I' for Inactive)
REMARK    1  A    between atoms: C_6  and  O_7 
REMARK    2  A    between atoms: O_7  and  C_8 
REMARK    3  A    between atoms: C_11  and  C_12 
REMARK       I    between atoms: C_12  and  N_13 
REMARK    4  A    between atoms: N_13  and  C_14 
REMARK    5  A    between atoms: N_22  and  C_23 
REMARK    6  A    between atoms: C_23  and  C_24 
REMARK    7  A    between atoms: C_24  and  O_25 
ROOT
HETATM    1  C           1      42.252 -15.379   2.065  0.00  0.00     0.113 A 
HETATM    2  C           1      42.688 -16.131   3.104  0.00  0.00     0.102 A 
HETATM    3  C           1      41.776 -15.978   0.954  0.00  0.00     0.002 A 
HETATM    4  C           1      41.255 -15.144  -0.191  0.00  0.00     0.138 C 
HETATM    5  C           1      41.823 -13.720  -0.115  0.00  0.00     0.161 C 
HETATM    6  C           1      41.492 -13.246   1.316  0.00  0.00     0.155 C 
HETATM    7  C           1      41.961 -11.793   1.503  0.00  0.00     0.072 C 
HETATM    8  N           1      40.055 -13.413   1.629  0.00  0.00    -0.323 N 
HETATM    9  C           1      39.224 -14.201   0.845  0.00  0.00     0.172 C 
HETATM   10  S           1      37.651 -14.263   0.991  0.00  0.00    -0.041 SA
HETATM   11  N           1      39.806 -15.073  -0.042  0.00  0.00    -0.357 N 
HETATM   12  O           1      42.272 -14.013   2.203  0.00  0.00    -0.316 OA
HETATM   13  C           1      41.747 -17.316   0.856  0.00  0.00     0.012 A 
HETATM   14  C           1      42.189 -18.069   1.870  0.00  0.00     0.003 A 
HETATM   15  C           1      42.650 -17.473   2.979  0.00  0.00     0.040 A 
HETATM   16  H           1      39.220 -15.729  -0.558  0.00  0.00     0.162 HD
ENDROOT
BRANCH   5  17
HETATM   17  C           1      41.345 -12.840  -1.278  0.00  0.00     0.233 C 
HETATM   18  N           1      42.349 -12.179  -1.925  0.00  0.00    -0.326 N 
HETATM   19  H           1      43.289 -12.366  -1.610  0.00  0.00     0.169 HD
HETATM   20  O           1      40.185 -12.787  -1.601  0.00  0.00    -0.273 OA
BRANCH  18  21
HETATM   21  C           1      42.380 -11.299  -2.949  0.00  0.00     0.040 A 
HETATM   22  C           1      42.705 -10.024  -2.645  0.00  0.00    -0.035 A 
HETATM   23  C           1      43.031  -9.600  -1.227  0.00  0.00     0.050 C 
HETATM   24  C           1      42.750  -9.100  -3.623  0.00  0.00     0.015 A 
HETATM   25  C           1      42.477  -9.396  -4.904  0.00  0.00    -0.061 A 
HETATM   26  C           1      42.541  -8.329  -5.971  0.00  0.00     0.048 C 
HETATM   27  C           1      42.154 -10.666  -5.195  0.00  0.00     0.009 A 
HETATM   28  C           1      42.105 -11.597  -4.232  0.00  0.00     0.030 A 
ENDBRANCH  18  21
ENDBRANCH   5  17
BRANCH   8  29
HETATM   29  C           1      39.599 -12.842   2.903  0.00  0.00     0.154 C 
BRANCH  29  30
HETATM   30  C           1      38.782 -11.558   2.727  0.00  0.00     0.187 C 
BRANCH  30  31
HETATM   31  O           1      38.318 -11.143   3.989  0.00  0.00    -0.394 OA
HETATM   32  C           1      38.533  -9.766   4.211  0.00  0.00     0.201 C 
ENDBRANCH  30  31
ENDBRANCH  29  30
ENDBRANCH   8  29
BRANCH   2  33
HETATM   33  O           1      43.142 -15.468   4.222  0.00  0.00    -0.349 OA
BRANCH  33  34
HETATM   34  C           1      42.332 -15.408   5.366  0.00  0.00     0.171 C 
HETATM   35  C           1      42.018 -13.943   5.660  0.00  0.00     0.034 C 
ENDBRANCH  33  34
ENDBRANCH   2  33
TORSDOF 7
ENDMDL
MODEL 9
REMARK VINA RESULT:      -6.9      5.165      7.260
REMARK  7 active torsions:
REMARK  status: ('A' for Active; 'I' for Inactive)
REMARK    1  A    between atoms: C_6  and  O_7 
REMARK    2  A    between atoms: O_7  and  C_8 
REMARK    3  A    between atoms: C_11  and  C_12 
REMARK       I    between atoms: C_12  and  N_13 
REMARK    4  A    between atoms: N_13  and  C_14 
REMARK    5  A    between atoms: N_22  and  C_23 
REMARK    6  A    between atoms: C_23  and  C_24 
REMARK    7  A    between atoms: C_24  and  O_25 
ROOT
HETATM    1  C           1      42.994 -12.744   6.305  0.00  0.00     0.113 A 
HETATM    2  C           1      42.936 -11.704   7.171  0.00  0.00     0.102 A 
HETATM    3  C           1      43.740 -13.828   6.605  0.00  0.00     0.002 A 
HETATM    4  C           1      43.779 -15.004   5.661  0.00  0.00     0.138 C 
HETATM    5  C           1      43.357 -14.570   4.250  0.00  0.00     0.161 C 
HETATM    6  C           1      41.998 -13.865   4.451  0.00  0.00     0.155 C 
HETATM    7  C           1      41.432 -13.431   3.089  0.00  0.00     0.072 C 
HETATM    8  N           1      41.048 -14.714   5.204  0.00  0.00    -0.323 N 
HETATM    9  C           1      41.468 -15.836   5.906  0.00  0.00     0.172 C 
HETATM   10  S           1      40.498 -16.900   6.557  0.00  0.00    -0.041 SA
HETATM   11  N           1      42.811 -15.978   6.154  0.00  0.00    -0.357 N 
HETATM   12  O           1      42.244 -12.673   5.157  0.00  0.00    -0.316 OA
HETATM   13  C           1      44.445 -13.880   7.746  0.00  0.00     0.012 A 
HETATM   14  C           1      44.407 -12.852   8.601  0.00  0.00     0.003 A 
HETATM   15  C           1      43.654 -11.782   8.309  0.00  0.00     0.040 A 
HETATM   16  H           1      43.133 -16.741   6.749  0.00  0.00     0.162 HD
ENDROOT
BRANCH   5  17
HETATM   17  C           1      43.409 -15.728   3.244  0.00  0.00     0.233 C 
HETATM   18  N           1      43.610 -16.952   3.813  0.00  0.00    -0.326 N 
HETATM   19  H           1      43.659 -16.979   4.820  0.00  0.00     0.169 HD
HETATM   20  O           1      43.240 -15.552   2.064  0.00  0.00    -0.273 OA
BRANCH  18  21
HETATM   21  C           1      43.753 -18.200   3.317  0.00  0.00     0.040 A 
HETATM   22  C           1      44.418 -19.087   4.089  0.00  0.00    -0.035 A 
HETATM   23  C           1      44.969 -18.707   5.449  0.00  0.00     0.050 C 
HETATM   24  C           1      44.594 -20.347   3.649  0.00  0.00     0.015 A 
HETATM   25  C           1      44.135 -20.762   2.458  0.00  0.00    -0.061 A 
HETATM   26  C           1      44.354 -22.186   2.003  0.00  0.00     0.048 C 
HETATM   27  C           1      43.477 -19.873   1.698  0.00  0.00     0.009 A 
HETATM   28  C           1      43.292 -18.615   2.124  0.00  0.00     0.030 A 
ENDBRANCH  18  21
ENDBRANCH   5  17
BRANCH   8  29
HETATM   29  C           1      39.672 -14.211   5.310  0.00  0.00     0.154 C 
BRANCH  29  30
HETATM   30  C           1      39.516 -13.105   6.359  0.00  0.00     0.187 C 
BRANCH  30  31
HETATM   31  O           1      38.578 -12.168   5.888  0.00  0.00    -0.394 OA
HETATM   32  C           1      39.148 -11.252   4.977  0.00  0.00     0.201 C 
ENDBRANCH  30  31
ENDBRANCH  29  30
ENDBRANCH   8  29
BRANCH   2  33
HETATM   33  O           1      42.141 -10.634   6.826  0.00  0.00    -0.349 OA
BRANCH  33  34
HETATM   34  C           1      41.527  -9.876   7.835  0.00  0.00     0.171 C 
HETATM   35  C           1      41.383  -8.438   7.341  0.00  0.00     0.034 C 
ENDBRANCH  33  34
ENDBRANCH   2  33
TORSDOF 7
ENDMDL
MODEL 10
REMARK VINA RESULT:      -6.8      3.515      8.918
REMARK  7 active torsions:
REMARK  status: ('A' for Active; 'I' for Inactive)
REMARK    1  A    between atoms: C_6  and  O_7 
REMARK    2  A    between atoms: O_7  and  C_8 
REMARK    3  A    between atoms: C_11  and  C_12 
REMARK       I    between atoms: C_12  and  N_13 
REMARK    4  A    between atoms: N_13  and  C_14 
REMARK    5  A    between atoms: N_22  and  C_23 
REMARK    6  A    between atoms: C_23  and  C_24 
REMARK    7  A    between atoms: C_24  and  O_25 
ROOT
HETATM    1  C           1      42.964 -15.827   5.962  0.00  0.00     0.113 A 
HETATM    2  C           1      43.708 -15.912   7.091  0.00  0.00     0.102 A 
HETATM    3  C           1      43.165 -14.808   5.099  0.00  0.00     0.002 A 
HETATM    4  C           1      42.364 -14.731   3.823  0.00  0.00     0.138 C 
HETATM    5  C           1      41.077 -15.556   3.949  0.00  0.00     0.161 C 
HETATM    6  C           1      41.554 -16.952   4.403  0.00  0.00     0.155 C 
HETATM    7  C           1      40.350 -17.903   4.509  0.00  0.00     0.072 C 
HETATM    8  N           1      42.609 -17.486   3.512  0.00  0.00    -0.323 N 
HETATM    9  C           1      43.284 -16.673   2.611  0.00  0.00     0.172 C 
HETATM   10  S           1      44.267 -17.202   1.492  0.00  0.00    -0.041 SA
HETATM   11  N           1      43.186 -15.313   2.768  0.00  0.00    -0.357 N 
HETATM   12  O           1      42.050 -16.821   5.713  0.00  0.00    -0.316 OA
HETATM   13  C           1      44.082 -13.864   5.357  0.00  0.00     0.012 A 
HETATM   14  C           1      44.812 -13.929   6.476  0.00  0.00     0.003 A 
HETATM   15  C           1      44.622 -14.949   7.326  0.00  0.00     0.040 A 
HETATM   16  H           1      43.749 -14.699   2.179  0.00  0.00     0.162 HD
ENDROOT
BRANCH   5  17
HETATM   17  C           1      40.211 -15.483   2.683  0.00  0.00     0.233 C 
HETATM   18  N           1      39.991 -14.215   2.231  0.00  0.00    -0.326 N 
HETATM   19  H           1      40.447 -13.471   2.736  0.00  0.00     0.169 HD
HETATM   20  O           1      39.809 -16.476   2.130  0.00  0.00    -0.273 OA
BRANCH  18  21
HETATM   21  C           1      39.282 -13.699   1.204  0.00  0.00     0.040 A 
HETATM   22  C           1      39.970 -13.400   0.081  0.00  0.00    -0.035 A 
HETATM   23  C           1      41.462 -13.641  -0.029  0.00  0.00     0.050 C 
HETATM   24  C           1      39.319 -12.881  -0.977  0.00  0.00     0.015 A 
HETATM   25  C           1      37.999 -12.640  -0.960  0.00  0.00    -0.061 A 
HETATM   26  C           1      37.307 -12.057  -2.169  0.00  0.00     0.048 C 
HETATM   27  C           1      37.324 -12.939   0.162  0.00  0.00     0.009 A 
HETATM   28  C           1      37.959 -13.458   1.223  0.00  0.00     0.030 A 
ENDBRANCH  18  21
ENDBRANCH   5  17
BRANCH   8  29
HETATM   29  C           1      43.019 -18.876   3.753  0.00  0.00     0.154 C 
BRANCH  29  30
HETATM   30  C           1      44.396 -18.989   4.414  0.00  0.00     0.187 C 
BRANCH  30  31
HETATM   31  O           1      44.807 -20.334   4.370  0.00  0.00    -0.394 OA
HETATM   32  C           1      44.634 -20.904   3.090  0.00  0.00     0.201 C 
ENDBRANCH  30  31
ENDBRANCH  29  30
ENDBRANCH   8  29
BRANCH   2  33
HETATM   33  O           1      43.478 -16.984   7.924  0.00  0.00    -0.349 OA
BRANCH  33  34
HETATM   34  C           1      44.433 -18.009   8.011  0.00  0.00     0.171 C 
HETATM   35  C           1      43.730 -19.345   7.782  0.00  0.00     0.034 C 
ENDBRANCH  33  34
ENDBRANCH   2  33
TORSDOF 7
ENDMDL
