MODEL 1
REMARK VINA RESULT:      -9.7      0.000      0.000
REMARK  4 active torsions:
REMARK  status: ('A' for Active; 'I' for Inactive)
REMARK    1  A    between atoms: C_4  and  C_5 
REMARK    2  A    between atoms: C_9  and  N_10 
REMARK       I    between atoms: N_10  and  C_11 
REMARK    3  A    between atoms: C_11  and  C_12 
REMARK    4  A    between atoms: C_13  and  C_14 
ROOT
HETATM    1  N   UNL     1      41.812 -15.219  -0.853  1.00  0.00    -0.308 N 
HETATM    2  C   UNL     1      41.720 -13.873  -0.542  1.00  0.00     0.261 C 
HETATM    3  O   UNL     1      41.625 -13.454   0.611  1.00  0.00    -0.267 OA
HETATM    4  H   UNL     1      41.938 -15.518  -1.811  1.00  0.00     0.170 HD
ENDROOT
BRANCH   1   5
HETATM    5  C   UNL     1      41.850 -16.195   0.125  1.00  0.00     0.126 A 
HETATM    6  N   UNL     1      40.785 -16.554   0.908  1.00  0.00    -0.262 N 
HETATM    7  N   UNL     1      41.091 -17.462   1.850  1.00  0.00    -0.173 NA
HETATM    8  H   UNL     1      39.841 -16.180   0.859  1.00  0.00     0.191 HD
HETATM    9  C   UNL     1      42.387 -17.739   1.635  1.00  0.00     0.090 A 
HETATM   10  C   UNL     1      42.898 -16.975   0.548  1.00  0.00     0.084 A 
BRANCH   9  11
HETATM   11  C   UNL     1      43.118 -18.677   2.479  1.00  0.00    -0.005 A 
HETATM   12  C   UNL     1      43.490 -19.937   1.993  1.00  0.00     0.020 A 
HETATM   13  C   UNL     1      44.209 -20.827   2.802  1.00  0.00    -0.061 A 
HETATM   14  C   UNL     1      44.561 -22.201   2.312  1.00  0.00     0.048 C 
HETATM   15  C   UNL     1      44.561 -20.440   4.103  1.00  0.00     0.013 A 
HETATM   16  C   UNL     1      44.211 -19.178   4.598  1.00  0.00    -0.061 A 
HETATM   17  C   UNL     1      43.469 -18.311   3.785  1.00  0.00     0.020 A 
HETATM   18  C   UNL     1      44.577 -18.784   5.998  1.00  0.00     0.048 C 
ENDBRANCH   9  11
ENDBRANCH   1   5
BRANCH   2  19
HETATM   19  C   UNL     1      41.799 -12.952  -1.671  1.00  0.00     0.080 A 
HETATM   20  C   UNL     1      40.965 -12.733  -2.813  1.00  0.00     0.104 A 
HETATM   21  N   UNL     1      41.495 -11.810  -3.632  1.00  0.00    -0.174 NA
HETATM   22  N   UNL     1      42.598 -11.392  -3.003  1.00  0.00    -0.288 N 
HETATM   23  H   UNL     1      43.156 -10.663  -3.439  1.00  0.00     0.188 HD
HETATM   24  C   UNL     1      42.824 -12.035  -1.829  1.00  0.00     0.128 A 
BRANCH  20  25
HETATM   25  C   UNL     1      39.690 -13.351  -3.165  1.00  0.00    -0.004 A 
HETATM   26  C   UNL     1      39.634 -14.695  -3.562  1.00  0.00     0.017 A 
HETATM   27  C   UNL     1      38.410 -15.271  -3.909  1.00  0.00     0.043 A 
HETATM   28  C   UNL     1      37.249 -14.507  -3.850  1.00  0.00     0.116 A 
HETATM   29  F   UNL     1      36.077 -15.063  -4.184  1.00  0.00    -0.206 F 
HETATM   30  C   UNL     1      37.286 -13.178  -3.446  1.00  0.00     0.043 A 
HETATM   31  C   UNL     1      38.507 -12.599  -3.098  1.00  0.00     0.017 A 
ENDBRANCH  20  25
ENDBRANCH   2  19
TORSDOF 4
ENDMDL
MODEL 2
REMARK VINA RESULT:      -9.3      2.524      4.160
REMARK  4 active torsions:
REMARK  status: ('A' for Active; 'I' for Inactive)
REMARK    1  A    between atoms: C_4  and  C_5 
REMARK    2  A    between atoms: C_9  and  N_10 
REMARK       I    between atoms: N_10  and  C_11 
REMARK    3  A    between atoms: C_11  and  C_12 
REMARK    4  A    between atoms: C_13  and  C_14 
ROOT
HETATM    1  N   UNL     1      40.811 -15.522  -0.765  1.00  0.00    -0.308 N 
HETATM    2  C   UNL     1      40.223 -14.275  -0.633  1.00  0.00     0.261 C 
HETATM    3  O   UNL     1      39.906 -13.793   0.454  1.00  0.00    -0.267 OA
HETATM    4  H   UNL     1      41.101 -15.860  -1.673  1.00  0.00     0.170 HD
ENDROOT
BRANCH   1   5
HETATM    5  C   UNL     1      41.128 -16.302   0.331  1.00  0.00     0.126 A 
HETATM    6  N   UNL     1      40.396 -16.351   1.488  1.00  0.00    -0.262 N 
HETATM    7  N   UNL     1      40.954 -17.110   2.446  1.00  0.00    -0.173 NA
HETATM    8  H   UNL     1      39.530 -15.855   1.682  1.00  0.00     0.191 HD
HETATM    9  C   UNL     1      42.058 -17.611   1.871  1.00  0.00     0.090 A 
HETATM   10  C   UNL     1      42.196 -17.140   0.535  1.00  0.00     0.084 A 
BRANCH   9  11
HETATM   11  C   UNL     1      42.974 -18.481   2.601  1.00  0.00    -0.005 A 
HETATM   12  C   UNL     1      43.489 -18.095   3.845  1.00  0.00     0.020 A 
HETATM   13  C   UNL     1      44.353 -18.944   4.551  1.00  0.00    -0.061 A 
HETATM   14  C   UNL     1      44.956 -18.515   5.857  1.00  0.00     0.048 C 
HETATM   15  C   UNL     1      44.690 -20.189   4.002  1.00  0.00     0.013 A 
HETATM   16  C   UNL     1      44.171 -20.596   2.768  1.00  0.00    -0.061 A 
HETATM   17  C   UNL     1      43.330 -19.725   2.063  1.00  0.00     0.020 A 
HETATM   18  C   UNL     1      44.555 -21.923   2.184  1.00  0.00     0.048 C 
ENDBRANCH   9  11
ENDBRANCH   1   5
BRANCH   2  19
HETATM   19  C   UNL     1      40.046 -13.522  -1.870  1.00  0.00     0.080 A 
HETATM   20  C   UNL     1      40.501 -12.236  -2.303  1.00  0.00     0.104 A 
HETATM   21  N   UNL     1      40.013 -11.932  -3.518  1.00  0.00    -0.174 NA
HETATM   22  N   UNL     1      39.327 -13.019  -3.889  1.00  0.00    -0.288 N 
HETATM   23  H   UNL     1      38.884 -13.020  -4.803  1.00  0.00     0.188 HD
HETATM   24  C   UNL     1      39.318 -13.996  -2.948  1.00  0.00     0.128 A 
BRANCH  20  25
HETATM   25  C   UNL     1      41.375 -11.283  -1.627  1.00  0.00    -0.004 A 
HETATM   26  C   UNL     1      40.914 -10.546  -0.527  1.00  0.00     0.017 A 
HETATM   27  C   UNL     1      41.756  -9.628   0.103  1.00  0.00     0.043 A 
HETATM   28  C   UNL     1      43.055  -9.456  -0.361  1.00  0.00     0.116 A 
HETATM   29  F   UNL     1      43.860  -8.573   0.245  1.00  0.00    -0.206 F 
HETATM   30  C   UNL     1      43.532 -10.187  -1.443  1.00  0.00     0.043 A 
HETATM   31  C   UNL     1      42.694 -11.106  -2.074  1.00  0.00     0.017 A 
ENDBRANCH  20  25
ENDBRANCH   2  19
TORSDOF 4
ENDMDL
MODEL 3
REMARK VINA RESULT:      -9.1      3.895      9.519
REMARK  4 active torsions:
REMARK  status: ('A' for Active; 'I' for Inactive)
REMARK    1  A    between atoms: C_4  and  C_5 
REMARK    2  A    between atoms: C_9  and  N_10 
REMARK       I    between atoms: N_10  and  C_11 
REMARK    3  A    between atoms: C_11  and  C_12 
REMARK    4  A    between atoms: C_13  and  C_14 
ROOT
HETATM    1  N   UNL     1      42.701 -16.021   4.778  1.00  0.00    -0.308 N 
HETATM    2  C   UNL     1      42.133 -17.140   5.364  1.00  0.00     0.261 C 
HETATM    3  O   UNL     1      41.084 -17.647   4.967  1.00  0.00    -0.267 OA
HETATM    4  H   UNL     1      43.590 -15.666   5.103  1.00  0.00     0.170 HD
ENDROOT
BRANCH   1   5
HETATM    5  C   UNL     1      42.147 -15.417   3.664  1.00  0.00     0.126 A 
HETATM    6  N   UNL     1      40.915 -14.821   3.635  1.00  0.00    -0.262 N 
HETATM    7  N   UNL     1      40.556 -14.386   2.416  1.00  0.00    -0.173 NA
HETATM    8  H   UNL     1      40.268 -14.722   4.413  1.00  0.00     0.191 HD
HETATM    9  C   UNL     1      41.616 -14.662   1.640  1.00  0.00     0.090 A 
HETATM   10  C   UNL     1      42.645 -15.297   2.390  1.00  0.00     0.084 A 
BRANCH   9  11
HETATM   11  C   UNL     1      41.617 -14.363   0.212  1.00  0.00    -0.005 A 
HETATM   12  C   UNL     1      41.046 -15.253  -0.707  1.00  0.00     0.020 A 
HETATM   13  C   UNL     1      41.033 -14.952  -2.075  1.00  0.00    -0.061 A 
HETATM   14  C   UNL     1      40.475 -15.924  -3.073  1.00  0.00     0.048 C 
HETATM   15  C   UNL     1      41.591 -13.743  -2.516  1.00  0.00     0.013 A 
HETATM   16  C   UNL     1      42.152 -12.837  -1.609  1.00  0.00    -0.061 A 
HETATM   17  C   UNL     1      42.180 -13.165  -0.248  1.00  0.00     0.020 A 
HETATM   18  C   UNL     1      42.763 -11.557  -2.097  1.00  0.00     0.048 C 
ENDBRANCH   9  11
ENDBRANCH   1   5
BRANCH   2  19
HETATM   19  C   UNL     1      42.885 -17.733   6.464  1.00  0.00     0.080 A 
HETATM   20  C   UNL     1      43.674 -18.921   6.578  1.00  0.00     0.104 A 
HETATM   21  N   UNL     1      44.118 -19.091   7.834  1.00  0.00    -0.174 NA
HETATM   22  N   UNL     1      43.693 -18.007   8.493  1.00  0.00    -0.288 N 
HETATM   23  H   UNL     1      43.940 -17.911   9.474  1.00  0.00     0.188 HD
HETATM   24  C   UNL     1      42.959 -17.164   7.724  1.00  0.00     0.128 A 
BRANCH  20  25
HETATM   25  C   UNL     1      44.031 -19.902   5.557  1.00  0.00    -0.004 A 
HETATM   26  C   UNL     1      44.119 -19.528   4.208  1.00  0.00     0.017 A 
HETATM   27  C   UNL     1      44.448 -20.479   3.239  1.00  0.00     0.043 A 
HETATM   28  C   UNL     1      44.695 -21.793   3.621  1.00  0.00     0.116 A 
HETATM   29  F   UNL     1      45.009 -22.701   2.688  1.00  0.00    -0.206 F 
HETATM   30  C   UNL     1      44.623 -22.177   4.955  1.00  0.00     0.043 A 
HETATM   31  C   UNL     1      44.295 -21.230   5.926  1.00  0.00     0.017 A 
ENDBRANCH  20  25
ENDBRANCH   2  19
TORSDOF 4
ENDMDL
MODEL 4
REMARK VINA RESULT:      -9.0      2.084      2.976
REMARK  4 active torsions:
REMARK  status: ('A' for Active; 'I' for Inactive)
REMARK    1  A    between atoms: C_4  and  C_5 
REMARK    2  A    between atoms: C_9  and  N_10 
REMARK       I    between atoms: N_10  and  C_11 
REMARK    3  A    between atoms: C_11  and  C_12 
REMARK    4  A    between atoms: C_13  and  C_14 
ROOT
HETATM    1  N   UNL     1      40.318 -15.338   0.751  1.00  0.00    -0.308 N 
HETATM    2  C   UNL     1      40.446 -13.960   0.759  1.00  0.00     0.261 C 
HETATM    3  O   UNL     1      41.489 -13.383   1.068  1.00  0.00    -0.267 OA
HETATM    4  H   UNL     1      39.458 -15.772   0.443  1.00  0.00     0.170 HD
ENDROOT
BRANCH   1   5
HETATM    5  C   UNL     1      41.378 -16.174   1.047  1.00  0.00     0.126 A 
HETATM    6  N   UNL     1      42.403 -16.466   0.186  1.00  0.00    -0.262 N 
HETATM    7  N   UNL     1      43.267 -17.375   0.667  1.00  0.00    -0.173 NA
HETATM    8  H   UNL     1      42.532 -16.098  -0.753  1.00  0.00     0.191 HD
HETATM    9  C   UNL     1      42.816 -17.641   1.903  1.00  0.00     0.090 A 
HETATM   10  C   UNL     1      41.639 -16.894   2.187  1.00  0.00     0.084 A 
BRANCH   9  11
HETATM   11  C   UNL     1      43.475 -18.617   2.764  1.00  0.00    -0.005 A 
HETATM   12  C   UNL     1      43.809 -18.295   4.086  1.00  0.00     0.020 A 
HETATM   13  C   UNL     1      44.424 -19.243   4.915  1.00  0.00    -0.061 A 
HETATM   14  C   UNL     1      44.837 -18.890   6.313  1.00  0.00     0.048 C 
HETATM   15  C   UNL     1      44.697 -20.521   4.409  1.00  0.00     0.013 A 
HETATM   16  C   UNL     1      44.356 -20.863   3.095  1.00  0.00    -0.061 A 
HETATM   17  C   UNL     1      43.764 -19.896   2.272  1.00  0.00     0.020 A 
HETATM   18  C   UNL     1      44.671 -22.229   2.561  1.00  0.00     0.048 C 
ENDBRANCH   9  11
ENDBRANCH   1   5
BRANCH   2  19
HETATM   19  C   UNL     1      39.275 -13.209   0.321  1.00  0.00     0.080 A 
HETATM   20  C   UNL     1      38.493 -13.231  -0.877  1.00  0.00     0.104 A 
HETATM   21  N   UNL     1      37.537 -12.288  -0.852  1.00  0.00    -0.174 NA
HETATM   22  N   UNL     1      37.649 -11.725   0.356  1.00  0.00    -0.288 N 
HETATM   23  H   UNL     1      36.998 -10.986   0.606  1.00  0.00     0.188 HD
HETATM   24  C   UNL     1      38.663 -12.238   1.097  1.00  0.00     0.128 A 
BRANCH  20  25
HETATM   25  C   UNL     1      38.604 -14.103  -2.043  1.00  0.00    -0.004 A 
HETATM   26  C   UNL     1      37.459 -14.498  -2.750  1.00  0.00     0.017 A 
HETATM   27  C   UNL     1      37.577 -15.343  -3.856  1.00  0.00     0.043 A 
HETATM   28  C   UNL     1      38.835 -15.781  -4.255  1.00  0.00     0.116 A 
HETATM   29  F   UNL     1      38.943 -16.592  -5.316  1.00  0.00    -0.206 F 
HETATM   30  C   UNL     1      39.980 -15.389  -3.573  1.00  0.00     0.043 A 
HETATM   31  C   UNL     1      39.866 -14.545  -2.468  1.00  0.00     0.017 A 
ENDBRANCH  20  25
ENDBRANCH   2  19
TORSDOF 4
ENDMDL
MODEL 5
REMARK VINA RESULT:      -9.0      7.153      9.497
REMARK  4 active torsions:
REMARK  status: ('A' for Active; 'I' for Inactive)
REMARK    1  A    between atoms: C_4  and  C_5 
REMARK    2  A    between atoms: C_9  and  N_10 
REMARK       I    between atoms: N_10  and  C_11 
REMARK    3  A    between atoms: C_11  and  C_12 
REMARK    4  A    between atoms: C_13  and  C_14 
ROOT
HETATM    1  N   UNL     1      44.345 -14.480   7.911  1.00  0.00    -0.308 N 
HETATM    2  C   UNL     1      43.973 -13.178   7.621  1.00  0.00     0.261 C 
HETATM    3  O   UNL     1      43.258 -12.881   6.664  1.00  0.00    -0.267 OA
HETATM    4  H   UNL     1      44.893 -14.686   8.735  1.00  0.00     0.170 HD
ENDROOT
BRANCH   1   5
HETATM    5  C   UNL     1      43.896 -15.554   7.165  1.00  0.00     0.126 A 
HETATM    6  N   UNL     1      42.608 -16.018   7.167  1.00  0.00    -0.262 N 
HETATM    7  N   UNL     1      42.434 -17.129   6.432  1.00  0.00    -0.173 NA
HETATM    8  H   UNL     1      41.823 -15.631   7.684  1.00  0.00     0.191 HD
HETATM    9  C   UNL     1      43.642 -17.362   5.893  1.00  0.00     0.090 A 
HETATM   10  C   UNL     1      44.586 -16.384   6.316  1.00  0.00     0.084 A 
BRANCH   9  11
HETATM   11  C   UNL     1      43.886 -18.515   5.033  1.00  0.00    -0.005 A 
HETATM   12  C   UNL     1      43.693 -18.429   3.649  1.00  0.00     0.020 A 
HETATM   13  C   UNL     1      43.948 -19.534   2.825  1.00  0.00    -0.061 A 
HETATM   14  C   UNL     1      43.689 -19.470   1.349  1.00  0.00     0.048 C 
HETATM   15  C   UNL     1      44.407 -20.727   3.402  1.00  0.00     0.013 A 
HETATM   16  C   UNL     1      44.619 -20.824   4.782  1.00  0.00    -0.061 A 
HETATM   17  C   UNL     1      44.335 -19.718   5.594  1.00  0.00     0.020 A 
HETATM   18  C   UNL     1      45.092 -22.112   5.388  1.00  0.00     0.048 C 
ENDBRANCH   9  11
ENDBRANCH   1   5
BRANCH   2  19
HETATM   19  C   UNL     1      44.435 -12.161   8.558  1.00  0.00     0.080 A 
HETATM   20  C   UNL     1      43.764 -11.130   9.289  1.00  0.00     0.104 A 
HETATM   21  N   UNL     1      44.636 -10.379   9.982  1.00  0.00    -0.174 NA
HETATM   22  N   UNL     1      45.824 -10.952   9.765  1.00  0.00    -0.288 N 
HETATM   23  H   UNL     1      46.642 -10.556  10.219  1.00  0.00     0.188 HD
HETATM   24  C   UNL     1      45.762 -12.019   8.929  1.00  0.00     0.128 A 
BRANCH  20  25
HETATM   25  C   UNL     1      42.339 -10.824   9.368  1.00  0.00    -0.004 A 
HETATM   26  C   UNL     1      41.630 -11.024  10.562  1.00  0.00     0.017 A 
HETATM   27  C   UNL     1      40.265 -10.739  10.621  1.00  0.00     0.043 A 
HETATM   28  C   UNL     1      39.615 -10.250   9.493  1.00  0.00     0.116 A 
HETATM   29  F   UNL     1      38.305  -9.979   9.554  1.00  0.00    -0.206 F 
HETATM   30  C   UNL     1      40.305 -10.035   8.306  1.00  0.00     0.043 A 
HETATM   31  C   UNL     1      41.670 -10.317   8.243  1.00  0.00     0.017 A 
ENDBRANCH  20  25
ENDBRANCH   2  19
TORSDOF 4
ENDMDL
MODEL 6
REMARK VINA RESULT:      -9.0      3.534      9.198
REMARK  4 active torsions:
REMARK  status: ('A' for Active; 'I' for Inactive)
REMARK    1  A    between atoms: C_4  and  C_5 
REMARK    2  A    between atoms: C_9  and  N_10 
REMARK       I    between atoms: N_10  and  C_11 
REMARK    3  A    between atoms: C_11  and  C_12 
REMARK    4  A    between atoms: C_13  and  C_14 
ROOT
HETATM    1  N   UNL     1      42.835 -15.623   3.919  1.00  0.00    -0.308 N 
HETATM    2  C   UNL     1      42.050 -16.469   4.684  1.00  0.00     0.261 C 
HETATM    3  O   UNL     1      40.860 -16.678   4.447  1.00  0.00    -0.267 OA
HETATM    4  H   UNL     1      43.821 -15.517   4.118  1.00  0.00     0.170 HD
ENDROOT
BRANCH   1   5
HETATM    5  C   UNL     1      42.344 -14.982   2.797  1.00  0.00     0.126 A 
HETATM    6  N   UNL     1      41.481 -13.919   2.823  1.00  0.00    -0.262 N 
HETATM    7  N   UNL     1      41.072 -13.527   1.606  1.00  0.00    -0.173 NA
HETATM    8  H   UNL     1      41.116 -13.453   3.650  1.00  0.00     0.191 HD
HETATM    9  C   UNL     1      41.734 -14.331   0.759  1.00  0.00     0.090 A 
HETATM   10  C   UNL     1      42.557 -15.250   1.467  1.00  0.00     0.084 A 
BRANCH   9  11
HETATM   11  C   UNL     1      41.544 -14.243  -0.685  1.00  0.00    -0.005 A 
HETATM   12  C   UNL     1      42.057 -13.160  -1.410  1.00  0.00     0.020 A 
HETATM   13  C   UNL     1      41.889 -13.091  -2.800  1.00  0.00    -0.061 A 
HETATM   14  C   UNL     1      42.385 -11.907  -3.577  1.00  0.00     0.048 C 
HETATM   15  C   UNL     1      41.206 -14.122  -3.460  1.00  0.00     0.013 A 
HETATM   16  C   UNL     1      40.701 -15.219  -2.751  1.00  0.00    -0.061 A 
HETATM   17  C   UNL     1      40.856 -15.260  -1.360  1.00  0.00     0.020 A 
HETATM   18  C   UNL     1      39.956 -16.306  -3.468  1.00  0.00     0.048 C 
ENDBRANCH   9  11
ENDBRANCH   1   5
BRANCH   2  19
HETATM   19  C   UNL     1      42.732 -17.158   5.773  1.00  0.00     0.080 A 
HETATM   20  C   UNL     1      43.472 -18.381   5.843  1.00  0.00     0.104 A 
HETATM   21  N   UNL     1      43.855 -18.646   7.103  1.00  0.00    -0.174 NA
HETATM   22  N   UNL     1      43.441 -17.590   7.812  1.00  0.00    -0.288 N 
HETATM   23  H   UNL     1      43.648 -17.565   8.806  1.00  0.00     0.188 HD
HETATM   24  C   UNL     1      42.772 -16.673   7.070  1.00  0.00     0.128 A 
BRANCH  20  25
HETATM   25  C   UNL     1      43.837 -19.308   4.777  1.00  0.00    -0.004 A 
HETATM   26  C   UNL     1      43.502 -19.031   3.444  1.00  0.00     0.017 A 
HETATM   27  C   UNL     1      43.846 -19.933   2.434  1.00  0.00     0.043 A 
HETATM   28  C   UNL     1      44.528 -21.101   2.758  1.00  0.00     0.116 A 
HETATM   29  F   UNL     1      44.854 -21.964   1.787  1.00  0.00    -0.206 F 
HETATM   30  C   UNL     1      44.878 -21.385   4.073  1.00  0.00     0.043 A 
HETATM   31  C   UNL     1      44.537 -20.486   5.084  1.00  0.00     0.017 A 
ENDBRANCH  20  25
ENDBRANCH   2  19
TORSDOF 4
ENDMDL
MODEL 7
REMARK VINA RESULT:      -8.9      2.500      3.052
REMARK  4 active torsions:
REMARK  status: ('A' for Active; 'I' for Inactive)
REMARK    1  A    between atoms: C_4  and  C_5 
REMARK    2  A    between atoms: C_9  and  N_10 
REMARK       I    between atoms: N_10  and  C_11 
REMARK    3  A    between atoms: C_11  and  C_12 
REMARK    4  A    between atoms: C_13  and  C_14 
ROOT
HETATM    1  N   UNL     1      41.627 -14.949  -0.450  1.00  0.00    -0.308 N 
HETATM    2  C   UNL     1      41.071 -14.939  -1.718  1.00  0.00     0.261 C 
HETATM    3  O   UNL     1      40.700 -15.959  -2.298  1.00  0.00    -0.267 OA
HETATM    4  H   UNL     1      41.872 -14.083   0.011  1.00  0.00     0.170 HD
ENDROOT
BRANCH   1   5
HETATM    5  C   UNL     1      41.763 -16.115   0.280  1.00  0.00     0.126 A 
HETATM    6  N   UNL     1      40.736 -16.969   0.582  1.00  0.00    -0.262 N 
HETATM    7  N   UNL     1      41.099 -17.987   1.380  1.00  0.00    -0.173 NA
HETATM    8  H   UNL     1      39.765 -16.877   0.296  1.00  0.00     0.191 HD
HETATM    9  C   UNL     1      42.418 -17.815   1.558  1.00  0.00     0.090 A 
HETATM   10  C   UNL     1      42.879 -16.658   0.870  1.00  0.00     0.084 A 
BRANCH   9  11
HETATM   11  C   UNL     1      43.200 -18.713   2.401  1.00  0.00    -0.005 A 
HETATM   12  C   UNL     1      43.525 -20.003   1.963  1.00  0.00     0.020 A 
HETATM   13  C   UNL     1      44.293 -20.855   2.769  1.00  0.00    -0.061 A 
HETATM   14  C   UNL     1      44.599 -22.258   2.333  1.00  0.00     0.048 C 
HETATM   15  C   UNL     1      44.739 -20.399   4.018  1.00  0.00     0.013 A 
HETATM   16  C   UNL     1      44.435 -19.108   4.463  1.00  0.00    -0.061 A 
HETATM   17  C   UNL     1      43.645 -18.278   3.656  1.00  0.00     0.020 A 
HETATM   18  C   UNL     1      44.902 -18.641   5.809  1.00  0.00     0.048 C 
ENDBRANCH   9  11
ENDBRANCH   1   5
BRANCH   2  19
HETATM   19  C   UNL     1      40.890 -13.623  -2.322  1.00  0.00     0.080 A 
HETATM   20  C   UNL     1      40.253 -12.423  -1.876  1.00  0.00     0.104 A 
HETATM   21  N   UNL     1      40.279 -11.475  -2.828  1.00  0.00    -0.174 NA
HETATM   22  N   UNL     1      40.977 -12.021  -3.830  1.00  0.00    -0.288 N 
HETATM   23  H   UNL     1      41.144 -11.463  -4.662  1.00  0.00     0.188 HD
HETATM   24  C   UNL     1      41.370 -13.296  -3.580  1.00  0.00     0.128 A 
BRANCH  20  25
HETATM   25  C   UNL     1      39.625 -12.126  -0.592  1.00  0.00    -0.004 A 
HETATM   26  C   UNL     1      40.260 -11.291   0.338  1.00  0.00     0.017 A 
HETATM   27  C   UNL     1      39.654 -11.025   1.568  1.00  0.00     0.043 A 
HETATM   28  C   UNL     1      38.416 -11.586   1.860  1.00  0.00     0.116 A 
HETATM   29  F   UNL     1      37.839 -11.330   3.041  1.00  0.00    -0.206 F 
HETATM   30  C   UNL     1      37.767 -12.406   0.944  1.00  0.00     0.043 A 
HETATM   31  C   UNL     1      38.369 -12.673  -0.286  1.00  0.00     0.017 A 
ENDBRANCH  20  25
ENDBRANCH   2  19
TORSDOF 4
ENDMDL
MODEL 8
REMARK VINA RESULT:      -8.8      7.304      9.748
REMARK  4 active torsions:
REMARK  status: ('A' for Active; 'I' for Inactive)
REMARK    1  A    between atoms: C_4  and  C_5 
REMARK    2  A    between atoms: C_9  and  N_10 
REMARK       I    between atoms: N_10  and  C_11 
REMARK    3  A    between atoms: C_11  and  C_12 
REMARK    4  A    between atoms: C_13  and  C_14 
ROOT
HETATM    1  N   UNL     1      44.307 -14.384   7.721  1.00  0.00    -0.308 N 
HETATM    2  C   UNL     1      43.867 -13.075   7.616  1.00  0.00     0.261 C 
HETATM    3  O   UNL     1      42.991 -12.722   6.827  1.00  0.00    -0.267 OA
HETATM    4  H   UNL     1      44.994 -14.641   8.418  1.00  0.00     0.170 HD
ENDROOT
BRANCH   1   5
HETATM    5  C   UNL     1      43.755 -15.404   6.970  1.00  0.00     0.126 A 
HETATM    6  N   UNL     1      42.883 -16.343   7.454  1.00  0.00    -0.262 N 
HETATM    7  N   UNL     1      42.556 -17.288   6.558  1.00  0.00    -0.173 NA
HETATM    8  H   UNL     1      42.514 -16.399   8.400  1.00  0.00     0.191 HD
HETATM    9  C   UNL     1      43.197 -16.918   5.437  1.00  0.00     0.090 A 
HETATM   10  C   UNL     1      43.950 -15.730   5.650  1.00  0.00     0.084 A 
BRANCH   9  11
HETATM   11  C   UNL     1      43.121 -17.711   4.215  1.00  0.00    -0.005 A 
HETATM   12  C   UNL     1      43.896 -18.867   4.062  1.00  0.00     0.020 A 
HETATM   13  C   UNL     1      43.804 -19.636   2.893  1.00  0.00    -0.061 A 
HETATM   14  C   UNL     1      44.672 -20.843   2.695  1.00  0.00     0.048 C 
HETATM   15  C   UNL     1      42.920 -19.239   1.880  1.00  0.00     0.013 A 
HETATM   16  C   UNL     1      42.127 -18.094   2.025  1.00  0.00    -0.061 A 
HETATM   17  C   UNL     1      42.250 -17.324   3.188  1.00  0.00     0.020 A 
HETATM   18  C   UNL     1      41.199 -17.671   0.925  1.00  0.00     0.048 C 
ENDBRANCH   9  11
ENDBRANCH   1   5
BRANCH   2  19
HETATM   19  C   UNL     1      44.467 -12.126   8.548  1.00  0.00     0.080 A 
HETATM   20  C   UNL     1      43.917 -11.130   9.415  1.00  0.00     0.104 A 
HETATM   21  N   UNL     1      44.886 -10.439  10.038  1.00  0.00    -0.174 NA
HETATM   22  N   UNL     1      46.024 -11.021   9.644  1.00  0.00    -0.288 N 
HETATM   23  H   UNL     1      46.901 -10.669  10.017  1.00  0.00     0.188 HD
HETATM   24  C   UNL     1      45.832 -12.034   8.761  1.00  0.00     0.128 A 
BRANCH  20  25
HETATM   25  C   UNL     1      42.521 -10.801   9.686  1.00  0.00    -0.004 A 
HETATM   26  C   UNL     1      41.936 -11.129  10.918  1.00  0.00     0.017 A 
HETATM   27  C   UNL     1      40.595 -10.822  11.160  1.00  0.00     0.043 A 
HETATM   28  C   UNL     1      39.849 -10.182  10.177  1.00  0.00     0.116 A 
HETATM   29  F   UNL     1      38.563  -9.889  10.413  1.00  0.00    -0.206 F 
HETATM   30  C   UNL     1      40.416  -9.839   8.956  1.00  0.00     0.043 A 
HETATM   31  C   UNL     1      41.755 -10.144   8.710  1.00  0.00     0.017 A 
ENDBRANCH  20  25
ENDBRANCH   2  19
TORSDOF 4
ENDMDL
MODEL 9
REMARK VINA RESULT:      -8.8      2.681      3.260
REMARK  4 active torsions:
REMARK  status: ('A' for Active; 'I' for Inactive)
REMARK    1  A    between atoms: C_4  and  C_5 
REMARK    2  A    between atoms: C_9  and  N_10 
REMARK       I    between atoms: N_10  and  C_11 
REMARK    3  A    between atoms: C_11  and  C_12 
REMARK    4  A    between atoms: C_13  and  C_14 
ROOT
HETATM    1  N   UNL     1      41.489 -16.644  -0.265  1.00  0.00    -0.308 N 
HETATM    2  C   UNL     1      41.377 -15.301  -0.582  1.00  0.00     0.261 C 
HETATM    3  O   UNL     1      41.995 -14.416   0.011  1.00  0.00    -0.267 OA
HETATM    4  H   UNL     1      41.001 -17.343  -0.810  1.00  0.00     0.170 HD
ENDROOT
BRANCH   1   5
HETATM    5  C   UNL     1      42.346 -17.094   0.721  1.00  0.00     0.126 A 
HETATM    6  N   UNL     1      43.711 -17.127   0.610  1.00  0.00    -0.262 N 
HETATM    7  N   UNL     1      44.324 -17.692   1.663  1.00  0.00    -0.173 NA
HETATM    8  H   UNL     1      44.264 -16.809  -0.181  1.00  0.00     0.191 HD
HETATM    9  C   UNL     1      43.324 -17.989   2.509  1.00  0.00     0.090 A 
HETATM   10  C   UNL     1      42.065 -17.614   1.961  1.00  0.00     0.084 A 
BRANCH   9  11
HETATM   11  C   UNL     1      43.573 -18.652   3.784  1.00  0.00    -0.005 A 
HETATM   12  C   UNL     1      44.188 -19.909   3.830  1.00  0.00     0.020 A 
HETATM   13  C   UNL     1      44.442 -20.532   5.060  1.00  0.00    -0.061 A 
HETATM   14  C   UNL     1      45.048 -21.903   5.117  1.00  0.00     0.048 C 
HETATM   15  C   UNL     1      44.080 -19.880   6.246  1.00  0.00     0.013 A 
HETATM   16  C   UNL     1      43.478 -18.616   6.218  1.00  0.00    -0.061 A 
HETATM   17  C   UNL     1      43.208 -18.019   4.980  1.00  0.00     0.020 A 
HETATM   18  C   UNL     1      43.078 -17.938   7.495  1.00  0.00     0.048 C 
ENDBRANCH   9  11
ENDBRANCH   1   5
BRANCH   2  19
HETATM   19  C   UNL     1      40.515 -14.984  -1.715  1.00  0.00     0.080 A 
HETATM   20  C   UNL     1      39.374 -14.135  -1.866  1.00  0.00     0.104 A 
HETATM   21  N   UNL     1      38.860 -14.226  -3.105  1.00  0.00    -0.174 NA
HETATM   22  N   UNL     1      39.689 -15.049  -3.755  1.00  0.00    -0.288 N 
HETATM   23  H   UNL     1      39.503 -15.247  -4.734  1.00  0.00     0.188 HD
HETATM   24  C   UNL     1      40.694 -15.526  -2.977  1.00  0.00     0.128 A 
BRANCH  20  25
HETATM   25  C   UNL     1      38.747 -13.240  -0.899  1.00  0.00    -0.004 A 
HETATM   26  C   UNL     1      37.671 -13.679  -0.112  1.00  0.00     0.017 A 
HETATM   27  C   UNL     1      37.071 -12.809   0.800  1.00  0.00     0.043 A 
HETATM   28  C   UNL     1      37.551 -11.510   0.930  1.00  0.00     0.116 A 
HETATM   29  F   UNL     1      36.972 -10.679   1.806  1.00  0.00    -0.206 F 
HETATM   30  C   UNL     1      38.623 -11.063   0.167  1.00  0.00     0.043 A 
HETATM   31  C   UNL     1      39.226 -11.930  -0.746  1.00  0.00     0.017 A 
ENDBRANCH  20  25
ENDBRANCH   2  19
TORSDOF 4
ENDMDL
MODEL 10
REMARK VINA RESULT:      -8.7      3.686      9.636
REMARK  4 active torsions:
REMARK  status: ('A' for Active; 'I' for Inactive)
REMARK    1  A    between atoms: C_4  and  C_5 
REMARK    2  A    between atoms: C_9  and  N_10 
REMARK       I    between atoms: N_10  and  C_11 
REMARK    3  A    between atoms: C_11  and  C_12 
REMARK    4  A    between atoms: C_13  and  C_14 
ROOT
HETATM    1  N   UNL     1      40.515 -16.172   3.205  1.00  0.00    -0.308 N 
HETATM    2  C   UNL     1      41.807 -15.967   3.660  1.00  0.00     0.261 C 
HETATM    3  O   UNL     1      42.616 -15.240   3.084  1.00  0.00    -0.267 OA
HETATM    4  H   UNL     1      39.867 -16.738   3.736  1.00  0.00     0.170 HD
ENDROOT
BRANCH   1   5
HETATM    5  C   UNL     1      40.024 -15.530   2.083  1.00  0.00     0.126 A 
HETATM    6  N   UNL     1      40.569 -15.626   0.831  1.00  0.00    -0.262 N 
HETATM    7  N   UNL     1      39.972 -14.838  -0.078  1.00  0.00    -0.173 NA
HETATM    8  H   UNL     1      41.372 -16.186   0.558  1.00  0.00     0.191 HD
HETATM    9  C   UNL     1      38.971 -14.252   0.598  1.00  0.00     0.090 A 
HETATM   10  C   UNL     1      38.959 -14.672   1.957  1.00  0.00     0.084 A 
BRANCH   9  11
HETATM   11  C   UNL     1      38.083 -13.284  -0.037  1.00  0.00    -0.005 A 
HETATM   12  C   UNL     1      37.172 -12.541   0.724  1.00  0.00     0.020 A 
HETATM   13  C   UNL     1      36.335 -11.598   0.111  1.00  0.00    -0.061 A 
HETATM   14  C   UNL     1      35.317 -10.839   0.910  1.00  0.00     0.048 C 
HETATM   15  C   UNL     1      36.424 -11.402  -1.274  1.00  0.00     0.013 A 
HETATM   16  C   UNL     1      37.339 -12.126  -2.047  1.00  0.00    -0.061 A 
HETATM   17  C   UNL     1      38.151 -13.082  -1.422  1.00  0.00     0.020 A 
HETATM   18  C   UNL     1      37.409 -11.919  -3.530  1.00  0.00     0.048 C 
ENDBRANCH   9  11
ENDBRANCH   1   5
BRANCH   2  19
HETATM   19  C   UNL     1      42.151 -16.627   4.915  1.00  0.00     0.080 A 
HETATM   20  C   UNL     1      42.787 -17.871   5.221  1.00  0.00     0.104 A 
HETATM   21  N   UNL     1      42.821 -18.087   6.546  1.00  0.00    -0.174 NA
HETATM   22  N   UNL     1      42.291 -16.982   7.083  1.00  0.00    -0.288 N 
HETATM   23  H   UNL     1      42.237 -16.916   8.095  1.00  0.00     0.188 HD
HETATM   24  C   UNL     1      41.881 -16.079   6.157  1.00  0.00     0.128 A 
BRANCH  20  25
HETATM   25  C   UNL     1      43.368 -18.864   4.322  1.00  0.00    -0.004 A 
HETATM   26  C   UNL     1      44.342 -19.762   4.784  1.00  0.00     0.017 A 
HETATM   27  C   UNL     1      44.899 -20.699   3.911  1.00  0.00     0.043 A 
HETATM   28  C   UNL     1      44.477 -20.741   2.587  1.00  0.00     0.116 A 
HETATM   29  F   UNL     1      45.015 -21.641   1.752  1.00  0.00    -0.206 F 
HETATM   30  C   UNL     1      43.504 -19.867   2.117  1.00  0.00     0.043 A 
HETATM   31  C   UNL     1      42.944 -18.930   2.986  1.00  0.00     0.017 A 
ENDBRANCH  20  25
ENDBRANCH   2  19
TORSDOF 4
ENDMDL
