MODEL 1
REMARK VINA RESULT:      -8.9      0.000      0.000
REMARK  7 active torsions:
REMARK  status: ('A' for Active; 'I' for Inactive)
REMARK    1  A    between atoms: C_5  and  O_6 
REMARK    2  A    between atoms: O_6  and  C_7 
REMARK    3  A    between atoms: C_7  and  C_8 
REMARK    4  A    between atoms: C_8  and  N_9 
REMARK       I    between atoms: N_9  and  C_10 
REMARK       I    between atoms: C_10  and  N_11 
REMARK    5  A    between atoms: N_11  and  C_12 
REMARK    6  A    between atoms: N_15  and  S_16 
REMARK    7  A    between atoms: S_16  and  C_17 
ROOT
HETATM    1  C   UNL     1      42.084 -14.979   4.396  1.00  0.00     0.103 A 
HETATM    2  S   UNL     1      42.476 -15.056   2.689  1.00  0.00    -0.032 SA
HETATM    3  C   UNL     1      40.759 -14.982   2.232  1.00  0.00     0.185 A 
HETATM    4  N   UNL     1      40.246 -14.960   1.050  1.00  0.00    -0.134 NA
HETATM    5  N   UNL     1      40.037 -14.933   3.402  1.00  0.00    -0.336 N 
HETATM    6  C   UNL     1      40.754 -14.891   4.595  1.00  0.00     0.041 A 
HETATM    7  C   UNL     1      40.011 -14.623   5.863  1.00  0.00     0.071 C 
HETATM    8  H   UNL     1      39.041 -14.765   3.386  1.00  0.00     0.168 HD
ENDROOT
BRANCH   1   9
HETATM    9  N   UNL     1      43.158 -14.954   5.224  1.00  0.00    -0.301 N 
HETATM   10  C   UNL     1      43.497 -15.549   6.394  1.00  0.00     0.321 C 
HETATM   11  N   UNL     1      42.749 -16.615   6.807  1.00  0.00    -0.341 N 
HETATM   12  O   UNL     1      44.510 -15.170   6.977  1.00  0.00    -0.247 OA
HETATM   13  H   UNL     1      42.221 -17.055   6.069  1.00  0.00     0.164 HD
HETATM   14  H   UNL     1      43.942 -14.421   4.864  1.00  0.00     0.171 HD
BRANCH  11  15
HETATM   15  C   UNL     1      43.312 -17.527   7.793  1.00  0.00     0.151 C 
BRANCH  15  16
HETATM   16  C   UNL     1      43.675 -18.909   7.250  1.00  0.00     0.195 C 
BRANCH  16  17
HETATM   17  O   UNL     1      44.636 -18.693   6.214  1.00  0.00    -0.350 OA
BRANCH  17  18
HETATM   18  C   UNL     1      44.482 -19.345   5.026  1.00  0.00     0.068 A 
HETATM   19  C   UNL     1      44.818 -20.700   5.069  1.00  0.00     0.037 A 
HETATM   20  C   UNL     1      44.699 -21.505   3.934  1.00  0.00     0.009 A 
HETATM   21  C   UNL     1      44.244 -20.958   2.732  1.00  0.00    -0.062 A 
HETATM   22  C   UNL     1      44.083 -21.817   1.513  1.00  0.00     0.048 C 
HETATM   23  C   UNL     1      43.903 -19.601   2.693  1.00  0.00     0.009 A 
HETATM   24  C   UNL     1      44.026 -18.794   3.832  1.00  0.00     0.037 A 
ENDBRANCH  17  18
ENDBRANCH  16  17
ENDBRANCH  15  16
ENDBRANCH  11  15
ENDBRANCH   1   9
BRANCH   4  25
HETATM   25  S   UNL     1      41.208 -15.030  -0.250  1.00  0.00     0.285 S 
HETATM   26  O   UNL     1      41.993 -13.811  -0.321  1.00  0.00    -0.198 OA
HETATM   27  O   UNL     1      41.837 -16.334  -0.319  1.00  0.00    -0.198 OA
BRANCH  25  28
HETATM   28  C   UNL     1      40.086 -14.976  -1.637  1.00  0.00     0.081 A 
HETATM   29  C   UNL     1      40.364 -15.734  -2.780  1.00  0.00     0.025 A 
HETATM   30  C   UNL     1      39.476 -15.708  -3.854  1.00  0.00     0.002 A 
HETATM   31  C   UNL     1      38.322 -14.924  -3.786  1.00  0.00     0.000 A 
HETATM   32  C   UNL     1      38.052 -14.165  -2.644  1.00  0.00     0.002 A 
HETATM   33  C   UNL     1      38.935 -14.188  -1.564  1.00  0.00     0.025 A 
ENDBRANCH  25  28
ENDBRANCH   4  25
TORSDOF 7
ENDMDL
MODEL 2
REMARK VINA RESULT:      -8.8      5.260      9.123
REMARK  7 active torsions:
REMARK  status: ('A' for Active; 'I' for Inactive)
REMARK    1  A    between atoms: C_5  and  O_6 
REMARK    2  A    between atoms: O_6  and  C_7 
REMARK    3  A    between atoms: C_7  and  C_8 
REMARK    4  A    between atoms: C_8  and  N_9 
REMARK       I    between atoms: N_9  and  C_10 
REMARK       I    between atoms: C_10  and  N_11 
REMARK    5  A    between atoms: N_11  and  C_12 
REMARK    6  A    between atoms: N_15  and  S_16 
REMARK    7  A    between atoms: S_16  and  C_17 
ROOT
HETATM    1  C   UNL     1      40.315 -12.992   5.275  1.00  0.00     0.103 A 
HETATM    2  S   UNL     1      40.673 -14.635   5.771  1.00  0.00    -0.032 SA
HETATM    3  C   UNL     1      41.623 -14.934   4.298  1.00  0.00     0.185 A 
HETATM    4  N   UNL     1      42.268 -15.999   3.964  1.00  0.00    -0.134 NA
HETATM    5  N   UNL     1      41.568 -13.783   3.547  1.00  0.00    -0.336 N 
HETATM    6  C   UNL     1      40.886 -12.697   4.090  1.00  0.00     0.041 A 
HETATM    7  C   UNL     1      40.989 -11.375   3.402  1.00  0.00     0.071 C 
HETATM    8  H   UNL     1      42.138 -13.680   2.719  1.00  0.00     0.168 HD
ENDROOT
BRANCH   1   9
HETATM    9  N   UNL     1      39.593 -12.273   6.171  1.00  0.00    -0.301 N 
HETATM   10  C   UNL     1      39.840 -11.681   7.364  1.00  0.00     0.321 C 
HETATM   11  N   UNL     1      41.143 -11.513   7.736  1.00  0.00    -0.341 N 
HETATM   12  O   UNL     1      38.893 -11.237   8.010  1.00  0.00    -0.247 OA
HETATM   13  H   UNL     1      41.795 -11.554   6.968  1.00  0.00     0.164 HD
HETATM   14  H   UNL     1      38.653 -12.052   5.858  1.00  0.00     0.171 HD
BRANCH  11  15
HETATM   15  C   UNL     1      41.459 -10.529   8.763  1.00  0.00     0.151 C 
BRANCH  15  16
HETATM   16  C   UNL     1      42.884 -10.609   9.307  1.00  0.00     0.195 C 
BRANCH  16  17
HETATM   17  O   UNL     1      42.824 -11.437  10.470  1.00  0.00    -0.350 OA
BRANCH  17  18
HETATM   18  C   UNL     1      42.758 -10.845  11.697  1.00  0.00     0.068 A 
HETATM   19  C   UNL     1      41.627 -11.194  12.441  1.00  0.00     0.037 A 
HETATM   20  C   UNL     1      41.426 -10.680  13.724  1.00  0.00     0.009 A 
HETATM   21  C   UNL     1      42.358  -9.801  14.280  1.00  0.00    -0.062 A 
HETATM   22  C   UNL     1      42.170  -9.265  15.668  1.00  0.00     0.048 C 
HETATM   23  C   UNL     1      43.493  -9.457  13.535  1.00  0.00     0.009 A 
HETATM   24  C   UNL     1      43.691  -9.971  12.246  1.00  0.00     0.037 A 
ENDBRANCH  17  18
ENDBRANCH  16  17
ENDBRANCH  15  16
ENDBRANCH  11  15
ENDBRANCH   1   9
BRANCH   4  25
HETATM   25  S   UNL     1      42.249 -17.294   4.937  1.00  0.00     0.285 S 
HETATM   26  O   UNL     1      43.053 -17.011   6.112  1.00  0.00    -0.198 OA
HETATM   27  O   UNL     1      40.892 -17.791   5.056  1.00  0.00    -0.198 OA
BRANCH  25  28
HETATM   28  C   UNL     1      43.131 -18.548   4.025  1.00  0.00     0.081 A 
HETATM   29  C   UNL     1      44.093 -19.327   4.676  1.00  0.00     0.025 A 
HETATM   30  C   UNL     1      44.767 -20.321   3.967  1.00  0.00     0.002 A 
HETATM   31  C   UNL     1      44.481 -20.531   2.617  1.00  0.00     0.000 A 
HETATM   32  C   UNL     1      43.521 -19.747   1.970  1.00  0.00     0.002 A 
HETATM   33  C   UNL     1      42.842 -18.751   2.673  1.00  0.00     0.025 A 
ENDBRANCH  25  28
ENDBRANCH   4  25
TORSDOF 7
ENDMDL
MODEL 3
REMARK VINA RESULT:      -8.6      2.249      2.588
REMARK  7 active torsions:
REMARK  status: ('A' for Active; 'I' for Inactive)
REMARK    1  A    between atoms: C_5  and  O_6 
REMARK    2  A    between atoms: O_6  and  C_7 
REMARK    3  A    between atoms: C_7  and  C_8 
REMARK    4  A    between atoms: C_8  and  N_9 
REMARK       I    between atoms: N_9  and  C_10 
REMARK       I    between atoms: C_10  and  N_11 
REMARK    5  A    between atoms: N_11  and  C_12 
REMARK    6  A    between atoms: N_15  and  S_16 
REMARK    7  A    between atoms: S_16  and  C_17 
ROOT
HETATM    1  C   UNL     1      40.366 -14.509   4.805  1.00  0.00     0.103 A 
HETATM    2  S   UNL     1      40.379 -15.033   3.131  1.00  0.00    -0.032 SA
HETATM    3  C   UNL     1      40.935 -13.438   2.577  1.00  0.00     0.185 A 
HETATM    4  N   UNL     1      41.215 -13.060   1.377  1.00  0.00    -0.134 NA
HETATM    5  N   UNL     1      41.038 -12.641   3.693  1.00  0.00    -0.336 N 
HETATM    6  C   UNL     1      40.766 -13.229   4.926  1.00  0.00     0.041 A 
HETATM    7  C   UNL     1      41.074 -12.456   6.167  1.00  0.00     0.071 C 
HETATM    8  H   UNL     1      41.454 -11.722   3.634  1.00  0.00     0.168 HD
ENDROOT
BRANCH   1   9
HETATM    9  N   UNL     1      40.027 -15.473   5.698  1.00  0.00    -0.301 N 
HETATM   10  C   UNL     1      40.666 -16.503   6.304  1.00  0.00     0.321 C 
HETATM   11  N   UNL     1      42.031 -16.530   6.247  1.00  0.00    -0.341 N 
HETATM   12  O   UNL     1      40.003 -17.308   6.954  1.00  0.00    -0.247 OA
HETATM   13  H   UNL     1      42.448 -15.635   6.039  1.00  0.00     0.164 HD
HETATM   14  H   UNL     1      39.089 -15.375   6.071  1.00  0.00     0.171 HD
BRANCH  11  15
HETATM   15  C   UNL     1      42.757 -17.341   7.214  1.00  0.00     0.151 C 
BRANCH  15  16
HETATM   16  C   UNL     1      44.023 -18.001   6.670  1.00  0.00     0.195 C 
BRANCH  16  17
HETATM   17  O   UNL     1      44.128 -17.601   5.302  1.00  0.00    -0.350 OA
BRANCH  17  18
HETATM   18  C   UNL     1      44.081 -18.557   4.330  1.00  0.00     0.068 A 
HETATM   19  C   UNL     1      44.724 -19.750   4.668  1.00  0.00     0.037 A 
HETATM   20  C   UNL     1      44.748 -20.828   3.780  1.00  0.00     0.009 A 
HETATM   21  C   UNL     1      44.129 -20.722   2.533  1.00  0.00    -0.062 A 
HETATM   22  C   UNL     1      44.120 -21.882   1.582  1.00  0.00     0.048 C 
HETATM   23  C   UNL     1      43.480 -19.527   2.199  1.00  0.00     0.009 A 
HETATM   24  C   UNL     1      43.460 -18.445   3.090  1.00  0.00     0.037 A 
ENDBRANCH  17  18
ENDBRANCH  16  17
ENDBRANCH  15  16
ENDBRANCH  11  15
ENDBRANCH   1   9
BRANCH   4  25
HETATM   25  S   UNL     1      41.047 -14.097   0.144  1.00  0.00     0.285 S 
HETATM   26  O   UNL     1      42.022 -15.162   0.287  1.00  0.00    -0.198 OA
HETATM   27  O   UNL     1      39.641 -14.387  -0.056  1.00  0.00    -0.198 OA
BRANCH  25  28
HETATM   28  C   UNL     1      41.542 -13.163  -1.294  1.00  0.00     0.081 A 
HETATM   29  C   UNL     1      42.423 -12.086  -1.148  1.00  0.00     0.025 A 
HETATM   30  C   UNL     1      42.826 -11.370  -2.274  1.00  0.00     0.002 A 
HETATM   31  C   UNL     1      42.347 -11.727  -3.536  1.00  0.00     0.000 A 
HETATM   32  C   UNL     1      41.463 -12.801  -3.675  1.00  0.00     0.002 A 
HETATM   33  C   UNL     1      41.057 -13.524  -2.553  1.00  0.00     0.025 A 
ENDBRANCH  25  28
ENDBRANCH   4  25
TORSDOF 7
ENDMDL
MODEL 4
REMARK VINA RESULT:      -8.4      2.593      7.631
REMARK  7 active torsions:
REMARK  status: ('A' for Active; 'I' for Inactive)
REMARK    1  A    between atoms: C_5  and  O_6 
REMARK    2  A    between atoms: O_6  and  C_7 
REMARK    3  A    between atoms: C_7  and  C_8 
REMARK    4  A    between atoms: C_8  and  N_9 
REMARK       I    between atoms: N_9  and  C_10 
REMARK       I    between atoms: C_10  and  N_11 
REMARK    5  A    between atoms: N_11  and  C_12 
REMARK    6  A    between atoms: N_15  and  S_16 
REMARK    7  A    between atoms: S_16  and  C_17 
ROOT
HETATM    1  C   UNL     1      39.829 -13.809   2.662  1.00  0.00     0.103 A 
HETATM    2  S   UNL     1      41.203 -14.591   3.420  1.00  0.00    -0.032 SA
HETATM    3  C   UNL     1      40.742 -16.174   2.753  1.00  0.00     0.185 A 
HETATM    4  N   UNL     1      41.353 -17.302   2.874  1.00  0.00    -0.134 NA
HETATM    5  N   UNL     1      39.581 -15.983   2.041  1.00  0.00    -0.336 N 
HETATM    6  C   UNL     1      39.092 -14.683   1.951  1.00  0.00     0.041 A 
HETATM    7  C   UNL     1      37.961 -14.411   1.014  1.00  0.00     0.071 C 
HETATM    8  H   UNL     1      39.198 -16.726   1.472  1.00  0.00     0.168 HD
ENDROOT
BRANCH   1   9
HETATM    9  N   UNL     1      39.765 -12.467   2.853  1.00  0.00    -0.301 N 
HETATM   10  C   UNL     1      40.506 -11.396   2.477  1.00  0.00     0.321 C 
HETATM   11  N   UNL     1      41.426 -11.574   1.483  1.00  0.00    -0.341 N 
HETATM   12  O   UNL     1      40.253 -10.300   2.973  1.00  0.00    -0.247 OA
HETATM   13  H   UNL     1      41.257 -12.387   0.911  1.00  0.00     0.164 HD
HETATM   14  H   UNL     1      38.925 -12.160   3.333  1.00  0.00     0.171 HD
BRANCH  11  15
HETATM   15  C   UNL     1      41.920 -10.406   0.768  1.00  0.00     0.151 C 
BRANCH  15  16
HETATM   16  C   UNL     1      42.283 -10.659  -0.695  1.00  0.00     0.195 C 
BRANCH  16  17
HETATM   17  O   UNL     1      42.834 -11.977  -0.749  1.00  0.00    -0.350 OA
BRANCH  17  18
HETATM   18  C   UNL     1      42.193 -12.929  -1.486  1.00  0.00     0.068 A 
HETATM   19  C   UNL     1      41.691 -13.994  -0.735  1.00  0.00     0.037 A 
HETATM   20  C   UNL     1      40.998 -15.040  -1.348  1.00  0.00     0.009 A 
HETATM   21  C   UNL     1      40.802 -15.035  -2.730  1.00  0.00    -0.062 A 
HETATM   22  C   UNL     1      40.033 -16.136  -3.398  1.00  0.00     0.048 C 
HETATM   23  C   UNL     1      41.301 -13.963  -3.481  1.00  0.00     0.009 A 
HETATM   24  C   UNL     1      42.000 -12.917  -2.864  1.00  0.00     0.037 A 
ENDBRANCH  17  18
ENDBRANCH  16  17
ENDBRANCH  15  16
ENDBRANCH  11  15
ENDBRANCH   1   9
BRANCH   4  25
HETATM   25  S   UNL     1      42.714 -17.395   3.748  1.00  0.00     0.285 S 
HETATM   26  O   UNL     1      43.659 -16.410   3.254  1.00  0.00    -0.198 OA
HETATM   27  O   UNL     1      42.381 -17.476   5.156  1.00  0.00    -0.198 OA
BRANCH  25  28
HETATM   28  C   UNL     1      43.400 -18.989   3.335  1.00  0.00     0.081 A 
HETATM   29  C   UNL     1      44.256 -19.628   4.239  1.00  0.00     0.025 A 
HETATM   30  C   UNL     1      44.774 -20.883   3.925  1.00  0.00     0.002 A 
HETATM   31  C   UNL     1      44.443 -21.491   2.712  1.00  0.00     0.000 A 
HETATM   32  C   UNL     1      43.591 -20.847   1.811  1.00  0.00     0.002 A 
HETATM   33  C   UNL     1      43.067 -19.591   2.119  1.00  0.00     0.025 A 
ENDBRANCH  25  28
ENDBRANCH   4  25
TORSDOF 7
ENDMDL
MODEL 5
REMARK VINA RESULT:      -8.4      4.734      8.980
REMARK  7 active torsions:
REMARK  status: ('A' for Active; 'I' for Inactive)
REMARK    1  A    between atoms: C_5  and  O_6 
REMARK    2  A    between atoms: O_6  and  C_7 
REMARK    3  A    between atoms: C_7  and  C_8 
REMARK    4  A    between atoms: C_8  and  N_9 
REMARK       I    between atoms: N_9  and  C_10 
REMARK       I    between atoms: C_10  and  N_11 
REMARK    5  A    between atoms: N_11  and  C_12 
REMARK    6  A    between atoms: N_15  and  S_16 
REMARK    7  A    between atoms: S_16  and  C_17 
ROOT
HETATM    1  C   UNL     1      42.960 -13.498   5.641  1.00  0.00     0.103 A 
HETATM    2  S   UNL     1      42.480 -14.664   4.421  1.00  0.00    -0.032 SA
HETATM    3  C   UNL     1      43.534 -15.914   5.120  1.00  0.00     0.185 A 
HETATM    4  N   UNL     1      43.687 -17.136   4.740  1.00  0.00    -0.134 NA
HETATM    5  N   UNL     1      44.175 -15.341   6.193  1.00  0.00    -0.336 N 
HETATM    6  C   UNL     1      43.840 -14.028   6.513  1.00  0.00     0.041 A 
HETATM    7  C   UNL     1      44.356 -13.452   7.790  1.00  0.00     0.071 C 
HETATM    8  H   UNL     1      44.737 -15.902   6.818  1.00  0.00     0.168 HD
ENDROOT
BRANCH   1   9
HETATM    9  N   UNL     1      42.334 -12.298   5.554  1.00  0.00    -0.301 N 
HETATM   10  C   UNL     1      41.167 -11.776   6.004  1.00  0.00     0.321 C 
HETATM   11  N   UNL     1      40.493 -12.463   6.973  1.00  0.00    -0.341 N 
HETATM   12  O   UNL     1      40.818 -10.670   5.597  1.00  0.00    -0.247 OA
HETATM   13  H   UNL     1      41.066 -13.119   7.483  1.00  0.00     0.164 HD
HETATM   14  H   UNL     1      42.890 -11.576   5.107  1.00  0.00     0.171 HD
BRANCH  11  15
HETATM   15  C   UNL     1      39.500 -11.758   7.772  1.00  0.00     0.151 C 
BRANCH  15  16
HETATM   16  C   UNL     1      40.080 -10.771   8.784  1.00  0.00     0.195 C 
BRANCH  16  17
HETATM   17  O   UNL     1      39.917 -11.372  10.070  1.00  0.00    -0.350 OA
BRANCH  17  18
HETATM   18  C   UNL     1      40.697 -10.942  11.102  1.00  0.00     0.068 A 
HETATM   19  C   UNL     1      41.676 -10.016  10.733  1.00  0.00     0.037 A 
HETATM   20  C   UNL     1      42.545  -9.474  11.683  1.00  0.00     0.009 A 
HETATM   21  C   UNL     1      42.445  -9.856  13.022  1.00  0.00    -0.062 A 
HETATM   22  C   UNL     1      43.351  -9.258  14.058  1.00  0.00     0.048 C 
HETATM   23  C   UNL     1      41.459 -10.780  13.391  1.00  0.00     0.009 A 
HETATM   24  C   UNL     1      40.592 -11.326  12.436  1.00  0.00     0.037 A 
ENDBRANCH  17  18
ENDBRANCH  16  17
ENDBRANCH  15  16
ENDBRANCH  11  15
ENDBRANCH   1   9
BRANCH   4  25
HETATM   25  S   UNL     1      42.874 -17.690   3.453  1.00  0.00     0.285 S 
HETATM   26  O   UNL     1      41.480 -17.866   3.816  1.00  0.00    -0.198 OA
HETATM   27  O   UNL     1      43.254 -16.932   2.277  1.00  0.00    -0.198 OA
BRANCH  25  28
HETATM   28  C   UNL     1      43.526 -19.329   3.186  1.00  0.00     0.081 A 
HETATM   29  C   UNL     1      44.289 -19.940   4.187  1.00  0.00     0.025 A 
HETATM   30  C   UNL     1      44.780 -21.229   3.986  1.00  0.00     0.002 A 
HETATM   31  C   UNL     1      44.513 -21.899   2.790  1.00  0.00     0.000 A 
HETATM   32  C   UNL     1      43.754 -21.282   1.792  1.00  0.00     0.002 A 
HETATM   33  C   UNL     1      43.257 -19.993   1.986  1.00  0.00     0.025 A 
ENDBRANCH  25  28
ENDBRANCH   4  25
TORSDOF 7
ENDMDL
MODEL 6
REMARK VINA RESULT:      -8.3      4.008      8.433
REMARK  7 active torsions:
REMARK  status: ('A' for Active; 'I' for Inactive)
REMARK    1  A    between atoms: C_5  and  O_6 
REMARK    2  A    between atoms: O_6  and  C_7 
REMARK    3  A    between atoms: C_7  and  C_8 
REMARK    4  A    between atoms: C_8  and  N_9 
REMARK       I    between atoms: N_9  and  C_10 
REMARK       I    between atoms: C_10  and  N_11 
REMARK    5  A    between atoms: N_11  and  C_12 
REMARK    6  A    between atoms: N_15  and  S_16 
REMARK    7  A    between atoms: S_16  and  C_17 
ROOT
HETATM    1  C   UNL     1      40.729 -14.069   2.370  1.00  0.00     0.103 A 
HETATM    2  S   UNL     1      42.234 -14.896   2.726  1.00  0.00    -0.032 SA
HETATM    3  C   UNL     1      41.464 -16.490   2.559  1.00  0.00     0.185 A 
HETATM    4  N   UNL     1      42.006 -17.655   2.659  1.00  0.00    -0.134 NA
HETATM    5  N   UNL     1      40.137 -16.264   2.277  1.00  0.00    -0.336 N 
HETATM    6  C   UNL     1      39.730 -14.941   2.131  1.00  0.00     0.041 A 
HETATM    7  C   UNL     1      38.354 -14.671   1.618  1.00  0.00     0.071 C 
HETATM    8  H   UNL     1      39.527 -17.028   2.021  1.00  0.00     0.168 HD
ENDROOT
BRANCH   1   9
HETATM    9  N   UNL     1      40.823 -12.716   2.327  1.00  0.00    -0.301 N 
HETATM   10  C   UNL     1      40.767 -11.709   3.233  1.00  0.00     0.321 C 
HETATM   11  N   UNL     1      40.870 -12.035   4.555  1.00  0.00    -0.341 N 
HETATM   12  O   UNL     1      40.723 -10.551   2.826  1.00  0.00    -0.247 OA
HETATM   13  H   UNL     1      41.288 -12.938   4.722  1.00  0.00     0.164 HD
HETATM   14  H   UNL     1      41.065 -12.350   1.412  1.00  0.00     0.171 HD
BRANCH  11  15
HETATM   15  C   UNL     1      41.241 -10.996   5.507  1.00  0.00     0.151 C 
BRANCH  15  16
HETATM   16  C   UNL     1      41.337 -11.465   6.958  1.00  0.00     0.195 C 
BRANCH  16  17
HETATM   17  O   UNL     1      42.582 -10.971   7.457  1.00  0.00    -0.350 OA
BRANCH  17  18
HETATM   18  C   UNL     1      42.680 -10.646   8.778  1.00  0.00     0.068 A 
HETATM   19  C   UNL     1      43.791 -11.198   9.422  1.00  0.00     0.037 A 
HETATM   20  C   UNL     1      44.035 -10.944  10.773  1.00  0.00     0.009 A 
HETATM   21  C   UNL     1      43.162 -10.134  11.503  1.00  0.00    -0.062 A 
HETATM   22  C   UNL     1      43.429  -9.829  12.947  1.00  0.00     0.048 C 
HETATM   23  C   UNL     1      42.053  -9.578  10.854  1.00  0.00     0.009 A 
HETATM   24  C   UNL     1      41.808  -9.837   9.499  1.00  0.00     0.037 A 
ENDBRANCH  17  18
ENDBRANCH  16  17
ENDBRANCH  15  16
ENDBRANCH  11  15
ENDBRANCH   1   9
BRANCH   4  25
HETATM   25  S   UNL     1      43.583 -17.786   3.002  1.00  0.00     0.285 S 
HETATM   26  O   UNL     1      44.352 -17.227   1.906  1.00  0.00    -0.198 OA
HETATM   27  O   UNL     1      43.817 -17.372   4.372  1.00  0.00    -0.198 OA
BRANCH  25  28
HETATM   28  C   UNL     1      43.899 -19.542   2.982  1.00  0.00     0.081 A 
HETATM   29  C   UNL     1      43.523 -20.298   1.867  1.00  0.00     0.025 A 
HETATM   30  C   UNL     1      43.789 -21.667   1.843  1.00  0.00     0.002 A 
HETATM   31  C   UNL     1      44.422 -22.273   2.930  1.00  0.00     0.000 A 
HETATM   32  C   UNL     1      44.791 -21.513   4.044  1.00  0.00     0.002 A 
HETATM   33  C   UNL     1      44.530 -20.143   4.074  1.00  0.00     0.025 A 
ENDBRANCH  25  28
ENDBRANCH   4  25
TORSDOF 7
ENDMDL
MODEL 7
REMARK VINA RESULT:      -8.1      2.546      3.388
REMARK  7 active torsions:
REMARK  status: ('A' for Active; 'I' for Inactive)
REMARK    1  A    between atoms: C_5  and  O_6 
REMARK    2  A    between atoms: O_6  and  C_7 
REMARK    3  A    between atoms: C_7  and  C_8 
REMARK    4  A    between atoms: C_8  and  N_9 
REMARK       I    between atoms: N_9  and  C_10 
REMARK       I    between atoms: C_10  and  N_11 
REMARK    5  A    between atoms: N_11  and  C_12 
REMARK    6  A    between atoms: N_15  and  S_16 
REMARK    7  A    between atoms: S_16  and  C_17 
ROOT
HETATM    1  C   UNL     1      41.392 -16.583   2.222  1.00  0.00     0.103 A 
HETATM    2  S   UNL     1      40.464 -15.274   1.515  1.00  0.00    -0.032 SA
HETATM    3  C   UNL     1      41.459 -15.288   0.041  1.00  0.00     0.185 A 
HETATM    4  N   UNL     1      41.332 -14.563  -1.017  1.00  0.00    -0.134 NA
HETATM    5  N   UNL     1      42.419 -16.256   0.218  1.00  0.00    -0.336 N 
HETATM    6  C   UNL     1      42.369 -17.000   1.394  1.00  0.00     0.041 A 
HETATM    7  C   UNL     1      43.260 -18.193   1.520  1.00  0.00     0.071 C 
HETATM    8  H   UNL     1      43.026 -16.525  -0.544  1.00  0.00     0.168 HD
ENDROOT
BRANCH   1   9
HETATM    9  N   UNL     1      40.949 -17.002   3.434  1.00  0.00    -0.301 N 
HETATM   10  C   UNL     1      41.433 -16.997   4.700  1.00  0.00     0.321 C 
HETATM   11  N   UNL     1      42.514 -16.206   4.967  1.00  0.00    -0.341 N 
HETATM   12  O   UNL     1      40.827 -17.623   5.566  1.00  0.00    -0.247 OA
HETATM   13  H   UNL     1      42.658 -15.470   4.292  1.00  0.00     0.164 HD
HETATM   14  H   UNL     1      39.993 -17.341   3.427  1.00  0.00     0.171 HD
BRANCH  11  15
HETATM   15  C   UNL     1      42.793 -15.841   6.349  1.00  0.00     0.151 C 
BRANCH  15  16
HETATM   16  C   UNL     1      44.113 -16.382   6.898  1.00  0.00     0.195 C 
BRANCH  16  17
HETATM   17  O   UNL     1      43.821 -17.667   7.451  1.00  0.00    -0.350 OA
BRANCH  17  18
HETATM   18  C   UNL     1      44.120 -18.781   6.724  1.00  0.00     0.068 A 
HETATM   19  C   UNL     1      43.675 -19.975   7.297  1.00  0.00     0.037 A 
HETATM   20  C   UNL     1      43.894 -21.200   6.662  1.00  0.00     0.009 A 
HETATM   21  C   UNL     1      44.569 -21.245   5.441  1.00  0.00    -0.062 A 
HETATM   22  C   UNL     1      44.784 -22.550   4.733  1.00  0.00     0.048 C 
HETATM   23  C   UNL     1      45.008 -20.046   4.866  1.00  0.00     0.009 A 
HETATM   24  C   UNL     1      44.791 -18.819   5.506  1.00  0.00     0.037 A 
ENDBRANCH  17  18
ENDBRANCH  16  17
ENDBRANCH  15  16
ENDBRANCH  11  15
ENDBRANCH   1   9
BRANCH   4  25
HETATM   25  S   UNL     1      40.158 -13.450  -1.098  1.00  0.00     0.285 S 
HETATM   26  O   UNL     1      38.938 -14.085  -1.560  1.00  0.00    -0.198 OA
HETATM   27  O   UNL     1      40.175 -12.639   0.104  1.00  0.00    -0.198 OA
BRANCH  25  28
HETATM   28  C   UNL     1      40.673 -12.355  -2.410  1.00  0.00     0.081 A 
HETATM   29  C   UNL     1      41.863 -12.615  -3.099  1.00  0.00     0.025 A 
HETATM   30  C   UNL     1      42.254 -11.771  -4.137  1.00  0.00     0.002 A 
HETATM   31  C   UNL     1      41.461 -10.673  -4.480  1.00  0.00     0.000 A 
HETATM   32  C   UNL     1      40.276 -10.416  -3.785  1.00  0.00     0.002 A 
HETATM   33  C   UNL     1      39.878 -11.257  -2.745  1.00  0.00     0.025 A 
ENDBRANCH  25  28
ENDBRANCH   4  25
TORSDOF 7
ENDMDL
MODEL 8
REMARK VINA RESULT:      -8.1      3.327      3.800
REMARK  7 active torsions:
REMARK  status: ('A' for Active; 'I' for Inactive)
REMARK    1  A    between atoms: C_5  and  O_6 
REMARK    2  A    between atoms: O_6  and  C_7 
REMARK    3  A    between atoms: C_7  and  C_8 
REMARK    4  A    between atoms: C_8  and  N_9 
REMARK       I    between atoms: N_9  and  C_10 
REMARK       I    between atoms: C_10  and  N_11 
REMARK    5  A    between atoms: N_11  and  C_12 
REMARK    6  A    between atoms: N_15  and  S_16 
REMARK    7  A    between atoms: S_16  and  C_17 
ROOT
HETATM    1  C   UNL     1      40.877 -13.915   2.472  1.00  0.00     0.103 A 
HETATM    2  S   UNL     1      41.336 -12.361   1.802  1.00  0.00    -0.032 SA
HETATM    3  C   UNL     1      41.625 -13.074   0.198  1.00  0.00     0.185 A 
HETATM    4  N   UNL     1      41.981 -12.481  -0.889  1.00  0.00    -0.134 NA
HETATM    5  N   UNL     1      41.378 -14.422   0.311  1.00  0.00    -0.336 N 
HETATM    6  C   UNL     1      40.929 -14.890   1.543  1.00  0.00     0.041 A 
HETATM    7  C   UNL     1      40.450 -16.302   1.638  1.00  0.00     0.071 C 
HETATM    8  H   UNL     1      41.362 -15.014  -0.508  1.00  0.00     0.168 HD
ENDROOT
BRANCH   1   9
HETATM    9  N   UNL     1      40.488 -13.879   3.771  1.00  0.00    -0.301 N 
HETATM   10  C   UNL     1      40.727 -14.625   4.878  1.00  0.00     0.321 C 
HETATM   11  N   UNL     1      41.767 -15.510   4.838  1.00  0.00    -0.341 N 
HETATM   12  O   UNL     1      40.067 -14.407   5.891  1.00  0.00    -0.247 OA
HETATM   13  H   UNL     1      42.447 -15.308   4.120  1.00  0.00     0.164 HD
HETATM   14  H   UNL     1      39.940 -13.060   4.014  1.00  0.00     0.171 HD
BRANCH  11  15
HETATM   15  C   UNL     1      42.319 -16.000   6.093  1.00  0.00     0.151 C 
BRANCH  15  16
HETATM   16  C   UNL     1      42.828 -17.440   6.048  1.00  0.00     0.195 C 
BRANCH  16  17
HETATM   17  O   UNL     1      43.871 -17.466   5.072  1.00  0.00    -0.350 OA
BRANCH  17  18
HETATM   18  C   UNL     1      43.881 -18.466   4.144  1.00  0.00     0.068 A 
HETATM   19  C   UNL     1      44.648 -19.576   4.506  1.00  0.00     0.037 A 
HETATM   20  C   UNL     1      44.744 -20.686   3.664  1.00  0.00     0.009 A 
HETATM   21  C   UNL     1      44.072 -20.697   2.440  1.00  0.00    -0.062 A 
HETATM   22  C   UNL     1      44.141 -21.896   1.540  1.00  0.00     0.048 C 
HETATM   23  C   UNL     1      43.299 -19.586   2.082  1.00  0.00     0.009 A 
HETATM   24  C   UNL     1      43.207 -18.471   2.926  1.00  0.00     0.037 A 
ENDBRANCH  17  18
ENDBRANCH  16  17
ENDBRANCH  15  16
ENDBRANCH  11  15
ENDBRANCH   1   9
BRANCH   4  25
HETATM   25  S   UNL     1      42.248 -10.883  -0.888  1.00  0.00     0.285 S 
HETATM   26  O   UNL     1      41.076 -10.211  -0.358  1.00  0.00    -0.198 OA
HETATM   27  O   UNL     1      43.571 -10.613  -0.361  1.00  0.00    -0.198 OA
BRANCH  25  28
HETATM   28  C   UNL     1      42.330 -10.445  -2.615  1.00  0.00     0.081 A 
HETATM   29  C   UNL     1      42.351 -11.454  -3.584  1.00  0.00     0.025 A 
HETATM   30  C   UNL     1      42.394 -11.110  -4.934  1.00  0.00     0.002 A 
HETATM   31  C   UNL     1      42.421  -9.766  -5.311  1.00  0.00     0.000 A 
HETATM   32  C   UNL     1      42.405  -8.762  -4.339  1.00  0.00     0.002 A 
HETATM   33  C   UNL     1      42.360  -9.098  -2.985  1.00  0.00     0.025 A 
ENDBRANCH  25  28
ENDBRANCH   4  25
TORSDOF 7
ENDMDL
MODEL 9
REMARK VINA RESULT:      -8.0      2.512      2.945
REMARK  7 active torsions:
REMARK  status: ('A' for Active; 'I' for Inactive)
REMARK    1  A    between atoms: C_5  and  O_6 
REMARK    2  A    between atoms: O_6  and  C_7 
REMARK    3  A    between atoms: C_7  and  C_8 
REMARK    4  A    between atoms: C_8  and  N_9 
REMARK       I    between atoms: N_9  and  C_10 
REMARK       I    between atoms: C_10  and  N_11 
REMARK    5  A    between atoms: N_11  and  C_12 
REMARK    6  A    between atoms: N_15  and  S_16 
REMARK    7  A    between atoms: S_16  and  C_17 
ROOT
HETATM    1  C   UNL     1      42.132 -13.258   5.558  1.00  0.00     0.103 A 
HETATM    2  S   UNL     1      42.407 -13.597   3.859  1.00  0.00    -0.032 SA
HETATM    3  C   UNL     1      40.784 -13.016   3.422  1.00  0.00     0.185 A 
HETATM    4  N   UNL     1      40.254 -12.929   2.250  1.00  0.00    -0.134 NA
HETATM    5  N   UNL     1      40.165 -12.644   4.592  1.00  0.00    -0.336 N 
HETATM    6  C   UNL     1      40.908 -12.735   5.766  1.00  0.00     0.041 A 
HETATM    7  C   UNL     1      40.342 -12.141   7.015  1.00  0.00     0.071 C 
HETATM    8  H   UNL     1      39.273 -12.169   4.575  1.00  0.00     0.168 HD
ENDROOT
BRANCH   1   9
HETATM    9  N   UNL     1      43.193 -13.509   6.365  1.00  0.00    -0.301 N 
HETATM   10  C   UNL     1      43.589 -14.535   7.157  1.00  0.00     0.321 C 
HETATM   11  N   UNL     1      42.961 -15.739   7.004  1.00  0.00    -0.341 N 
HETATM   12  O   UNL     1      44.552 -14.368   7.902  1.00  0.00    -0.247 OA
HETATM   13  H   UNL     1      42.489 -15.843   6.118  1.00  0.00     0.164 HD
HETATM   14  H   UNL     1      43.915 -12.798   6.327  1.00  0.00     0.171 HD
BRANCH  11  15
HETATM   15  C   UNL     1      43.617 -16.941   7.500  1.00  0.00     0.151 C 
BRANCH  15  16
HETATM   16  C   UNL     1      43.242 -18.224   6.762  1.00  0.00     0.195 C 
BRANCH  16  17
HETATM   17  O   UNL     1      44.473 -18.846   6.386  1.00  0.00    -0.350 OA
BRANCH  17  18
HETATM   18  C   UNL     1      44.479 -19.714   5.335  1.00  0.00     0.068 A 
HETATM   19  C   UNL     1      44.349 -19.102   4.085  1.00  0.00     0.037 A 
HETATM   20  C   UNL     1      44.352 -19.860   2.912  1.00  0.00     0.009 A 
HETATM   21  C   UNL     1      44.482 -21.249   2.976  1.00  0.00    -0.062 A 
HETATM   22  C   UNL     1      44.517 -22.072   1.722  1.00  0.00     0.048 C 
HETATM   23  C   UNL     1      44.617 -21.859   4.228  1.00  0.00     0.009 A 
HETATM   24  C   UNL     1      44.610 -21.098   5.405  1.00  0.00     0.037 A 
ENDBRANCH  17  18
ENDBRANCH  16  17
ENDBRANCH  15  16
ENDBRANCH  11  15
ENDBRANCH   1   9
BRANCH   4  25
HETATM   25  S   UNL     1      41.088 -13.409   0.948  1.00  0.00     0.285 S 
HETATM   26  O   UNL     1      40.246 -13.276  -0.226  1.00  0.00    -0.198 OA
HETATM   27  O   UNL     1      42.419 -12.834   0.987  1.00  0.00    -0.198 OA
BRANCH  25  28
HETATM   28  C   UNL     1      41.326 -15.160   1.191  1.00  0.00     0.081 A 
HETATM   29  C   UNL     1      42.563 -15.738   0.888  1.00  0.00     0.025 A 
HETATM   30  C   UNL     1      42.754 -17.103   1.098  1.00  0.00     0.002 A 
HETATM   31  C   UNL     1      41.712 -17.883   1.604  1.00  0.00     0.000 A 
HETATM   32  C   UNL     1      40.477 -17.301   1.902  1.00  0.00     0.002 A 
HETATM   33  C   UNL     1      40.278 -15.935   1.696  1.00  0.00     0.025 A 
ENDBRANCH  25  28
ENDBRANCH   4  25
TORSDOF 7
ENDMDL
MODEL 10
REMARK VINA RESULT:      -8.0      2.487      7.628
REMARK  7 active torsions:
REMARK  status: ('A' for Active; 'I' for Inactive)
REMARK    1  A    between atoms: C_5  and  O_6 
REMARK    2  A    between atoms: O_6  and  C_7 
REMARK    3  A    between atoms: C_7  and  C_8 
REMARK    4  A    between atoms: C_8  and  N_9 
REMARK       I    between atoms: N_9  and  C_10 
REMARK       I    between atoms: C_10  and  N_11 
REMARK    5  A    between atoms: N_11  and  C_12 
REMARK    6  A    between atoms: N_15  and  S_16 
REMARK    7  A    between atoms: S_16  and  C_17 
ROOT
HETATM    1  C   UNL     1      42.524 -13.390   3.702  1.00  0.00     0.103 A 
HETATM    2  S   UNL     1      42.696 -14.730   2.584  1.00  0.00    -0.032 SA
HETATM    3  C   UNL     1      43.147 -15.841   3.897  1.00  0.00     0.185 A 
HETATM    4  N   UNL     1      43.408 -17.101   3.825  1.00  0.00    -0.134 NA
HETATM    5  N   UNL     1      43.155 -15.104   5.058  1.00  0.00    -0.336 N 
HETATM    6  C   UNL     1      42.777 -13.767   4.970  1.00  0.00     0.041 A 
HETATM    7  C   UNL     1      42.570 -13.000   6.235  1.00  0.00     0.071 C 
HETATM    8  H   UNL     1      43.267 -15.556   5.955  1.00  0.00     0.168 HD
ENDROOT
BRANCH   1   9
HETATM    9  N   UNL     1      42.109 -12.229   3.135  1.00  0.00    -0.301 N 
HETATM   10  C   UNL     1      40.943 -11.757   2.631  1.00  0.00     0.321 C 
HETATM   11  N   UNL     1      39.799 -12.447   2.917  1.00  0.00    -0.341 N 
HETATM   12  O   UNL     1      40.951 -10.687   2.026  1.00  0.00    -0.247 OA
HETATM   13  H   UNL     1      39.877 -13.051   3.721  1.00  0.00     0.164 HD
HETATM   14  H   UNL     1      42.808 -11.494   3.144  1.00  0.00     0.171 HD
BRANCH  11  15
HETATM   15  C   UNL     1      38.517 -11.770   2.773  1.00  0.00     0.151 C 
BRANCH  15  16
HETATM   16  C   UNL     1      37.782 -12.064   1.466  1.00  0.00     0.195 C 
BRANCH  16  17
HETATM   17  O   UNL     1      37.992 -13.451   1.192  1.00  0.00    -0.350 OA
BRANCH  17  18
HETATM   18  C   UNL     1      38.573 -13.808   0.011  1.00  0.00     0.068 A 
HETATM   19  C   UNL     1      39.860 -14.335   0.142  1.00  0.00     0.037 A 
HETATM   20  C   UNL     1      40.578 -14.760  -0.978  1.00  0.00     0.009 A 
HETATM   21  C   UNL     1      40.015 -14.658  -2.251  1.00  0.00    -0.062 A 
HETATM   22  C   UNL     1      40.763 -15.138  -3.460  1.00  0.00     0.048 C 
HETATM   23  C   UNL     1      38.722 -14.135  -2.380  1.00  0.00     0.009 A 
HETATM   24  C   UNL     1      38.005 -13.706  -1.256  1.00  0.00     0.037 A 
ENDBRANCH  17  18
ENDBRANCH  16  17
ENDBRANCH  15  16
ENDBRANCH  11  15
ENDBRANCH   1   9
BRANCH   4  25
HETATM   25  S   UNL     1      43.369 -17.854   2.392  1.00  0.00     0.285 S 
HETATM   26  O   UNL     1      41.993 -17.929   1.936  1.00  0.00    -0.198 OA
HETATM   27  O   UNL     1      44.416 -17.326   1.539  1.00  0.00    -0.198 OA
BRANCH  25  28
HETATM   28  C   UNL     1      43.861 -19.530   2.756  1.00  0.00     0.081 A 
HETATM   29  C   UNL     1      44.447 -19.825   3.991  1.00  0.00     0.025 A 
HETATM   30  C   UNL     1      44.812 -21.138   4.283  1.00  0.00     0.002 A 
HETATM   31  C   UNL     1      44.595 -22.147   3.343  1.00  0.00     0.000 A 
HETATM   32  C   UNL     1      44.013 -21.847   2.108  1.00  0.00     0.002 A 
HETATM   33  C   UNL     1      43.644 -20.535   1.809  1.00  0.00     0.025 A 
ENDBRANCH  25  28
ENDBRANCH   4  25
TORSDOF 7
ENDMDL
