MODEL 1
REMARK VINA RESULT:     -10.0      0.000      0.000
REMARK  7 active torsions:
REMARK  status: ('A' for Active; 'I' for Inactive)
REMARK    1  A    between atoms: C_5  and  C_6 
REMARK    2  A    between atoms: C_10  and  C_11 
REMARK       I    between atoms: C_11  and  N_12 
REMARK    3  A    between atoms: N_12  and  N_13 
REMARK       I    between atoms: N_13  and  C_14 
REMARK       I    between atoms: C_14  and  N_15 
REMARK    4  A    between atoms: N_15  and  C_16 
REMARK    5  A    between atoms: C_16  and  C_17 
REMARK    6  A    between atoms: C_17  and  C_18 
REMARK    7  A    between atoms: C_21  and  O_22 
ROOT
HETATM    1  C   UNL     1      44.783 -12.962   7.735  1.00  0.00     0.288 C 
HETATM    2  N   UNL     1      43.597 -13.210   7.080  1.00  0.00    -0.261 N 
HETATM    3  O   UNL     1      45.872 -13.279   7.260  1.00  0.00    -0.264 OA
HETATM    4  H   UNL     1      42.683 -13.082   7.509  1.00  0.00     0.190 HD
ENDROOT
BRANCH   2   5
HETATM    5  N   UNL     1      43.619 -13.951   5.891  1.00  0.00    -0.249 N 
HETATM    6  C   UNL     1      43.230 -15.270   5.958  1.00  0.00     0.335 C 
HETATM    7  N   UNL     1      43.179 -15.853   4.716  1.00  0.00    -0.337 N 
HETATM    8  O   UNL     1      42.985 -15.840   7.015  1.00  0.00    -0.246 OA
HETATM    9  H   UNL     1      43.801 -15.422   4.045  1.00  0.00     0.164 HD
HETATM   10  H   UNL     1      43.498 -13.421   5.035  1.00  0.00     0.192 HD
BRANCH   7  11
HETATM   11  C   UNL     1      42.981 -17.296   4.571  1.00  0.00     0.086 C 
HETATM   12  C   UNL     1      41.490 -17.648   4.577  1.00  0.00     0.032 C 
BRANCH  11  13
HETATM   13  C   UNL     1      43.625 -17.826   3.267  1.00  0.00     0.063 C 
BRANCH  13  14
HETATM   14  C   UNL     1      43.958 -19.305   3.253  1.00  0.00    -0.056 A 
HETATM   15  C   UNL     1      43.733 -20.107   2.124  1.00  0.00     0.010 A 
HETATM   16  C   UNL     1      44.033 -21.472   2.148  1.00  0.00     0.037 A 
HETATM   17  C   UNL     1      44.581 -22.034   3.296  1.00  0.00     0.065 A 
HETATM   18  C   UNL     1      44.839 -21.253   4.414  1.00  0.00     0.037 A 
HETATM   19  C   UNL     1      44.533 -19.891   4.392  1.00  0.00     0.010 A 
BRANCH  17  20
HETATM   20  O   UNL     1      44.883 -23.361   3.365  1.00  0.00    -0.361 OA
HETATM   21  H   UNL     1      44.485 -23.810   2.601  1.00  0.00     0.217 HD
ENDBRANCH  17  20
ENDBRANCH  13  14
ENDBRANCH  11  13
ENDBRANCH   7  11
ENDBRANCH   2   5
BRANCH   1  22
HETATM   22  C   UNL     1      44.660 -12.305   9.006  1.00  0.00     0.121 A 
HETATM   23  N   UNL     1      45.733 -11.728   9.624  1.00  0.00    -0.272 N 
HETATM   24  N   UNL     1      45.448 -11.149  10.797  1.00  0.00    -0.174 NA
HETATM   25  H   UNL     1      46.690 -11.702   9.283  1.00  0.00     0.189 HD
HETATM   26  C   UNL     1      44.125 -11.321  10.951  1.00  0.00     0.089 A 
HETATM   27  C   UNL     1      43.597 -12.064   9.855  1.00  0.00     0.071 A 
BRANCH  26  28
HETATM   28  C   UNL     1      43.407 -10.777  12.109  1.00  0.00    -0.006 A 
HETATM   29  C   UNL     1      43.904  -9.677  12.821  1.00  0.00     0.014 A 
HETATM   30  C   UNL     1      43.221  -9.179  13.939  1.00  0.00     0.007 A 
HETATM   31  C   UNL     1      42.032  -9.776  14.368  1.00  0.00    -0.062 A 
HETATM   32  C   UNL     1      41.288  -9.244  15.557  1.00  0.00     0.048 C 
HETATM   33  C   UNL     1      41.524 -10.864  13.653  1.00  0.00     0.007 A 
HETATM   34  C   UNL     1      42.208 -11.363  12.539  1.00  0.00     0.014 A 
ENDBRANCH  26  28
ENDBRANCH   1  22
TORSDOF 7
ENDMDL
MODEL 2
REMARK VINA RESULT:      -9.4      2.467     11.725
REMARK  7 active torsions:
REMARK  status: ('A' for Active; 'I' for Inactive)
REMARK    1  A    between atoms: C_5  and  C_6 
REMARK    2  A    between atoms: C_10  and  C_11 
REMARK       I    between atoms: C_11  and  N_12 
REMARK    3  A    between atoms: N_12  and  N_13 
REMARK       I    between atoms: N_13  and  C_14 
REMARK       I    between atoms: C_14  and  N_15 
REMARK    4  A    between atoms: N_15  and  C_16 
REMARK    5  A    between atoms: C_16  and  C_17 
REMARK    6  A    between atoms: C_17  and  C_18 
REMARK    7  A    between atoms: C_21  and  O_22 
ROOT
HETATM    1  C   UNL     1      42.737 -13.621   5.253  1.00  0.00     0.288 C 
HETATM    2  N   UNL     1      43.354 -13.657   6.484  1.00  0.00    -0.261 N 
HETATM    3  O   UNL     1      42.105 -12.640   4.865  1.00  0.00    -0.264 OA
HETATM    4  H   UNL     1      43.763 -14.501   6.881  1.00  0.00     0.190 HD
ENDROOT
BRANCH   2   5
HETATM    5  N   UNL     1      43.158 -12.592   7.373  1.00  0.00    -0.249 N 
HETATM    6  C   UNL     1      43.928 -12.567   8.513  1.00  0.00     0.335 C 
HETATM    7  N   UNL     1      43.733 -11.419   9.240  1.00  0.00    -0.337 N 
HETATM    8  O   UNL     1      44.676 -13.485   8.833  1.00  0.00    -0.246 OA
HETATM    9  H   UNL     1      42.821 -11.004   9.096  1.00  0.00     0.164 HD
HETATM   10  H   UNL     1      42.817 -11.729   6.963  1.00  0.00     0.192 HD
BRANCH   7  11
HETATM   11  C   UNL     1      44.299 -11.272  10.582  1.00  0.00     0.086 C 
HETATM   12  C   UNL     1      45.823 -11.422  10.553  1.00  0.00     0.032 C 
BRANCH  11  13
HETATM   13  C   UNL     1      43.932  -9.902  11.202  1.00  0.00     0.063 C 
BRANCH  13  14
HETATM   14  C   UNL     1      43.142  -9.957  12.495  1.00  0.00    -0.056 A 
HETATM   15  C   UNL     1      42.023 -10.788  12.649  1.00  0.00     0.010 A 
HETATM   16  C   UNL     1      41.304 -10.801  13.848  1.00  0.00     0.037 A 
HETATM   17  C   UNL     1      41.718  -9.999  14.905  1.00  0.00     0.065 A 
HETATM   18  C   UNL     1      42.839  -9.190  14.784  1.00  0.00     0.037 A 
HETATM   19  C   UNL     1      43.553  -9.172  13.585  1.00  0.00     0.010 A 
BRANCH  17  20
HETATM   20  O   UNL     1      41.042  -9.976  16.088  1.00  0.00    -0.361 OA
HETATM   21  H   UNL     1      40.524 -10.794  16.167  1.00  0.00     0.217 HD
ENDBRANCH  17  20
ENDBRANCH  13  14
ENDBRANCH  11  13
ENDBRANCH   7  11
ENDBRANCH   2   5
BRANCH   1  22
HETATM   22  C   UNL     1      42.887 -14.805   4.453  1.00  0.00     0.121 A 
HETATM   23  N   UNL     1      42.733 -14.779   3.096  1.00  0.00    -0.272 N 
HETATM   24  N   UNL     1      42.915 -15.964   2.499  1.00  0.00    -0.174 NA
HETATM   25  H   UNL     1      42.501 -13.972   2.525  1.00  0.00     0.189 HD
HETATM   26  C   UNL     1      43.234 -16.805   3.496  1.00  0.00     0.089 A 
HETATM   27  C   UNL     1      43.204 -16.117   4.744  1.00  0.00     0.071 A 
BRANCH  26  28
HETATM   28  C   UNL     1      43.562 -18.212   3.242  1.00  0.00    -0.006 A 
HETATM   29  C   UNL     1      44.249 -18.980   4.192  1.00  0.00     0.014 A 
HETATM   30  C   UNL     1      44.577 -20.317   3.931  1.00  0.00     0.007 A 
HETATM   31  C   UNL     1      44.230 -20.908   2.713  1.00  0.00    -0.062 A 
HETATM   32  C   UNL     1      44.567 -22.341   2.427  1.00  0.00     0.048 C 
HETATM   33  C   UNL     1      43.533 -20.151   1.767  1.00  0.00     0.007 A 
HETATM   34  C   UNL     1      43.208 -18.815   2.027  1.00  0.00     0.014 A 
ENDBRANCH  26  28
ENDBRANCH   1  22
TORSDOF 7
ENDMDL
MODEL 3
REMARK VINA RESULT:      -9.3      2.243      2.890
REMARK  7 active torsions:
REMARK  status: ('A' for Active; 'I' for Inactive)
REMARK    1  A    between atoms: C_5  and  C_6 
REMARK    2  A    between atoms: C_10  and  C_11 
REMARK       I    between atoms: C_11  and  N_12 
REMARK    3  A    between atoms: N_12  and  N_13 
REMARK       I    between atoms: N_13  and  C_14 
REMARK       I    between atoms: C_14  and  N_15 
REMARK    4  A    between atoms: N_15  and  C_16 
REMARK    5  A    between atoms: C_16  and  C_17 
REMARK    6  A    between atoms: C_17  and  C_18 
REMARK    7  A    between atoms: C_21  and  O_22 
ROOT
HETATM    1  C   UNL     1      44.770 -13.162   8.168  1.00  0.00     0.288 C 
HETATM    2  N   UNL     1      43.995 -14.201   7.700  1.00  0.00    -0.261 N 
HETATM    3  O   UNL     1      45.935 -13.000   7.808  1.00  0.00    -0.264 OA
HETATM    4  H   UNL     1      43.081 -14.434   8.083  1.00  0.00     0.190 HD
ENDROOT
BRANCH   2   5
HETATM    5  N   UNL     1      44.584 -15.171   6.879  1.00  0.00    -0.249 N 
HETATM    6  C   UNL     1      43.905 -16.357   6.711  1.00  0.00     0.335 C 
HETATM    7  N   UNL     1      44.520 -17.175   5.796  1.00  0.00    -0.337 N 
HETATM    8  O   UNL     1      42.887 -16.637   7.335  1.00  0.00    -0.246 OA
HETATM    9  H   UNL     1      45.516 -17.011   5.717  1.00  0.00     0.164 HD
HETATM   10  H   UNL     1      45.201 -14.824   6.153  1.00  0.00     0.192 HD
BRANCH   7  11
HETATM   11  C   UNL     1      44.082 -18.559   5.609  1.00  0.00     0.086 C 
HETATM   12  C   UNL     1      44.070 -19.314   6.942  1.00  0.00     0.032 C 
BRANCH  11  13
HETATM   13  C   UNL     1      42.672 -18.624   4.974  1.00  0.00     0.063 C 
BRANCH  13  14
HETATM   14  C   UNL     1      42.543 -18.002   3.597  1.00  0.00    -0.056 A 
HETATM   15  C   UNL     1      41.545 -17.062   3.297  1.00  0.00     0.010 A 
HETATM   16  C   UNL     1      41.440 -16.521   2.012  1.00  0.00     0.037 A 
HETATM   17  C   UNL     1      42.348 -16.901   1.031  1.00  0.00     0.065 A 
HETATM   18  C   UNL     1      43.360 -17.807   1.314  1.00  0.00     0.037 A 
HETATM   19  C   UNL     1      43.461 -18.353   2.595  1.00  0.00     0.010 A 
BRANCH  17  20
HETATM   20  O   UNL     1      42.278 -16.403  -0.236  1.00  0.00    -0.361 OA
HETATM   21  H   UNL     1      41.757 -17.015  -0.782  1.00  0.00     0.217 HD
ENDBRANCH  17  20
ENDBRANCH  13  14
ENDBRANCH  11  13
ENDBRANCH   7  11
ENDBRANCH   2   5
BRANCH   1  22
HETATM   22  C   UNL     1      44.124 -12.282   9.101  1.00  0.00     0.121 A 
HETATM   23  N   UNL     1      43.212 -11.349   8.695  1.00  0.00    -0.272 N 
HETATM   24  N   UNL     1      42.695 -10.615   9.689  1.00  0.00    -0.174 NA
HETATM   25  H   UNL     1      42.906 -11.171   7.743  1.00  0.00     0.189 HD
HETATM   26  C   UNL     1      43.263 -11.102  10.805  1.00  0.00     0.089 A 
HETATM   27  C   UNL     1      44.185 -12.136  10.473  1.00  0.00     0.071 A 
BRANCH  26  28
HETATM   28  C   UNL     1      42.915 -10.588  12.134  1.00  0.00    -0.006 A 
HETATM   29  C   UNL     1      43.723  -9.645  12.782  1.00  0.00     0.014 A 
HETATM   30  C   UNL     1      43.394  -9.177  14.061  1.00  0.00     0.007 A 
HETATM   31  C   UNL     1      42.253  -9.648  14.717  1.00  0.00    -0.062 A 
HETATM   32  C   UNL     1      41.885  -9.146  16.082  1.00  0.00     0.048 C 
HETATM   33  C   UNL     1      41.435 -10.579  14.069  1.00  0.00     0.007 A 
HETATM   34  C   UNL     1      41.766 -11.047  12.794  1.00  0.00     0.014 A 
ENDBRANCH  26  28
ENDBRANCH   1  22
TORSDOF 7
ENDMDL
MODEL 4
REMARK VINA RESULT:      -8.9      2.324      2.976
REMARK  7 active torsions:
REMARK  status: ('A' for Active; 'I' for Inactive)
REMARK    1  A    between atoms: C_5  and  C_6 
REMARK    2  A    between atoms: C_10  and  C_11 
REMARK       I    between atoms: C_11  and  N_12 
REMARK    3  A    between atoms: N_12  and  N_13 
REMARK       I    between atoms: N_13  and  C_14 
REMARK       I    between atoms: C_14  and  N_15 
REMARK    4  A    between atoms: N_15  and  C_16 
REMARK    5  A    between atoms: C_16  and  C_17 
REMARK    6  A    between atoms: C_17  and  C_18 
REMARK    7  A    between atoms: C_21  and  O_22 
ROOT
HETATM    1  C   UNL     1      41.719 -12.252   5.310  1.00  0.00     0.288 C 
HETATM    2  N   UNL     1      42.455 -13.416   5.326  1.00  0.00    -0.261 N 
HETATM    3  O   UNL     1      41.173 -11.836   4.289  1.00  0.00    -0.264 OA
HETATM    4  H   UNL     1      43.025 -13.707   6.118  1.00  0.00     0.190 HD
ENDROOT
BRANCH   2   5
HETATM    5  N   UNL     1      42.689 -14.088   4.120  1.00  0.00    -0.249 N 
HETATM    6  C   UNL     1      42.367 -15.425   4.064  1.00  0.00     0.335 C 
HETATM    7  N   UNL     1      42.528 -15.940   2.802  1.00  0.00    -0.337 N 
HETATM    8  O   UNL     1      42.003 -16.064   5.046  1.00  0.00    -0.246 OA
HETATM    9  H   UNL     1      43.216 -15.443   2.251  1.00  0.00     0.164 HD
HETATM   10  H   UNL     1      42.664 -13.517   3.281  1.00  0.00     0.192 HD
BRANCH   7  11
HETATM   11  C   UNL     1      42.432 -17.381   2.559  1.00  0.00     0.086 C 
HETATM   12  C   UNL     1      41.390 -17.686   1.478  1.00  0.00     0.032 C 
BRANCH  11  13
HETATM   13  C   UNL     1      43.796 -17.974   2.136  1.00  0.00     0.063 C 
BRANCH  13  14
HETATM   14  C   UNL     1      44.057 -19.402   2.574  1.00  0.00    -0.056 A 
HETATM   15  C   UNL     1      44.561 -19.709   3.847  1.00  0.00     0.010 A 
HETATM   16  C   UNL     1      44.809 -21.035   4.215  1.00  0.00     0.037 A 
HETATM   17  C   UNL     1      44.531 -22.059   3.317  1.00  0.00     0.065 A 
HETATM   18  C   UNL     1      44.004 -21.780   2.064  1.00  0.00     0.037 A 
HETATM   19  C   UNL     1      43.763 -20.456   1.694  1.00  0.00     0.010 A 
BRANCH  17  20
HETATM   20  O   UNL     1      44.763 -23.364   3.632  1.00  0.00    -0.361 OA
HETATM   21  H   UNL     1      43.928 -23.855   3.561  1.00  0.00     0.217 HD
ENDBRANCH  17  20
ENDBRANCH  13  14
ENDBRANCH  11  13
ENDBRANCH   7  11
ENDBRANCH   2   5
BRANCH   1  22
HETATM   22  C   UNL     1      41.630 -11.560   6.565  1.00  0.00     0.121 A 
HETATM   23  N   UNL     1      40.535 -10.813   6.898  1.00  0.00    -0.272 N 
HETATM   24  N   UNL     1      40.606 -10.242   8.107  1.00  0.00    -0.174 NA
HETATM   25  H   UNL     1      39.707 -10.659   6.330  1.00  0.00     0.189 HD
HETATM   26  C   UNL     1      41.781 -10.651   8.612  1.00  0.00     0.089 A 
HETATM   27  C   UNL     1      42.465 -11.464   7.661  1.00  0.00     0.071 A 
BRANCH  26  28
HETATM   28  C   UNL     1      42.213 -10.275   9.962  1.00  0.00    -0.006 A 
HETATM   29  C   UNL     1      43.238 -10.971  10.617  1.00  0.00     0.014 A 
HETATM   30  C   UNL     1      43.628 -10.619  11.916  1.00  0.00     0.007 A 
HETATM   31  C   UNL     1      42.996  -9.567  12.586  1.00  0.00    -0.062 A 
HETATM   32  C   UNL     1      43.413  -9.174  13.972  1.00  0.00     0.048 C 
HETATM   33  C   UNL     1      41.982  -8.860  11.932  1.00  0.00     0.007 A 
HETATM   34  C   UNL     1      41.591  -9.215  10.637  1.00  0.00     0.014 A 
ENDBRANCH  26  28
ENDBRANCH   1  22
TORSDOF 7
ENDMDL
MODEL 5
REMARK VINA RESULT:      -8.6      6.955     10.023
REMARK  7 active torsions:
REMARK  status: ('A' for Active; 'I' for Inactive)
REMARK    1  A    between atoms: C_5  and  C_6 
REMARK    2  A    between atoms: C_10  and  C_11 
REMARK       I    between atoms: C_11  and  N_12 
REMARK    3  A    between atoms: N_12  and  N_13 
REMARK       I    between atoms: N_13  and  C_14 
REMARK       I    between atoms: C_14  and  N_15 
REMARK    4  A    between atoms: N_15  and  C_16 
REMARK    5  A    between atoms: C_16  and  C_17 
REMARK    6  A    between atoms: C_17  and  C_18 
REMARK    7  A    between atoms: C_21  and  O_22 
ROOT
HETATM    1  C   UNL     1      42.076 -15.485   0.938  1.00  0.00     0.288 C 
HETATM    2  N   UNL     1      42.607 -16.573   0.280  1.00  0.00    -0.261 N 
HETATM    3  O   UNL     1      42.510 -15.098   2.021  1.00  0.00    -0.264 OA
HETATM    4  H   UNL     1      42.180 -16.993  -0.543  1.00  0.00     0.190 HD
ENDROOT
BRANCH   2   5
HETATM    5  N   UNL     1      43.595 -17.335   0.917  1.00  0.00    -0.249 N 
HETATM    6  C   UNL     1      43.194 -18.481   1.566  1.00  0.00     0.335 C 
HETATM    7  N   UNL     1      44.260 -19.201   2.044  1.00  0.00    -0.337 N 
HETATM    8  O   UNL     1      42.015 -18.788   1.708  1.00  0.00    -0.246 OA
HETATM    9  H   UNL     1      45.075 -18.631   2.233  1.00  0.00     0.164 HD
HETATM   10  H   UNL     1      44.530 -17.264   0.528  1.00  0.00     0.192 HD
BRANCH   7  11
HETATM   11  C   UNL     1      44.058 -20.346   2.932  1.00  0.00     0.086 C 
HETATM   12  C   UNL     1      44.075 -21.660   2.146  1.00  0.00     0.032 C 
BRANCH  11  13
HETATM   13  C   UNL     1      45.137 -20.399   4.040  1.00  0.00     0.063 C 
BRANCH  13  14
HETATM   14  C   UNL     1      44.742 -19.795   5.373  1.00  0.00    -0.056 A 
HETATM   15  C   UNL     1      44.047 -20.529   6.346  1.00  0.00     0.010 A 
HETATM   16  C   UNL     1      43.680 -19.937   7.558  1.00  0.00     0.037 A 
HETATM   17  C   UNL     1      44.028 -18.615   7.809  1.00  0.00     0.065 A 
HETATM   18  C   UNL     1      44.741 -17.879   6.872  1.00  0.00     0.037 A 
HETATM   19  C   UNL     1      45.101 -18.468   5.659  1.00  0.00     0.010 A 
BRANCH  17  20
HETATM   20  O   UNL     1      43.685 -17.997   8.974  1.00  0.00    -0.361 OA
HETATM   21  H   UNL     1      42.793 -18.286   9.228  1.00  0.00     0.217 HD
ENDBRANCH  17  20
ENDBRANCH  13  14
ENDBRANCH  11  13
ENDBRANCH   7  11
ENDBRANCH   2   5
BRANCH   1  22
HETATM   22  C   UNL     1      40.983 -14.834   0.271  1.00  0.00     0.121 A 
HETATM   23  N   UNL     1      40.667 -15.111  -1.029  1.00  0.00    -0.272 N 
HETATM   24  N   UNL     1      39.617 -14.426  -1.499  1.00  0.00    -0.174 NA
HETATM   25  H   UNL     1      41.142 -15.764  -1.645  1.00  0.00     0.189 HD
HETATM   26  C   UNL     1      39.197 -13.687  -0.459  1.00  0.00     0.089 A 
HETATM   27  C   UNL     1      40.046 -13.900   0.666  1.00  0.00     0.071 A 
BRANCH  26  28
HETATM   28  C   UNL     1      38.017 -12.822  -0.554  1.00  0.00    -0.006 A 
HETATM   29  C   UNL     1      37.624 -12.260  -1.777  1.00  0.00     0.014 A 
HETATM   30  C   UNL     1      36.509 -11.417  -1.854  1.00  0.00     0.007 A 
HETATM   31  C   UNL     1      35.768 -11.114  -0.708  1.00  0.00    -0.062 A 
HETATM   32  C   UNL     1      34.565 -10.221  -0.780  1.00  0.00     0.048 C 
HETATM   33  C   UNL     1      36.146 -11.682   0.513  1.00  0.00     0.007 A 
HETATM   34  C   UNL     1      37.262 -12.522   0.589  1.00  0.00     0.014 A 
ENDBRANCH  26  28
ENDBRANCH   1  22
TORSDOF 7
ENDMDL
MODEL 6
REMARK VINA RESULT:      -8.5      4.030     11.787
REMARK  7 active torsions:
REMARK  status: ('A' for Active; 'I' for Inactive)
REMARK    1  A    between atoms: C_5  and  C_6 
REMARK    2  A    between atoms: C_10  and  C_11 
REMARK       I    between atoms: C_11  and  N_12 
REMARK    3  A    between atoms: N_12  and  N_13 
REMARK       I    between atoms: N_13  and  C_14 
REMARK       I    between atoms: C_14  and  N_15 
REMARK    4  A    between atoms: N_15  and  C_16 
REMARK    5  A    between atoms: C_16  and  C_17 
REMARK    6  A    between atoms: C_17  and  C_18 
REMARK    7  A    between atoms: C_21  and  O_22 
ROOT
HETATM    1  C   UNL     1      39.515 -13.426   5.571  1.00  0.00     0.288 C 
HETATM    2  N   UNL     1      39.775 -13.522   6.920  1.00  0.00    -0.261 N 
HETATM    3  O   UNL     1      38.816 -12.531   5.100  1.00  0.00    -0.264 OA
HETATM    4  H   UNL     1      40.232 -14.325   7.347  1.00  0.00     0.190 HD
ENDROOT
BRANCH   2   5
HETATM    5  N   UNL     1      39.129 -12.643   7.800  1.00  0.00    -0.249 N 
HETATM    6  C   UNL     1      39.739 -11.435   8.051  1.00  0.00     0.335 C 
HETATM    7  N   UNL     1      38.956 -10.617   8.828  1.00  0.00    -0.337 N 
HETATM    8  O   UNL     1      40.859 -11.155   7.639  1.00  0.00    -0.246 OA
HETATM    9  H   UNL     1      38.312 -11.124   9.421  1.00  0.00     0.164 HD
HETATM   10  H   UNL     1      38.120 -12.733   7.856  1.00  0.00     0.192 HD
BRANCH   7  11
HETATM   11  C   UNL     1      39.487  -9.369   9.378  1.00  0.00     0.086 C 
HETATM   12  C   UNL     1      38.925  -8.157   8.629  1.00  0.00     0.032 C 
BRANCH  11  13
HETATM   13  C   UNL     1      39.163  -9.233  10.885  1.00  0.00     0.063 C 
BRANCH  13  14
HETATM   14  C   UNL     1      40.360  -9.212  11.816  1.00  0.00    -0.056 A 
HETATM   15  C   UNL     1      40.546 -10.184  12.810  1.00  0.00     0.010 A 
HETATM   16  C   UNL     1      41.651 -10.126  13.665  1.00  0.00     0.037 A 
HETATM   17  C   UNL     1      42.584  -9.107  13.513  1.00  0.00     0.065 A 
HETATM   18  C   UNL     1      42.434  -8.152  12.517  1.00  0.00     0.037 A 
HETATM   19  C   UNL     1      41.328  -8.206  11.668  1.00  0.00     0.010 A 
BRANCH  17  20
HETATM   20  O   UNL     1      43.671  -9.009  14.328  1.00  0.00    -0.361 OA
HETATM   21  H   UNL     1      43.599  -8.191  14.846  1.00  0.00     0.217 HD
ENDBRANCH  17  20
ENDBRANCH  13  14
ENDBRANCH  11  13
ENDBRANCH   7  11
ENDBRANCH   2   5
BRANCH   1  22
HETATM   22  C   UNL     1      40.118 -14.441   4.752  1.00  0.00     0.121 A 
HETATM   23  N   UNL     1      39.928 -14.480   3.400  1.00  0.00    -0.272 N 
HETATM   24  N   UNL     1      40.567 -15.483   2.783  1.00  0.00    -0.174 NA
HETATM   25  H   UNL     1      39.366 -13.842   2.846  1.00  0.00     0.189 HD
HETATM   26  C   UNL     1      41.236 -16.116   3.761  1.00  0.00     0.089 A 
HETATM   27  C   UNL     1      40.959 -15.504   5.019  1.00  0.00     0.071 A 
BRANCH  26  28
HETATM   28  C   UNL     1      42.110 -17.260   3.481  1.00  0.00    -0.006 A 
HETATM   29  C   UNL     1      42.183 -17.822   2.200  1.00  0.00     0.014 A 
HETATM   30  C   UNL     1      43.005 -18.929   1.949  1.00  0.00     0.007 A 
HETATM   31  C   UNL     1      43.764 -19.497   2.976  1.00  0.00    -0.062 A 
HETATM   32  C   UNL     1      44.656 -20.675   2.715  1.00  0.00     0.048 C 
HETATM   33  C   UNL     1      43.706 -18.931   4.253  1.00  0.00     0.007 A 
HETATM   34  C   UNL     1      42.883 -17.829   4.504  1.00  0.00     0.014 A 
ENDBRANCH  26  28
ENDBRANCH   1  22
TORSDOF 7
ENDMDL
MODEL 7
REMARK VINA RESULT:      -8.5      3.231     11.693
REMARK  7 active torsions:
REMARK  status: ('A' for Active; 'I' for Inactive)
REMARK    1  A    between atoms: C_5  and  C_6 
REMARK    2  A    between atoms: C_10  and  C_11 
REMARK       I    between atoms: C_11  and  N_12 
REMARK    3  A    between atoms: N_12  and  N_13 
REMARK       I    between atoms: N_13  and  C_14 
REMARK       I    between atoms: C_14  and  N_15 
REMARK    4  A    between atoms: N_15  and  C_16 
REMARK    5  A    between atoms: C_16  and  C_17 
REMARK    6  A    between atoms: C_17  and  C_18 
REMARK    7  A    between atoms: C_21  and  O_22 
ROOT
HETATM    1  C   UNL     1      40.948 -14.059   5.591  1.00  0.00     0.288 C 
HETATM    2  N   UNL     1      41.583 -13.074   6.316  1.00  0.00    -0.261 N 
HETATM    3  O   UNL     1      39.819 -13.907   5.129  1.00  0.00    -0.264 OA
HETATM    4  H   UNL     1      42.454 -13.224   6.821  1.00  0.00     0.190 HD
ENDROOT
BRANCH   2   5
HETATM    5  N   UNL     1      40.878 -11.907   6.638  1.00  0.00    -0.249 N 
HETATM    6  C   UNL     1      41.508 -10.987   7.445  1.00  0.00     0.335 C 
HETATM    7  N   UNL     1      40.769  -9.839   7.590  1.00  0.00    -0.337 N 
HETATM    8  O   UNL     1      42.591 -11.200   7.979  1.00  0.00    -0.246 OA
HETATM    9  H   UNL     1      39.774  -9.986   7.473  1.00  0.00     0.164 HD
HETATM   10  H   UNL     1      40.181 -11.609   5.964  1.00  0.00     0.192 HD
BRANCH   7  11
HETATM   11  C   UNL     1      41.155  -8.813   8.559  1.00  0.00     0.086 C 
HETATM   12  C   UNL     1      40.865  -7.410   8.016  1.00  0.00     0.032 C 
BRANCH  11  13
HETATM   13  C   UNL     1      40.418  -9.001   9.906  1.00  0.00     0.063 C 
BRANCH  13  14
HETATM   14  C   UNL     1      41.294  -8.981  11.143  1.00  0.00    -0.056 A 
HETATM   15  C   UNL     1      42.441  -9.780  11.256  1.00  0.00     0.010 A 
HETATM   16  C   UNL     1      43.218  -9.753  12.419  1.00  0.00     0.037 A 
HETATM   17  C   UNL     1      42.860  -8.908  13.463  1.00  0.00     0.065 A 
HETATM   18  C   UNL     1      41.746  -8.087  13.360  1.00  0.00     0.037 A 
HETATM   19  C   UNL     1      40.967  -8.119  12.203  1.00  0.00     0.010 A 
BRANCH  17  20
HETATM   20  O   UNL     1      43.585  -8.854  14.615  1.00  0.00    -0.361 OA
HETATM   21  H   UNL     1      44.244  -8.145  14.536  1.00  0.00     0.217 HD
ENDBRANCH  17  20
ENDBRANCH  13  14
ENDBRANCH  11  13
ENDBRANCH   7  11
ENDBRANCH   2   5
BRANCH   1  22
HETATM   22  C   UNL     1      41.697 -15.271   5.411  1.00  0.00     0.121 A 
HETATM   23  N   UNL     1      42.353 -15.872   6.448  1.00  0.00    -0.272 N 
HETATM   24  N   UNL     1      42.994 -16.999   6.114  1.00  0.00    -0.174 NA
HETATM   25  H   UNL     1      42.395 -15.549   7.410  1.00  0.00     0.189 HD
HETATM   26  C   UNL     1      42.727 -17.173   4.809  1.00  0.00     0.089 A 
HETATM   27  C   UNL     1      41.932 -16.093   4.325  1.00  0.00     0.071 A 
BRANCH  26  28
HETATM   28  C   UNL     1      43.217 -18.341   4.071  1.00  0.00    -0.006 A 
HETATM   29  C   UNL     1      42.755 -18.631   2.780  1.00  0.00     0.014 A 
HETATM   30  C   UNL     1      43.212 -19.762   2.092  1.00  0.00     0.007 A 
HETATM   31  C   UNL     1      44.135 -20.629   2.684  1.00  0.00    -0.062 A 
HETATM   32  C   UNL     1      44.639 -21.837   1.953  1.00  0.00     0.048 C 
HETATM   33  C   UNL     1      44.610 -20.337   3.967  1.00  0.00     0.007 A 
HETATM   34  C   UNL     1      44.151 -19.209   4.654  1.00  0.00     0.014 A 
ENDBRANCH  26  28
ENDBRANCH   1  22
TORSDOF 7
ENDMDL
MODEL 8
REMARK VINA RESULT:      -8.3      2.792     11.765
REMARK  7 active torsions:
REMARK  status: ('A' for Active; 'I' for Inactive)
REMARK    1  A    between atoms: C_5  and  C_6 
REMARK    2  A    between atoms: C_10  and  C_11 
REMARK       I    between atoms: C_11  and  N_12 
REMARK    3  A    between atoms: N_12  and  N_13 
REMARK       I    between atoms: N_13  and  C_14 
REMARK       I    between atoms: C_14  and  N_15 
REMARK    4  A    between atoms: N_15  and  C_16 
REMARK    5  A    between atoms: C_16  and  C_17 
REMARK    6  A    between atoms: C_17  and  C_18 
REMARK    7  A    between atoms: C_21  and  O_22 
ROOT
HETATM    1  C   UNL     1      43.823 -13.766   7.122  1.00  0.00     0.288 C 
HETATM    2  N   UNL     1      42.956 -12.696   7.144  1.00  0.00    -0.261 N 
HETATM    3  O   UNL     1      44.666 -13.945   8.000  1.00  0.00    -0.264 OA
HETATM    4  H   UNL     1      42.347 -12.453   6.365  1.00  0.00     0.190 HD
ENDROOT
BRANCH   2   5
HETATM    5  N   UNL     1      43.113 -11.715   8.131  1.00  0.00    -0.249 N 
HETATM    6  C   UNL     1      42.010 -10.958   8.456  1.00  0.00     0.335 C 
HETATM    7  N   UNL     1      42.256 -10.119   9.514  1.00  0.00    -0.337 N 
HETATM    8  O   UNL     1      40.950 -11.027   7.843  1.00  0.00    -0.246 OA
HETATM    9  H   UNL     1      43.232  -9.868   9.608  1.00  0.00     0.164 HD
HETATM   10  H   UNL     1      43.839 -11.889   8.819  1.00  0.00     0.192 HD
BRANCH   7  11
HETATM   11  C   UNL     1      41.290  -9.089   9.898  1.00  0.00     0.086 C 
HETATM   12  C   UNL     1      40.003  -9.720  10.441  1.00  0.00     0.032 C 
BRANCH  11  13
HETATM   13  C   UNL     1      41.877  -8.132  10.963  1.00  0.00     0.063 C 
BRANCH  13  14
HETATM   14  C   UNL     1      41.835  -8.634  12.393  1.00  0.00    -0.056 A 
HETATM   15  C   UNL     1      42.773  -9.552  12.888  1.00  0.00     0.010 A 
HETATM   16  C   UNL     1      42.695 -10.010  14.206  1.00  0.00     0.037 A 
HETATM   17  C   UNL     1      41.691  -9.532  15.041  1.00  0.00     0.065 A 
HETATM   18  C   UNL     1      40.770  -8.602  14.580  1.00  0.00     0.037 A 
HETATM   19  C   UNL     1      40.843  -8.150  13.262  1.00  0.00     0.010 A 
BRANCH  17  20
HETATM   20  O   UNL     1      41.575  -9.957  16.330  1.00  0.00    -0.361 OA
HETATM   21  H   UNL     1      42.242 -10.644  16.493  1.00  0.00     0.217 HD
ENDBRANCH  17  20
ENDBRANCH  13  14
ENDBRANCH  11  13
ENDBRANCH   7  11
ENDBRANCH   2   5
BRANCH   1  22
HETATM   22  C   UNL     1      43.673 -14.659   6.007  1.00  0.00     0.121 A 
HETATM   23  N   UNL     1      43.415 -14.199   4.747  1.00  0.00    -0.272 N 
HETATM   24  N   UNL     1      43.314 -15.159   3.820  1.00  0.00    -0.174 NA
HETATM   25  H   UNL     1      43.297 -13.230   4.466  1.00  0.00     0.189 HD
HETATM   26  C   UNL     1      43.546 -16.303   4.484  1.00  0.00     0.089 A 
HETATM   27  C   UNL     1      43.753 -16.031   5.868  1.00  0.00     0.071 A 
BRANCH  26  28
HETATM   28  C   UNL     1      43.573 -17.600   3.800  1.00  0.00    -0.006 A 
HETATM   29  C   UNL     1      44.233 -18.703   4.359  1.00  0.00     0.014 A 
HETATM   30  C   UNL     1      44.273 -19.931   3.687  1.00  0.00     0.007 A 
HETATM   31  C   UNL     1      43.657 -20.079   2.441  1.00  0.00    -0.062 A 
HETATM   32  C   UNL     1      43.684 -21.392   1.718  1.00  0.00     0.048 C 
HETATM   33  C   UNL     1      42.985 -18.986   1.885  1.00  0.00     0.007 A 
HETATM   34  C   UNL     1      42.949 -17.759   2.555  1.00  0.00     0.014 A 
ENDBRANCH  26  28
ENDBRANCH   1  22
TORSDOF 7
ENDMDL
MODEL 9
REMARK VINA RESULT:      -8.3      2.678      3.187
REMARK  7 active torsions:
REMARK  status: ('A' for Active; 'I' for Inactive)
REMARK    1  A    between atoms: C_5  and  C_6 
REMARK    2  A    between atoms: C_10  and  C_11 
REMARK       I    between atoms: C_11  and  N_12 
REMARK    3  A    between atoms: N_12  and  N_13 
REMARK       I    between atoms: N_13  and  C_14 
REMARK       I    between atoms: C_14  and  N_15 
REMARK    4  A    between atoms: N_15  and  C_16 
REMARK    5  A    between atoms: C_16  and  C_17 
REMARK    6  A    between atoms: C_17  and  C_18 
REMARK    7  A    between atoms: C_21  and  O_22 
ROOT
HETATM    1  C   UNL     1      41.515 -11.196   6.978  1.00  0.00     0.288 C 
HETATM    2  N   UNL     1      41.888 -12.344   6.315  1.00  0.00    -0.261 N 
HETATM    3  O   UNL     1      40.813 -10.333   6.453  1.00  0.00    -0.264 OA
HETATM    4  H   UNL     1      42.575 -13.002   6.677  1.00  0.00     0.190 HD
ENDROOT
BRANCH   2   5
HETATM    5  N   UNL     1      41.557 -12.483   4.961  1.00  0.00    -0.249 N 
HETATM    6  C   UNL     1      40.969 -13.665   4.569  1.00  0.00     0.335 C 
HETATM    7  N   UNL     1      40.583 -13.634   3.252  1.00  0.00    -0.337 N 
HETATM    8  O   UNL     1      40.837 -14.625   5.320  1.00  0.00    -0.246 OA
HETATM    9  H   UNL     1      41.130 -12.995   2.689  1.00  0.00     0.164 HD
HETATM   10  H   UNL     1      41.367 -11.622   4.459  1.00  0.00     0.192 HD
BRANCH   7  11
HETATM   11  C   UNL     1      40.118 -14.846   2.576  1.00  0.00     0.086 C 
HETATM   12  C   UNL     1      38.776 -14.604   1.879  1.00  0.00     0.032 C 
BRANCH  11  13
HETATM   13  C   UNL     1      41.150 -15.345   1.536  1.00  0.00     0.063 C 
BRANCH  13  14
HETATM   14  C   UNL     1      42.016 -16.509   1.976  1.00  0.00    -0.056 A 
HETATM   15  C   UNL     1      41.761 -17.221   3.157  1.00  0.00     0.010 A 
HETATM   16  C   UNL     1      42.591 -18.278   3.545  1.00  0.00     0.037 A 
HETATM   17  C   UNL     1      43.664 -18.640   2.739  1.00  0.00     0.065 A 
HETATM   18  C   UNL     1      43.917 -17.968   1.551  1.00  0.00     0.037 A 
HETATM   19  C   UNL     1      43.093 -16.908   1.168  1.00  0.00     0.010 A 
BRANCH  17  20
HETATM   20  O   UNL     1      44.500 -19.659   3.082  1.00  0.00    -0.361 OA
HETATM   21  H   UNL     1      44.799 -19.523   3.996  1.00  0.00     0.217 HD
ENDBRANCH  17  20
ENDBRANCH  13  14
ENDBRANCH  11  13
ENDBRANCH   7  11
ENDBRANCH   2   5
BRANCH   1  22
HETATM   22  C   UNL     1      42.000 -11.076   8.325  1.00  0.00     0.121 A 
HETATM   23  N   UNL     1      43.270 -11.445   8.667  1.00  0.00    -0.272 N 
HETATM   24  N   UNL     1      43.568 -11.261   9.960  1.00  0.00    -0.174 NA
HETATM   25  H   UNL     1      43.979 -11.831   8.050  1.00  0.00     0.189 HD
HETATM   26  C   UNL     1      42.461 -10.719  10.493  1.00  0.00     0.089 A 
HETATM   27  C   UNL     1      41.444 -10.608   9.500  1.00  0.00     0.071 A 
BRANCH  26  28
HETATM   28  C   UNL     1      42.400 -10.318  11.902  1.00  0.00    -0.006 A 
HETATM   29  C   UNL     1      43.447  -9.605  12.501  1.00  0.00     0.014 A 
HETATM   30  C   UNL     1      43.389  -9.246  13.853  1.00  0.00     0.007 A 
HETATM   31  C   UNL     1      42.285  -9.600  14.635  1.00  0.00    -0.062 A 
HETATM   32  C   UNL     1      42.208  -9.212  16.082  1.00  0.00     0.048 C 
HETATM   33  C   UNL     1      41.231 -10.300  14.040  1.00  0.00     0.007 A 
HETATM   34  C   UNL     1      41.292 -10.660  12.690  1.00  0.00     0.014 A 
ENDBRANCH  26  28
ENDBRANCH   1  22
TORSDOF 7
ENDMDL
MODEL 10
REMARK VINA RESULT:      -8.2      8.655     11.954
REMARK  7 active torsions:
REMARK  status: ('A' for Active; 'I' for Inactive)
REMARK    1  A    between atoms: C_5  and  C_6 
REMARK    2  A    between atoms: C_10  and  C_11 
REMARK       I    between atoms: C_11  and  N_12 
REMARK    3  A    between atoms: N_12  and  N_13 
REMARK       I    between atoms: N_13  and  C_14 
REMARK       I    between atoms: C_14  and  N_15 
REMARK    4  A    between atoms: N_15  and  C_16 
REMARK    5  A    between atoms: C_16  and  C_17 
REMARK    6  A    between atoms: C_17  and  C_18 
REMARK    7  A    between atoms: C_21  and  O_22 
ROOT
HETATM    1  C   UNL     1      40.618 -15.726   0.898  1.00  0.00     0.288 C 
HETATM    2  N   UNL     1      40.489 -15.397  -0.434  1.00  0.00    -0.261 N 
HETATM    3  O   UNL     1      39.911 -15.221   1.769  1.00  0.00    -0.264 OA
HETATM    4  H   UNL     1      41.148 -15.695  -1.150  1.00  0.00     0.190 HD
ENDROOT
BRANCH   2   5
HETATM    5  N   UNL     1      39.608 -14.371  -0.798  1.00  0.00    -0.249 N 
HETATM    6  C   UNL     1      39.379 -14.178  -2.141  1.00  0.00     0.335 C 
HETATM    7  N   UNL     1      38.411 -13.230  -2.366  1.00  0.00    -0.337 N 
HETATM    8  O   UNL     1      39.996 -14.776  -3.015  1.00  0.00    -0.246 OA
HETATM    9  H   UNL     1      38.332 -12.553  -1.617  1.00  0.00     0.164 HD
HETATM   10  H   UNL     1      38.897 -14.133  -0.114  1.00  0.00     0.192 HD
BRANCH   7  11
HETATM   11  C   UNL     1      38.150 -12.727  -3.715  1.00  0.00     0.086 C 
HETATM   12  C   UNL     1      36.670 -12.881  -4.080  1.00  0.00     0.032 C 
BRANCH  11  13
HETATM   13  C   UNL     1      38.558 -11.241  -3.853  1.00  0.00     0.063 C 
BRANCH  13  14
HETATM   14  C   UNL     1      39.949 -10.893  -3.362  1.00  0.00    -0.056 A 
HETATM   15  C   UNL     1      41.103 -11.389  -3.986  1.00  0.00     0.010 A 
HETATM   16  C   UNL     1      42.373 -11.065  -3.498  1.00  0.00     0.037 A 
HETATM   17  C   UNL     1      42.491 -10.224  -2.398  1.00  0.00     0.065 A 
HETATM   18  C   UNL     1      41.363  -9.698  -1.784  1.00  0.00     0.037 A 
HETATM   19  C   UNL     1      40.096 -10.027  -2.266  1.00  0.00     0.010 A 
BRANCH  17  20
HETATM   20  O   UNL     1      43.708  -9.888  -1.886  1.00  0.00    -0.361 OA
HETATM   21  H   UNL     1      44.074 -10.658  -1.421  1.00  0.00     0.217 HD
ENDBRANCH  17  20
ENDBRANCH  13  14
ENDBRANCH  11  13
ENDBRANCH   7  11
ENDBRANCH   2   5
BRANCH   1  22
HETATM   22  C   UNL     1      41.630 -16.699   1.198  1.00  0.00     0.121 A 
HETATM   23  N   UNL     1      42.808 -16.747   0.508  1.00  0.00    -0.272 N 
HETATM   24  N   UNL     1      43.648 -17.707   0.918  1.00  0.00    -0.174 NA
HETATM   25  H   UNL     1      43.090 -16.143  -0.258  1.00  0.00     0.189 HD
HETATM   26  C   UNL     1      43.016 -18.300   1.944  1.00  0.00     0.089 A 
HETATM   27  C   UNL     1      41.733 -17.709   2.136  1.00  0.00     0.071 A 
BRANCH  26  28
HETATM   28  C   UNL     1      43.638 -19.387   2.708  1.00  0.00    -0.006 A 
HETATM   29  C   UNL     1      43.836 -20.653   2.140  1.00  0.00     0.014 A 
HETATM   30  C   UNL     1      44.410 -21.691   2.885  1.00  0.00     0.007 A 
HETATM   31  C   UNL     1      44.791 -21.484   4.214  1.00  0.00    -0.062 A 
HETATM   32  C   UNL     1      45.417 -22.585   5.018  1.00  0.00     0.048 C 
HETATM   33  C   UNL     1      44.609 -20.219   4.782  1.00  0.00     0.007 A 
HETATM   34  C   UNL     1      44.033 -19.184   4.038  1.00  0.00     0.014 A 
ENDBRANCH  26  28
ENDBRANCH   1  22
TORSDOF 7
ENDMDL
