MODEL 1
REMARK VINA RESULT:      -8.4      0.000      0.000
REMARK  10 active torsions:
REMARK  status: ('A' for Active; 'I' for Inactive)
REMARK    1  A    between atoms: C_3  and  C_4 
REMARK    2  A    between atoms: C_8  and  N_9 
REMARK    3  A    between atoms: N_9  and  C_10 
REMARK    4  A    between atoms: C_10  and  N_11 
REMARK    5  A    between atoms: N_11  and  N_12 
REMARK       I    between atoms: N_12  and  C_13 
REMARK    6  A    between atoms: C_13  and  C_14 
REMARK    7  A    between atoms: C_14  and  C_15 
REMARK    8  A    between atoms: C_15  and  C_16 
REMARK    9  A    between atoms: C_18  and  O_19 
REMARK   10  A    between atoms: C_20  and  O_21 
ROOT
HETATM    1  N   UNL     1      39.982 -16.902   1.708  1.00  0.00    -0.274 N 
HETATM    2  H   UNL     1      39.233 -17.576   1.540  1.00  0.00     0.189 HD
ENDROOT
BRANCH   1   3
HETATM    3  C   UNL     1      39.684 -15.716   2.325  1.00  0.00     0.191 C 
HETATM    4  S   UNL     1      38.866 -14.449   1.592  1.00  0.00    -0.039 SA
BRANCH   3   5
HETATM    5  N   UNL     1      40.109 -15.549   3.614  1.00  0.00    -0.331 N 
HETATM    6  H   UNL     1      39.423 -15.889   4.289  1.00  0.00     0.168 HD
BRANCH   5   7
HETATM    7  C   UNL     1      41.347 -15.107   4.140  1.00  0.00     0.049 A 
HETATM    8  C   UNL     1      41.968 -15.843   5.170  1.00  0.00     0.074 A 
HETATM    9  C   UNL     1      43.213 -15.411   5.676  1.00  0.00     0.018 A 
HETATM   10  C   UNL     1      43.851 -14.289   5.154  1.00  0.00     0.001 A 
HETATM   11  C   UNL     1      43.256 -13.586   4.115  1.00  0.00     0.002 A 
HETATM   12  C   UNL     1      42.019 -13.996   3.608  1.00  0.00     0.030 A 
BRANCH   8  13
HETATM   13  C   UNL     1      41.325 -17.046   5.812  1.00  0.00     0.419 C 
HETATM   14  F   UNL     1      41.074 -18.057   4.932  1.00  0.00    -0.166 F 
HETATM   15  F   UNL     1      42.098 -17.588   6.793  1.00  0.00    -0.166 F 
HETATM   16  F   UNL     1      40.123 -16.768   6.397  1.00  0.00    -0.166 F 
ENDBRANCH   8  13
ENDBRANCH   5   7
ENDBRANCH   3   5
ENDBRANCH   1   3
BRANCH   1  17
HETATM   17  N   UNL     1      41.262 -17.464   1.779  1.00  0.00    -0.268 N 
HETATM   18  C   UNL     1      42.205 -17.062   0.856  1.00  0.00     0.236 C 
HETATM   19  O   UNL     1      41.938 -16.327  -0.091  1.00  0.00    -0.272 OA
HETATM   20  H   UNL     1      41.472 -18.049   2.584  1.00  0.00     0.190 HD
BRANCH  18  21
HETATM   21  C   UNL     1      43.591 -17.587   1.165  1.00  0.00     0.109 C 
BRANCH  21  22
HETATM   22  C   UNL     1      43.831 -17.691   2.670  1.00  0.00     0.048 C 
BRANCH  22  23
HETATM   23  C   UNL     1      44.120 -19.074   3.220  1.00  0.00    -0.055 A 
HETATM   24  C   UNL     1      44.154 -20.148   2.310  1.00  0.00     0.046 A 
HETATM   25  C   UNL     1      44.441 -21.434   2.757  1.00  0.00     0.099 A 
HETATM   26  C   UNL     1      44.696 -21.668   4.104  1.00  0.00     0.098 A 
HETATM   27  C   UNL     1      44.659 -20.630   5.019  1.00  0.00     0.040 A 
HETATM   28  C   UNL     1      44.369 -19.334   4.579  1.00  0.00     0.010 A 
BRANCH  25  29
HETATM   29  O   UNL     1      44.490 -22.502   1.905  1.00  0.00    -0.358 OA
HETATM   30  H   UNL     1      44.410 -23.314   2.436  1.00  0.00     0.218 HD
ENDBRANCH  25  29
BRANCH  26  31
HETATM   31  O   UNL     1      44.988 -22.930   4.534  1.00  0.00    -0.358 OA
HETATM   32  H   UNL     1      44.186 -23.215   5.014  1.00  0.00     0.218 HD
ENDBRANCH  26  31
ENDBRANCH  22  23
ENDBRANCH  21  22
ENDBRANCH  18  21
ENDBRANCH   1  17
TORSDOF 10
ENDMDL
MODEL 2
REMARK VINA RESULT:      -8.1      0.669      1.504
REMARK  10 active torsions:
REMARK  status: ('A' for Active; 'I' for Inactive)
REMARK    1  A    between atoms: C_3  and  C_4 
REMARK    2  A    between atoms: C_8  and  N_9 
REMARK    3  A    between atoms: N_9  and  C_10 
REMARK    4  A    between atoms: C_10  and  N_11 
REMARK    5  A    between atoms: N_11  and  N_12 
REMARK       I    between atoms: N_12  and  C_13 
REMARK    6  A    between atoms: C_13  and  C_14 
REMARK    7  A    between atoms: C_14  and  C_15 
REMARK    8  A    between atoms: C_15  and  C_16 
REMARK    9  A    between atoms: C_18  and  O_19 
REMARK   10  A    between atoms: C_20  and  O_21 
ROOT
HETATM    1  N   UNL     1      39.702 -16.298   1.725  1.00  0.00    -0.274 N 
HETATM    2  H   UNL     1      38.843 -16.799   1.490  1.00  0.00     0.189 HD
ENDROOT
BRANCH   1   3
HETATM    3  C   UNL     1      39.631 -15.206   2.547  1.00  0.00     0.191 C 
HETATM    4  S   UNL     1      39.018 -13.714   2.087  1.00  0.00    -0.039 SA
BRANCH   3   5
HETATM    5  N   UNL     1      40.119 -15.337   3.818  1.00  0.00    -0.331 N 
HETATM    6  H   UNL     1      39.475 -15.846   4.424  1.00  0.00     0.168 HD
BRANCH   5   7
HETATM    7  C   UNL     1      41.376 -14.997   4.376  1.00  0.00     0.049 A 
HETATM    8  C   UNL     1      41.957 -15.839   5.347  1.00  0.00     0.074 A 
HETATM    9  C   UNL     1      43.220 -15.507   5.883  1.00  0.00     0.018 A 
HETATM   10  C   UNL     1      43.913 -14.382   5.448  1.00  0.00     0.001 A 
HETATM   11  C   UNL     1      43.357 -13.574   4.466  1.00  0.00     0.002 A 
HETATM   12  C   UNL     1      42.103 -13.883   3.930  1.00  0.00     0.030 A 
BRANCH   8  13
HETATM   13  C   UNL     1      41.253 -17.054   5.895  1.00  0.00     0.419 C 
HETATM   14  F   UNL     1      40.069 -16.762   6.504  1.00  0.00    -0.166 F 
HETATM   15  F   UNL     1      40.960 -17.966   4.928  1.00  0.00    -0.166 F 
HETATM   16  F   UNL     1      41.986 -17.727   6.830  1.00  0.00    -0.166 F 
ENDBRANCH   8  13
ENDBRANCH   5   7
ENDBRANCH   3   5
ENDBRANCH   1   3
BRANCH   1  17
HETATM   17  N   UNL     1      40.866 -17.068   1.627  1.00  0.00    -0.268 N 
HETATM   18  C   UNL     1      41.929 -16.559   0.910  1.00  0.00     0.236 C 
HETATM   19  O   UNL     1      41.855 -15.519   0.259  1.00  0.00    -0.272 OA
HETATM   20  H   UNL     1      40.919 -17.911   2.194  1.00  0.00     0.190 HD
BRANCH  18  21
HETATM   21  C   UNL     1      43.187 -17.390   1.050  1.00  0.00     0.109 C 
BRANCH  21  22
HETATM   22  C   UNL     1      43.393 -17.859   2.490  1.00  0.00     0.048 C 
BRANCH  22  23
HETATM   23  C   UNL     1      43.770 -19.314   2.685  1.00  0.00    -0.055 A 
HETATM   24  C   UNL     1      44.290 -19.695   3.937  1.00  0.00     0.046 A 
HETATM   25  C   UNL     1      44.628 -21.023   4.180  1.00  0.00     0.099 A 
HETATM   26  C   UNL     1      44.455 -21.982   3.188  1.00  0.00     0.098 A 
HETATM   27  C   UNL     1      43.955 -21.631   1.946  1.00  0.00     0.040 A 
HETATM   28  C   UNL     1      43.615 -20.298   1.693  1.00  0.00     0.010 A 
BRANCH  25  29
HETATM   29  O   UNL     1      45.129 -21.434   5.383  1.00  0.00    -0.358 OA
HETATM   30  H   UNL     1      45.652 -22.240   5.232  1.00  0.00     0.218 HD
ENDBRANCH  25  29
BRANCH  26  31
HETATM   31  O   UNL     1      44.778 -23.286   3.436  1.00  0.00    -0.358 OA
HETATM   32  H   UNL     1      45.658 -23.399   3.028  1.00  0.00     0.218 HD
ENDBRANCH  26  31
ENDBRANCH  22  23
ENDBRANCH  21  22
ENDBRANCH  18  21
ENDBRANCH   1  17
TORSDOF 10
ENDMDL
MODEL 3
REMARK VINA RESULT:      -7.9      1.781      2.332
REMARK  10 active torsions:
REMARK  status: ('A' for Active; 'I' for Inactive)
REMARK    1  A    between atoms: C_3  and  C_4 
REMARK    2  A    between atoms: C_8  and  N_9 
REMARK    3  A    between atoms: N_9  and  C_10 
REMARK    4  A    between atoms: C_10  and  N_11 
REMARK    5  A    between atoms: N_11  and  N_12 
REMARK       I    between atoms: N_12  and  C_13 
REMARK    6  A    between atoms: C_13  and  C_14 
REMARK    7  A    between atoms: C_14  and  C_15 
REMARK    8  A    between atoms: C_15  and  C_16 
REMARK    9  A    between atoms: C_18  and  O_19 
REMARK   10  A    between atoms: C_20  and  O_21 
ROOT
HETATM    1  N   UNL     1      39.873 -16.519   2.140  1.00  0.00    -0.274 N 
HETATM    2  H   UNL     1      39.052 -17.125   2.194  1.00  0.00     0.189 HD
ENDROOT
BRANCH   1   3
HETATM    3  C   UNL     1      39.774 -15.227   2.581  1.00  0.00     0.191 C 
HETATM    4  S   UNL     1      39.354 -13.926   1.610  1.00  0.00    -0.039 SA
BRANCH   3   5
HETATM    5  N   UNL     1      40.067 -14.981   3.895  1.00  0.00    -0.331 N 
HETATM    6  H   UNL     1      39.381 -14.364   4.330  1.00  0.00     0.168 HD
BRANCH   5   7
HETATM    7  C   UNL     1      41.063 -15.519   4.746  1.00  0.00     0.049 A 
HETATM    8  C   UNL     1      42.376 -15.009   4.692  1.00  0.00     0.074 A 
HETATM    9  C   UNL     1      43.359 -15.533   5.558  1.00  0.00     0.018 A 
HETATM   10  C   UNL     1      43.047 -16.523   6.485  1.00  0.00     0.001 A 
HETATM   11  C   UNL     1      41.745 -16.999   6.564  1.00  0.00     0.002 A 
HETATM   12  C   UNL     1      40.761 -16.496   5.707  1.00  0.00     0.030 A 
BRANCH   8  13
HETATM   13  C   UNL     1      42.801 -13.964   3.691  1.00  0.00     0.419 C 
HETATM   14  F   UNL     1      42.036 -12.836   3.731  1.00  0.00    -0.166 F 
HETATM   15  F   UNL     1      44.084 -13.551   3.883  1.00  0.00    -0.166 F 
HETATM   16  F   UNL     1      42.741 -14.398   2.398  1.00  0.00    -0.166 F 
ENDBRANCH   8  13
ENDBRANCH   5   7
ENDBRANCH   3   5
ENDBRANCH   1   3
BRANCH   1  17
HETATM   17  N   UNL     1      41.096 -17.199   2.129  1.00  0.00    -0.268 N 
HETATM   18  C   UNL     1      41.865 -17.145   0.985  1.00  0.00     0.236 C 
HETATM   19  O   UNL     1      41.470 -16.628  -0.057  1.00  0.00    -0.272 OA
HETATM   20  H   UNL     1      41.417 -17.598   3.009  1.00  0.00     0.190 HD
BRANCH  18  21
HETATM   21  C   UNL     1      43.242 -17.746   1.173  1.00  0.00     0.109 C 
BRANCH  21  22
HETATM   22  C   UNL     1      43.633 -17.806   2.648  1.00  0.00     0.048 C 
BRANCH  22  23
HETATM   23  C   UNL     1      44.011 -19.167   3.198  1.00  0.00    -0.055 A 
HETATM   24  C   UNL     1      44.029 -20.255   2.303  1.00  0.00     0.046 A 
HETATM   25  C   UNL     1      44.395 -21.521   2.749  1.00  0.00     0.099 A 
HETATM   26  C   UNL     1      44.744 -21.722   4.079  1.00  0.00     0.098 A 
HETATM   27  C   UNL     1      44.726 -20.672   4.980  1.00  0.00     0.040 A 
HETATM   28  C   UNL     1      44.357 -19.395   4.542  1.00  0.00     0.010 A 
BRANCH  25  29
HETATM   29  O   UNL     1      44.430 -22.600   1.911  1.00  0.00    -0.358 OA
HETATM   30  H   UNL     1      43.745 -22.476   1.231  1.00  0.00     0.218 HD
ENDBRANCH  25  29
BRANCH  26  31
HETATM   31  O   UNL     1      45.113 -22.965   4.508  1.00  0.00    -0.358 OA
HETATM   32  H   UNL     1      45.532 -22.808   5.377  1.00  0.00     0.218 HD
ENDBRANCH  26  31
ENDBRANCH  22  23
ENDBRANCH  21  22
ENDBRANCH  18  21
ENDBRANCH   1  17
TORSDOF 10
ENDMDL
MODEL 4
REMARK VINA RESULT:      -7.8      2.499      3.724
REMARK  10 active torsions:
REMARK  status: ('A' for Active; 'I' for Inactive)
REMARK    1  A    between atoms: C_3  and  C_4 
REMARK    2  A    between atoms: C_8  and  N_9 
REMARK    3  A    between atoms: N_9  and  C_10 
REMARK    4  A    between atoms: C_10  and  N_11 
REMARK    5  A    between atoms: N_11  and  N_12 
REMARK       I    between atoms: N_12  and  C_13 
REMARK    6  A    between atoms: C_13  and  C_14 
REMARK    7  A    between atoms: C_14  and  C_15 
REMARK    8  A    between atoms: C_15  and  C_16 
REMARK    9  A    between atoms: C_18  and  O_19 
REMARK   10  A    between atoms: C_20  and  O_21 
ROOT
HETATM    1  N   UNL     1      39.952 -15.567   5.809  1.00  0.00    -0.274 N 
HETATM    2  H   UNL     1      39.111 -15.965   6.230  1.00  0.00     0.189 HD
ENDROOT
BRANCH   1   3
HETATM    3  C   UNL     1      39.900 -14.301   5.290  1.00  0.00     0.191 C 
HETATM    4  S   UNL     1      39.499 -12.932   6.172  1.00  0.00    -0.039 SA
BRANCH   3   5
HETATM    5  N   UNL     1      40.166 -14.152   3.956  1.00  0.00    -0.331 N 
HETATM    6  H   UNL     1      39.877 -13.237   3.609  1.00  0.00     0.168 HD
BRANCH   5   7
HETATM    7  C   UNL     1      40.860 -14.983   3.043  1.00  0.00     0.049 A 
HETATM    8  C   UNL     1      42.266 -14.910   2.964  1.00  0.00     0.074 A 
HETATM    9  C   UNL     1      42.954 -15.756   2.068  1.00  0.00     0.018 A 
HETATM   10  C   UNL     1      42.270 -16.682   1.285  1.00  0.00     0.001 A 
HETATM   11  C   UNL     1      40.890 -16.779   1.390  1.00  0.00     0.002 A 
HETATM   12  C   UNL     1      40.192 -15.943   2.267  1.00  0.00     0.030 A 
BRANCH   8  13
HETATM   13  C   UNL     1      43.073 -13.909   3.750  1.00  0.00     0.419 C 
HETATM   14  F   UNL     1      43.079 -14.155   5.091  1.00  0.00    -0.166 F 
HETATM   15  F   UNL     1      44.380 -13.882   3.371  1.00  0.00    -0.166 F 
HETATM   16  F   UNL     1      42.621 -12.627   3.619  1.00  0.00    -0.166 F 
ENDBRANCH   8  13
ENDBRANCH   5   7
ENDBRANCH   3   5
ENDBRANCH   1   3
BRANCH   1  17
HETATM   17  N   UNL     1      41.150 -16.121   6.273  1.00  0.00    -0.268 N 
HETATM   18  C   UNL     1      41.577 -17.312   5.724  1.00  0.00     0.236 C 
HETATM   19  O   UNL     1      40.895 -17.963   4.936  1.00  0.00    -0.272 OA
HETATM   20  H   UNL     1      41.713 -15.555   6.905  1.00  0.00     0.190 HD
BRANCH  18  21
HETATM   21  C   UNL     1      42.974 -17.695   6.163  1.00  0.00     0.109 C 
BRANCH  21  22
HETATM   22  C   UNL     1      43.943 -17.740   4.982  1.00  0.00     0.048 C 
BRANCH  22  23
HETATM   23  C   UNL     1      44.153 -19.089   4.324  1.00  0.00    -0.055 A 
HETATM   24  C   UNL     1      44.651 -20.138   5.122  1.00  0.00     0.046 A 
HETATM   25  C   UNL     1      44.838 -21.404   4.575  1.00  0.00     0.099 A 
HETATM   26  C   UNL     1      44.536 -21.642   3.239  1.00  0.00     0.098 A 
HETATM   27  C   UNL     1      44.055 -20.626   2.432  1.00  0.00     0.040 A 
HETATM   28  C   UNL     1      43.866 -19.349   2.973  1.00  0.00     0.010 A 
BRANCH  25  29
HETATM   29  O   UNL     1      45.313 -22.449   5.317  1.00  0.00    -0.358 OA
HETATM   30  H   UNL     1      45.654 -22.092   6.156  1.00  0.00     0.218 HD
ENDBRANCH  25  29
BRANCH  26  31
HETATM   31  O   UNL     1      44.711 -22.889   2.712  1.00  0.00    -0.358 OA
HETATM   32  H   UNL     1      45.667 -23.064   2.814  1.00  0.00     0.218 HD
ENDBRANCH  26  31
ENDBRANCH  22  23
ENDBRANCH  21  22
ENDBRANCH  18  21
ENDBRANCH   1  17
TORSDOF 10
ENDMDL
MODEL 5
REMARK VINA RESULT:      -7.7      3.696      7.049
REMARK  10 active torsions:
REMARK  status: ('A' for Active; 'I' for Inactive)
REMARK    1  A    between atoms: C_3  and  C_4 
REMARK    2  A    between atoms: C_8  and  N_9 
REMARK    3  A    between atoms: N_9  and  C_10 
REMARK    4  A    between atoms: C_10  and  N_11 
REMARK    5  A    between atoms: N_11  and  N_12 
REMARK       I    between atoms: N_12  and  C_13 
REMARK    6  A    between atoms: C_13  and  C_14 
REMARK    7  A    between atoms: C_14  and  C_15 
REMARK    8  A    between atoms: C_15  and  C_16 
REMARK    9  A    between atoms: C_18  and  O_19 
REMARK   10  A    between atoms: C_20  and  O_21 
ROOT
HETATM    1  N   UNL     1      39.996 -16.565   2.689  1.00  0.00    -0.274 N 
HETATM    2  H   UNL     1      39.485 -17.144   3.357  1.00  0.00     0.189 HD
ENDROOT
BRANCH   1   3
HETATM    3  C   UNL     1      41.313 -16.846   2.436  1.00  0.00     0.191 C 
HETATM    4  S   UNL     1      42.153 -16.304   1.090  1.00  0.00    -0.039 SA
BRANCH   3   5
HETATM    5  N   UNL     1      41.973 -17.645   3.329  1.00  0.00    -0.331 N 
HETATM    6  H   UNL     1      41.675 -17.472   4.289  1.00  0.00     0.168 HD
BRANCH   5   7
HETATM    7  C   UNL     1      42.880 -18.715   3.132  1.00  0.00     0.049 A 
HETATM    8  C   UNL     1      43.840 -19.005   4.123  1.00  0.00     0.074 A 
HETATM    9  C   UNL     1      44.728 -20.086   3.932  1.00  0.00     0.018 A 
HETATM   10  C   UNL     1      44.650 -20.887   2.797  1.00  0.00     0.001 A 
HETATM   11  C   UNL     1      43.681 -20.624   1.839  1.00  0.00     0.002 A 
HETATM   12  C   UNL     1      42.799 -19.553   2.009  1.00  0.00     0.030 A 
BRANCH   8  13
HETATM   13  C   UNL     1      44.011 -18.161   5.361  1.00  0.00     0.419 C 
HETATM   14  F   UNL     1      43.034 -18.363   6.290  1.00  0.00    -0.166 F 
HETATM   15  F   UNL     1      45.188 -18.406   5.999  1.00  0.00    -0.166 F 
HETATM   16  F   UNL     1      43.998 -16.819   5.107  1.00  0.00    -0.166 F 
ENDBRANCH   8  13
ENDBRANCH   5   7
ENDBRANCH   3   5
ENDBRANCH   1   3
BRANCH   1  17
HETATM   17  N   UNL     1      39.190 -15.921   1.745  1.00  0.00    -0.268 N 
HETATM   18  C   UNL     1      38.991 -14.561   1.873  1.00  0.00     0.236 C 
HETATM   19  O   UNL     1      39.391 -13.919   2.840  1.00  0.00    -0.272 OA
HETATM   20  H   UNL     1      38.890 -16.463   0.938  1.00  0.00     0.190 HD
BRANCH  18  21
HETATM   21  C   UNL     1      38.274 -13.957   0.684  1.00  0.00     0.109 C 
BRANCH  21  22
HETATM   22  C   UNL     1      39.250 -13.566  -0.424  1.00  0.00     0.048 C 
BRANCH  22  23
HETATM   23  C   UNL     1      39.207 -14.392  -1.694  1.00  0.00    -0.055 A 
HETATM   24  C   UNL     1      38.027 -14.353  -2.462  1.00  0.00     0.046 A 
HETATM   25  C   UNL     1      37.943 -15.072  -3.651  1.00  0.00     0.099 A 
HETATM   26  C   UNL     1      39.021 -15.833  -4.088  1.00  0.00     0.098 A 
HETATM   27  C   UNL     1      40.188 -15.895  -3.345  1.00  0.00     0.040 A 
HETATM   28  C   UNL     1      40.281 -15.178  -2.148  1.00  0.00     0.010 A 
BRANCH  25  29
HETATM   29  O   UNL     1      36.819 -15.054  -4.428  1.00  0.00    -0.358 OA
HETATM   30  H   UNL     1      36.609 -14.127  -4.634  1.00  0.00     0.218 HD
ENDBRANCH  25  29
BRANCH  26  31
HETATM   31  O   UNL     1      38.936 -16.527  -5.261  1.00  0.00    -0.358 OA
HETATM   32  H   UNL     1      39.384 -15.955  -5.914  1.00  0.00     0.218 HD
ENDBRANCH  26  31
ENDBRANCH  22  23
ENDBRANCH  21  22
ENDBRANCH  18  21
ENDBRANCH   1  17
TORSDOF 10
ENDMDL
MODEL 6
REMARK VINA RESULT:      -7.6      4.067      7.121
REMARK  10 active torsions:
REMARK  status: ('A' for Active; 'I' for Inactive)
REMARK    1  A    between atoms: C_3  and  C_4 
REMARK    2  A    between atoms: C_8  and  N_9 
REMARK    3  A    between atoms: N_9  and  C_10 
REMARK    4  A    between atoms: C_10  and  N_11 
REMARK    5  A    between atoms: N_11  and  N_12 
REMARK       I    between atoms: N_12  and  C_13 
REMARK    6  A    between atoms: C_13  and  C_14 
REMARK    7  A    between atoms: C_14  and  C_15 
REMARK    8  A    between atoms: C_15  and  C_16 
REMARK    9  A    between atoms: C_18  and  O_19 
REMARK   10  A    between atoms: C_20  and  O_21 
ROOT
HETATM    1  N   UNL     1      40.056 -16.076   3.012  1.00  0.00    -0.274 N 
HETATM    2  H   UNL     1      39.620 -16.415   3.870  1.00  0.00     0.189 HD
ENDROOT
BRANCH   1   3
HETATM    3  C   UNL     1      41.330 -16.479   2.709  1.00  0.00     0.191 C 
HETATM    4  S   UNL     1      42.460 -15.526   1.918  1.00  0.00    -0.039 SA
BRANCH   3   5
HETATM    5  N   UNL     1      41.689 -17.754   3.052  1.00  0.00    -0.331 N 
HETATM    6  H   UNL     1      41.367 -18.438   2.366  1.00  0.00     0.168 HD
BRANCH   5   7
HETATM    7  C   UNL     1      42.504 -18.246   4.099  1.00  0.00     0.049 A 
HETATM    8  C   UNL     1      43.615 -19.059   3.794  1.00  0.00     0.074 A 
HETATM    9  C   UNL     1      44.438 -19.528   4.841  1.00  0.00     0.018 A 
HETATM   10  C   UNL     1      44.188 -19.177   6.164  1.00  0.00     0.001 A 
HETATM   11  C   UNL     1      43.117 -18.346   6.460  1.00  0.00     0.002 A 
HETATM   12  C   UNL     1      42.287 -17.879   5.436  1.00  0.00     0.030 A 
BRANCH   8  13
HETATM   13  C   UNL     1      43.929 -19.513   2.392  1.00  0.00     0.419 C 
HETATM   14  F   UNL     1      44.195 -18.484   1.538  1.00  0.00    -0.166 F 
HETATM   15  F   UNL     1      45.017 -20.330   2.340  1.00  0.00    -0.166 F 
HETATM   16  F   UNL     1      42.911 -20.214   1.810  1.00  0.00    -0.166 F 
ENDBRANCH   8  13
ENDBRANCH   5   7
ENDBRANCH   3   5
ENDBRANCH   1   3
BRANCH   1  17
HETATM   17  N   UNL     1      39.153 -15.691   2.015  1.00  0.00    -0.268 N 
HETATM   18  C   UNL     1      38.895 -14.346   1.848  1.00  0.00     0.236 C 
HETATM   19  O   UNL     1      39.331 -13.487   2.610  1.00  0.00    -0.272 OA
HETATM   20  H   UNL     1      38.824 -16.413   1.378  1.00  0.00     0.190 HD
BRANCH  18  21
HETATM   21  C   UNL     1      38.066 -14.054   0.616  1.00  0.00     0.109 C 
BRANCH  21  22
HETATM   22  C   UNL     1      38.927 -13.529  -0.531  1.00  0.00     0.048 C 
BRANCH  22  23
HETATM   23  C   UNL     1      38.979 -14.375  -1.787  1.00  0.00    -0.055 A 
HETATM   24  C   UNL     1      37.851 -14.367  -2.631  1.00  0.00     0.046 A 
HETATM   25  C   UNL     1      37.856 -15.105  -3.811  1.00  0.00     0.099 A 
HETATM   26  C   UNL     1      38.972 -15.855  -4.164  1.00  0.00     0.098 A 
HETATM   27  C   UNL     1      40.088 -15.887  -3.347  1.00  0.00     0.040 A 
HETATM   28  C   UNL     1      40.092 -15.150  -2.157  1.00  0.00     0.010 A 
BRANCH  25  29
HETATM   29  O   UNL     1      36.785 -15.119  -4.660  1.00  0.00    -0.358 OA
HETATM   30  H   UNL     1      37.121 -15.225  -5.567  1.00  0.00     0.218 HD
ENDBRANCH  25  29
BRANCH  26  31
HETATM   31  O   UNL     1      38.974 -16.569  -5.328  1.00  0.00    -0.358 OA
HETATM   32  H   UNL     1      39.920 -16.654  -5.559  1.00  0.00     0.218 HD
ENDBRANCH  26  31
ENDBRANCH  22  23
ENDBRANCH  21  22
ENDBRANCH  18  21
ENDBRANCH   1  17
TORSDOF 10
ENDMDL
MODEL 7
REMARK VINA RESULT:      -7.5      2.380      4.123
REMARK  10 active torsions:
REMARK  status: ('A' for Active; 'I' for Inactive)
REMARK    1  A    between atoms: C_3  and  C_4 
REMARK    2  A    between atoms: C_8  and  N_9 
REMARK    3  A    between atoms: N_9  and  C_10 
REMARK    4  A    between atoms: C_10  and  N_11 
REMARK    5  A    between atoms: N_11  and  N_12 
REMARK       I    between atoms: N_12  and  C_13 
REMARK    6  A    between atoms: C_13  and  C_14 
REMARK    7  A    between atoms: C_14  and  C_15 
REMARK    8  A    between atoms: C_15  and  C_16 
REMARK    9  A    between atoms: C_18  and  O_19 
REMARK   10  A    between atoms: C_20  and  O_21 
ROOT
HETATM    1  N   UNL     1      40.162 -15.528   5.030  1.00  0.00    -0.274 N 
HETATM    2  H   UNL     1      39.917 -15.065   5.906  1.00  0.00     0.189 HD
ENDROOT
BRANCH   1   3
HETATM    3  C   UNL     1      40.214 -14.787   3.879  1.00  0.00     0.191 C 
HETATM    4  S   UNL     1      40.820 -13.226   3.784  1.00  0.00    -0.039 SA
BRANCH   3   5
HETATM    5  N   UNL     1      39.710 -15.352   2.739  1.00  0.00    -0.331 N 
HETATM    6  H   UNL     1      38.963 -16.018   2.941  1.00  0.00     0.168 HD
BRANCH   5   7
HETATM    7  C   UNL     1      39.964 -15.085   1.372  1.00  0.00     0.049 A 
HETATM    8  C   UNL     1      40.989 -15.787   0.705  1.00  0.00     0.074 A 
HETATM    9  C   UNL     1      41.225 -15.533  -0.664  1.00  0.00     0.018 A 
HETATM   10  C   UNL     1      40.443 -14.624  -1.371  1.00  0.00     0.001 A 
HETATM   11  C   UNL     1      39.410 -13.961  -0.722  1.00  0.00     0.002 A 
HETATM   12  C   UNL     1      39.169 -14.195   0.635  1.00  0.00     0.030 A 
BRANCH   8  13
HETATM   13  C   UNL     1      41.902 -16.758   1.410  1.00  0.00     0.419 C 
HETATM   14  F   UNL     1      42.670 -16.174   2.373  1.00  0.00    -0.166 F 
HETATM   15  F   UNL     1      41.217 -17.756   2.034  1.00  0.00    -0.166 F 
HETATM   16  F   UNL     1      42.782 -17.379   0.571  1.00  0.00    -0.166 F 
ENDBRANCH   8  13
ENDBRANCH   5   7
ENDBRANCH   3   5
ENDBRANCH   1   3
BRANCH   1  17
HETATM   17  N   UNL     1      40.915 -16.698   5.183  1.00  0.00    -0.268 N 
HETATM   18  C   UNL     1      42.119 -16.619   5.852  1.00  0.00     0.236 C 
HETATM   19  O   UNL     1      42.611 -15.552   6.211  1.00  0.00    -0.272 OA
HETATM   20  H   UNL     1      40.479 -17.574   4.903  1.00  0.00     0.190 HD
BRANCH  18  21
HETATM   21  C   UNL     1      42.730 -17.977   6.124  1.00  0.00     0.109 C 
BRANCH  21  22
HETATM   22  C   UNL     1      44.082 -18.135   5.430  1.00  0.00     0.048 C 
BRANCH  22  23
HETATM   23  C   UNL     1      44.232 -19.317   4.493  1.00  0.00    -0.055 A 
HETATM   24  C   UNL     1      44.636 -20.547   5.048  1.00  0.00     0.046 A 
HETATM   25  C   UNL     1      44.764 -21.671   4.238  1.00  0.00     0.099 A 
HETATM   26  C   UNL     1      44.495 -21.588   2.876  1.00  0.00     0.098 A 
HETATM   27  C   UNL     1      44.106 -20.389   2.305  1.00  0.00     0.040 A 
HETATM   28  C   UNL     1      43.977 -19.253   3.112  1.00  0.00     0.010 A 
BRANCH  25  29
HETATM   29  O   UNL     1      45.146 -22.884   4.739  1.00  0.00    -0.358 OA
HETATM   30  H   UNL     1      46.054 -23.062   4.436  1.00  0.00     0.218 HD
ENDBRANCH  25  29
BRANCH  26  31
HETATM   31  O   UNL     1      44.611 -22.698   2.088  1.00  0.00    -0.358 OA
HETATM   32  H   UNL     1      44.942 -22.355   1.235  1.00  0.00     0.218 HD
ENDBRANCH  26  31
ENDBRANCH  22  23
ENDBRANCH  21  22
ENDBRANCH  18  21
ENDBRANCH   1  17
TORSDOF 10
ENDMDL
MODEL 8
REMARK VINA RESULT:      -7.3      3.674      6.806
REMARK  10 active torsions:
REMARK  status: ('A' for Active; 'I' for Inactive)
REMARK    1  A    between atoms: C_3  and  C_4 
REMARK    2  A    between atoms: C_8  and  N_9 
REMARK    3  A    between atoms: N_9  and  C_10 
REMARK    4  A    between atoms: C_10  and  N_11 
REMARK    5  A    between atoms: N_11  and  N_12 
REMARK       I    between atoms: N_12  and  C_13 
REMARK    6  A    between atoms: C_13  and  C_14 
REMARK    7  A    between atoms: C_14  and  C_15 
REMARK    8  A    between atoms: C_15  and  C_16 
REMARK    9  A    between atoms: C_18  and  O_19 
REMARK   10  A    between atoms: C_20  and  O_21 
ROOT
HETATM    1  N   UNL     1      44.557 -17.317   6.426  1.00  0.00    -0.274 N 
HETATM    2  H   UNL     1      44.958 -17.112   7.342  1.00  0.00     0.189 HD
ENDROOT
BRANCH   1   3
HETATM    3  C   UNL     1      44.413 -18.623   6.041  1.00  0.00     0.191 C 
HETATM    4  S   UNL     1      43.660 -19.804   6.964  1.00  0.00    -0.039 SA
BRANCH   3   5
HETATM    5  N   UNL     1      44.945 -18.990   4.835  1.00  0.00    -0.331 N 
HETATM    6  H   UNL     1      45.820 -18.502   4.639  1.00  0.00     0.168 HD
BRANCH   5   7
HETATM    7  C   UNL     1      44.557 -19.986   3.907  1.00  0.00     0.049 A 
HETATM    8  C   UNL     1      43.813 -19.623   2.766  1.00  0.00     0.074 A 
HETATM    9  C   UNL     1      43.447 -20.616   1.832  1.00  0.00     0.018 A 
HETATM   10  C   UNL     1      43.835 -21.941   2.004  1.00  0.00     0.001 A 
HETATM   11  C   UNL     1      44.599 -22.293   3.108  1.00  0.00     0.002 A 
HETATM   12  C   UNL     1      44.963 -21.322   4.047  1.00  0.00     0.030 A 
BRANCH   8  13
HETATM   13  C   UNL     1      43.324 -18.216   2.529  1.00  0.00     0.419 C 
HETATM   14  F   UNL     1      44.309 -17.279   2.628  1.00  0.00    -0.166 F 
HETATM   15  F   UNL     1      42.781 -18.057   1.290  1.00  0.00    -0.166 F 
HETATM   16  F   UNL     1      42.359 -17.823   3.411  1.00  0.00    -0.166 F 
ENDBRANCH   8  13
ENDBRANCH   5   7
ENDBRANCH   3   5
ENDBRANCH   1   3
BRANCH   1  17
HETATM   17  N   UNL     1      43.736 -16.306   5.913  1.00  0.00    -0.268 N 
HETATM   18  C   UNL     1      44.078 -14.994   6.165  1.00  0.00     0.236 C 
HETATM   19  O   UNL     1      44.998 -14.679   6.915  1.00  0.00    -0.272 OA
HETATM   20  H   UNL     1      42.995 -16.585   5.273  1.00  0.00     0.190 HD
BRANCH  18  21
HETATM   21  C   UNL     1      43.231 -14.006   5.391  1.00  0.00     0.109 C 
BRANCH  21  22
HETATM   22  C   UNL     1      43.254 -14.298   3.892  1.00  0.00     0.048 C 
BRANCH  22  23
HETATM   23  C   UNL     1      41.911 -14.439   3.204  1.00  0.00    -0.055 A 
HETATM   24  C   UNL     1      41.898 -14.934   1.885  1.00  0.00     0.046 A 
HETATM   25  C   UNL     1      40.691 -15.109   1.216  1.00  0.00     0.099 A 
HETATM   26  C   UNL     1      39.490 -14.796   1.843  1.00  0.00     0.098 A 
HETATM   27  C   UNL     1      39.477 -14.299   3.134  1.00  0.00     0.040 A 
HETATM   28  C   UNL     1      40.686 -14.117   3.814  1.00  0.00     0.010 A 
BRANCH  25  29
HETATM   29  O   UNL     1      40.636 -15.593  -0.061  1.00  0.00    -0.358 OA
HETATM   30  H   UNL     1      41.237 -15.061  -0.611  1.00  0.00     0.218 HD
ENDBRANCH  25  29
BRANCH  26  31
HETATM   31  O   UNL     1      38.308 -14.981   1.185  1.00  0.00    -0.358 OA
HETATM   32  H   UNL     1      37.701 -15.325   1.868  1.00  0.00     0.218 HD
ENDBRANCH  26  31
ENDBRANCH  22  23
ENDBRANCH  21  22
ENDBRANCH  18  21
ENDBRANCH   1  17
TORSDOF 10
ENDMDL
MODEL 9
REMARK VINA RESULT:      -7.3      3.854      7.081
REMARK  10 active torsions:
REMARK  status: ('A' for Active; 'I' for Inactive)
REMARK    1  A    between atoms: C_3  and  C_4 
REMARK    2  A    between atoms: C_8  and  N_9 
REMARK    3  A    between atoms: N_9  and  C_10 
REMARK    4  A    between atoms: C_10  and  N_11 
REMARK    5  A    between atoms: N_11  and  N_12 
REMARK       I    between atoms: N_12  and  C_13 
REMARK    6  A    between atoms: C_13  and  C_14 
REMARK    7  A    between atoms: C_14  and  C_15 
REMARK    8  A    between atoms: C_15  and  C_16 
REMARK    9  A    between atoms: C_18  and  O_19 
REMARK   10  A    between atoms: C_20  and  O_21 
ROOT
HETATM    1  N   UNL     1      40.204 -16.394   3.112  1.00  0.00    -0.274 N 
HETATM    2  H   UNL     1      39.260 -16.638   3.413  1.00  0.00     0.189 HD
ENDROOT
BRANCH   1   3
HETATM    3  C   UNL     1      41.210 -16.354   4.041  1.00  0.00     0.191 C 
HETATM    4  S   UNL     1      41.068 -15.654   5.558  1.00  0.00    -0.039 SA
BRANCH   3   5
HETATM    5  N   UNL     1      42.416 -16.898   3.692  1.00  0.00    -0.331 N 
HETATM    6  H   UNL     1      42.887 -16.351   2.972  1.00  0.00     0.168 HD
BRANCH   5   7
HETATM    7  C   UNL     1      43.140 -17.988   4.234  1.00  0.00     0.049 A 
HETATM    8  C   UNL     1      43.639 -18.988   3.374  1.00  0.00     0.074 A 
HETATM    9  C   UNL     1      44.379 -20.061   3.916  1.00  0.00     0.018 A 
HETATM   10  C   UNL     1      44.651 -20.130   5.279  1.00  0.00     0.001 A 
HETATM   11  C   UNL     1      44.192 -19.125   6.120  1.00  0.00     0.002 A 
HETATM   12  C   UNL     1      43.450 -18.060   5.600  1.00  0.00     0.030 A 
BRANCH   8  13
HETATM   13  C   UNL     1      43.355 -19.003   1.894  1.00  0.00     0.419 C 
HETATM   14  F   UNL     1      43.846 -20.106   1.261  1.00  0.00    -0.166 F 
HETATM   15  F   UNL     1      42.021 -18.980   1.620  1.00  0.00    -0.166 F 
HETATM   16  F   UNL     1      43.888 -17.936   1.230  1.00  0.00    -0.166 F 
ENDBRANCH   8  13
ENDBRANCH   5   7
ENDBRANCH   3   5
ENDBRANCH   1   3
BRANCH   1  17
HETATM   17  N   UNL     1      40.465 -16.646   1.760  1.00  0.00    -0.268 N 
HETATM   18  C   UNL     1      40.897 -15.601   0.970  1.00  0.00     0.236 C 
HETATM   19  O   UNL     1      40.949 -14.441   1.372  1.00  0.00    -0.272 OA
HETATM   20  H   UNL     1      40.442 -17.616   1.453  1.00  0.00     0.190 HD
BRANCH  18  21
HETATM   21  C   UNL     1      41.333 -16.047  -0.409  1.00  0.00     0.109 C 
BRANCH  21  22
HETATM   22  C   UNL     1      41.264 -14.903  -1.419  1.00  0.00     0.048 C 
BRANCH  22  23
HETATM   23  C   UNL     1      40.060 -14.878  -2.339  1.00  0.00    -0.055 A 
HETATM   24  C   UNL     1      40.045 -15.774  -3.425  1.00  0.00     0.046 A 
HETATM   25  C   UNL     1      38.952 -15.812  -4.286  1.00  0.00     0.099 A 
HETATM   26  C   UNL     1      37.869 -14.965  -4.080  1.00  0.00     0.098 A 
HETATM   27  C   UNL     1      37.864 -14.068  -3.026  1.00  0.00     0.040 A 
HETATM   28  C   UNL     1      38.960 -14.021  -2.157  1.00  0.00     0.010 A 
BRANCH  25  29
HETATM   29  O   UNL     1      38.896 -16.672  -5.346  1.00  0.00    -0.358 OA
HETATM   30  H   UNL     1      38.148 -17.278  -5.203  1.00  0.00     0.218 HD
ENDBRANCH  25  29
BRANCH  26  31
HETATM   31  O   UNL     1      36.794 -15.015  -4.922  1.00  0.00    -0.358 OA
HETATM   32  H   UNL     1      37.179 -15.227  -5.795  1.00  0.00     0.218 HD
ENDBRANCH  26  31
ENDBRANCH  22  23
ENDBRANCH  21  22
ENDBRANCH  18  21
ENDBRANCH   1  17
TORSDOF 10
ENDMDL
MODEL 10
REMARK VINA RESULT:      -7.2      3.279      5.868
REMARK  10 active torsions:
REMARK  status: ('A' for Active; 'I' for Inactive)
REMARK    1  A    between atoms: C_3  and  C_4 
REMARK    2  A    between atoms: C_8  and  N_9 
REMARK    3  A    between atoms: N_9  and  C_10 
REMARK    4  A    between atoms: C_10  and  N_11 
REMARK    5  A    between atoms: N_11  and  N_12 
REMARK       I    between atoms: N_12  and  C_13 
REMARK    6  A    between atoms: C_13  and  C_14 
REMARK    7  A    between atoms: C_14  and  C_15 
REMARK    8  A    between atoms: C_15  and  C_16 
REMARK    9  A    between atoms: C_18  and  O_19 
REMARK   10  A    between atoms: C_20  and  O_21 
ROOT
HETATM    1  N   UNL     1      42.703 -14.865   6.575  1.00  0.00    -0.274 N 
HETATM    2  H   UNL     1      42.928 -14.751   7.564  1.00  0.00     0.189 HD
ENDROOT
BRANCH   1   3
HETATM    3  C   UNL     1      42.509 -16.126   6.078  1.00  0.00     0.191 C 
HETATM    4  S   UNL     1      41.056 -16.961   6.160  1.00  0.00    -0.039 SA
BRANCH   3   5
HETATM    5  N   UNL     1      43.581 -16.754   5.504  1.00  0.00    -0.331 N 
HETATM    6  H   UNL     1      44.377 -16.807   6.139  1.00  0.00     0.168 HD
BRANCH   5   7
HETATM    7  C   UNL     1      43.718 -17.420   4.262  1.00  0.00     0.049 A 
HETATM    8  C   UNL     1      44.010 -18.799   4.240  1.00  0.00     0.074 A 
HETATM    9  C   UNL     1      44.125 -19.463   3.000  1.00  0.00     0.018 A 
HETATM   10  C   UNL     1      43.923 -18.786   1.801  1.00  0.00     0.001 A 
HETATM   11  C   UNL     1      43.599 -17.437   1.824  1.00  0.00     0.002 A 
HETATM   12  C   UNL     1      43.490 -16.762   3.044  1.00  0.00     0.030 A 
BRANCH   8  13
HETATM   13  C   UNL     1      44.278 -19.593   5.494  1.00  0.00     0.419 C 
HETATM   14  F   UNL     1      44.746 -20.849   5.247  1.00  0.00    -0.166 F 
HETATM   15  F   UNL     1      45.207 -19.001   6.295  1.00  0.00    -0.166 F 
HETATM   16  F   UNL     1      43.170 -19.764   6.273  1.00  0.00    -0.166 F 
ENDBRANCH   8  13
ENDBRANCH   5   7
ENDBRANCH   3   5
ENDBRANCH   1   3
BRANCH   1  17
HETATM   17  N   UNL     1      42.112 -13.744   5.981  1.00  0.00    -0.268 N 
HETATM   18  C   UNL     1      42.718 -13.195   4.870  1.00  0.00     0.236 C 
HETATM   19  O   UNL     1      43.810 -13.574   4.453  1.00  0.00    -0.272 OA
HETATM   20  H   UNL     1      41.196 -13.463   6.323  1.00  0.00     0.190 HD
BRANCH  18  21
HETATM   21  C   UNL     1      41.877 -12.124   4.210  1.00  0.00     0.109 C 
BRANCH  21  22
HETATM   22  C   UNL     1      40.525 -12.671   3.753  1.00  0.00     0.048 C 
BRANCH  22  23
HETATM   23  C   UNL     1      40.552 -13.770   2.710  1.00  0.00    -0.055 A 
HETATM   24  C   UNL     1      41.280 -13.534   1.527  1.00  0.00     0.046 A 
HETATM   25  C   UNL     1      41.360 -14.519   0.548  1.00  0.00     0.099 A 
HETATM   26  C   UNL     1      40.723 -15.741   0.728  1.00  0.00     0.098 A 
HETATM   27  C   UNL     1      39.993 -15.993   1.877  1.00  0.00     0.040 A 
HETATM   28  C   UNL     1      39.905 -15.008   2.867  1.00  0.00     0.010 A 
BRANCH  25  29
HETATM   29  O   UNL     1      42.062 -14.332  -0.610  1.00  0.00    -0.358 OA
HETATM   30  H   UNL     1      41.481 -14.566  -1.355  1.00  0.00     0.218 HD
ENDBRANCH  25  29
BRANCH  26  31
HETATM   31  O   UNL     1      40.815 -16.708  -0.232  1.00  0.00    -0.358 OA
HETATM   32  H   UNL     1      41.672 -16.535  -0.668  1.00  0.00     0.218 HD
ENDBRANCH  26  31
ENDBRANCH  22  23
ENDBRANCH  21  22
ENDBRANCH  18  21
ENDBRANCH   1  17
TORSDOF 10
ENDMDL
