MODEL 1
REMARK VINA RESULT:      -9.0      0.000      0.000
REMARK  4 active torsions:
REMARK  status: ('A' for Active; 'I' for Inactive)
REMARK    1  A    between atoms: C_6  and  C_7 
REMARK       I    between atoms: C_7  and  N_8 
REMARK    2  A    between atoms: N_8  and  C_9 
REMARK    3  A    between atoms: C_16  and  C_17 
REMARK       I    between atoms: C_17  and  N_18 
REMARK    4  A    between atoms: C_25  and  O_26 
ROOT
HETATM    1  C   UNL     1      41.702 -16.098   1.505  1.00  0.00     0.259 C 
HETATM    2  N   UNL     1      42.979 -16.467   1.883  1.00  0.00    -0.323 N 
HETATM    3  O   UNL     1      40.668 -16.654   1.852  1.00  0.00    -0.267 OA
HETATM    4  H   UNL     1      43.729 -15.866   1.575  1.00  0.00     0.169 HD
ENDROOT
BRANCH   2   5
HETATM    5  C   UNL     1      43.358 -17.538   2.724  1.00  0.00     0.036 A 
HETATM    6  C   UNL     1      43.191 -17.536   4.116  1.00  0.00     0.046 A 
HETATM    7  C   UNL     1      43.629 -18.646   4.873  1.00  0.00     0.030 A 
HETATM    8  C   UNL     1      44.196 -19.727   4.212  1.00  0.00     0.063 A 
HETATM    9  C   UNL     1      43.668 -18.996   6.257  1.00  0.00     0.156 A 
HETATM   10  N   UNL     1      44.505 -20.630   5.192  1.00  0.00    -0.277 N 
HETATM   11  C   UNL     1      44.367 -19.769   2.828  1.00  0.00     0.034 A 
HETATM   12  H   UNL     1      44.931 -21.542   5.074  1.00  0.00     0.189 HD
HETATM   13  N   UNL     1      44.209 -20.223   6.436  1.00  0.00    -0.168 NA
HETATM   14  C   UNL     1      43.945 -18.648   2.101  1.00  0.00     0.032 A 
BRANCH   9  15
HETATM   15  C   UNL     1      43.218 -18.189   7.400  1.00  0.00     0.270 C 
HETATM   16  N   UNL     1      43.911 -18.422   8.557  1.00  0.00    -0.365 N 
HETATM   17  H   UNL     1      44.666 -19.098   8.543  1.00  0.00     0.159 HD
HETATM   18  H   UNL     1      43.688 -17.895   9.386  1.00  0.00     0.159 HD
HETATM   19  O   UNL     1      42.314 -17.362   7.358  1.00  0.00    -0.266 OA
ENDBRANCH   9  15
ENDBRANCH   2   5
BRANCH   1  20
HETATM   20  C   UNL     1      41.656 -14.912   0.652  1.00  0.00     0.074 A 
HETATM   21  C   UNL     1      41.967 -13.637   1.109  1.00  0.00     0.066 A 
HETATM   22  C   UNL     1      42.383 -13.108   2.428  1.00  0.00     0.078 C 
HETATM   23  O   UNL     1      41.876 -12.727   0.104  1.00  0.00    -0.314 OA
HETATM   24  C   UNL     1      41.473 -13.393  -1.006  1.00  0.00     0.087 A 
HETATM   25  C   UNL     1      41.300 -14.745  -0.732  1.00  0.00     0.019 A 
HETATM   26  C   UNL     1      41.252 -12.804  -2.247  1.00  0.00     0.041 A 
HETATM   27  C   UNL     1      40.831 -15.573  -1.781  1.00  0.00     0.052 A 
HETATM   28  C   UNL     1      40.611 -15.017  -3.051  1.00  0.00     0.069 A 
HETATM   29  C   UNL     1      40.820 -13.651  -3.270  1.00  0.00     0.039 A 
BRANCH  28  30
HETATM   30  O   UNL     1      40.179 -15.701  -4.157  1.00  0.00    -0.356 OA
HETATM   31  C   UNL     1      38.790 -15.988  -4.243  1.00  0.00     0.210 C 
ENDBRANCH  28  30
ENDBRANCH   1  20
TORSDOF 4
ENDMDL
MODEL 2
REMARK VINA RESULT:      -9.0      2.863      8.332
REMARK  4 active torsions:
REMARK  status: ('A' for Active; 'I' for Inactive)
REMARK    1  A    between atoms: C_6  and  C_7 
REMARK       I    between atoms: C_7  and  N_8 
REMARK    2  A    between atoms: N_8  and  C_9 
REMARK    3  A    between atoms: C_16  and  C_17 
REMARK       I    between atoms: C_17  and  N_18 
REMARK    4  A    between atoms: C_25  and  O_26 
ROOT
HETATM    1  C   UNL     1      42.769 -15.889   3.140  1.00  0.00     0.259 C 
HETATM    2  N   UNL     1      41.534 -16.231   2.620  1.00  0.00    -0.323 N 
HETATM    3  O   UNL     1      43.405 -14.882   2.858  1.00  0.00    -0.267 OA
HETATM    4  H   UNL     1      41.100 -17.057   3.005  1.00  0.00     0.169 HD
ENDROOT
BRANCH   2   5
HETATM    5  C   UNL     1      40.763 -15.515   1.676  1.00  0.00     0.036 A 
HETATM    6  C   UNL     1      41.136 -15.335   0.337  1.00  0.00     0.046 A 
HETATM    7  C   UNL     1      40.309 -14.578  -0.522  1.00  0.00     0.030 A 
HETATM    8  C   UNL     1      39.128 -14.047  -0.022  1.00  0.00     0.063 A 
HETATM    9  C   UNL     1      40.357 -14.153  -1.886  1.00  0.00     0.156 A 
HETATM   10  N   UNL     1      38.552 -13.387  -1.071  1.00  0.00    -0.277 N 
HETATM   11  C   UNL     1      38.719 -14.216   1.302  1.00  0.00     0.034 A 
HETATM   12  H   UNL     1      37.674 -12.883  -1.072  1.00  0.00     0.189 HD
HETATM   13  N   UNL     1      39.265 -13.423  -2.208  1.00  0.00    -0.168 NA
HETATM   14  C   UNL     1      39.566 -14.953   2.141  1.00  0.00     0.032 A 
BRANCH   9  15
HETATM   15  C   UNL     1      41.416 -14.416  -2.870  1.00  0.00     0.270 C 
HETATM   16  N   UNL     1      42.556 -13.684  -2.674  1.00  0.00    -0.365 N 
HETATM   17  H   UNL     1      42.594 -13.047  -1.887  1.00  0.00     0.159 HD
HETATM   18  H   UNL     1      43.344 -13.816  -3.287  1.00  0.00     0.159 HD
HETATM   19  O   UNL     1      41.329 -15.218  -3.793  1.00  0.00    -0.266 OA
ENDBRANCH   9  15
ENDBRANCH   2   5
BRANCH   1  20
HETATM   20  C   UNL     1      43.276 -16.835   4.131  1.00  0.00     0.074 A 
HETATM   21  C   UNL     1      43.352 -16.543   5.488  1.00  0.00     0.066 A 
HETATM   22  C   UNL     1      43.004 -15.346   6.287  1.00  0.00     0.078 C 
HETATM   23  O   UNL     1      43.827 -17.607   6.186  1.00  0.00    -0.314 OA
HETATM   24  C   UNL     1      44.099 -18.587   5.289  1.00  0.00     0.087 A 
HETATM   25  C   UNL     1      43.799 -18.168   3.998  1.00  0.00     0.019 A 
HETATM   26  C   UNL     1      44.617 -19.837   5.614  1.00  0.00     0.041 A 
HETATM   27  C   UNL     1      44.074 -19.065   2.936  1.00  0.00     0.052 A 
HETATM   28  C   UNL     1      44.584 -20.341   3.227  1.00  0.00     0.069 A 
HETATM   29  C   UNL     1      44.849 -20.711   4.549  1.00  0.00     0.039 A 
BRANCH  28  30
HETATM   30  O   UNL     1      44.876 -21.310   2.305  1.00  0.00    -0.356 OA
HETATM   31  C   UNL     1      43.786 -21.875   1.587  1.00  0.00     0.210 C 
ENDBRANCH  28  30
ENDBRANCH   1  20
TORSDOF 4
ENDMDL
MODEL 3
REMARK VINA RESULT:      -8.7      2.731      8.810
REMARK  4 active torsions:
REMARK  status: ('A' for Active; 'I' for Inactive)
REMARK    1  A    between atoms: C_6  and  C_7 
REMARK       I    between atoms: C_7  and  N_8 
REMARK    2  A    between atoms: N_8  and  C_9 
REMARK    3  A    between atoms: C_16  and  C_17 
REMARK       I    between atoms: C_17  and  N_18 
REMARK    4  A    between atoms: C_25  and  O_26 
ROOT
HETATM    1  C   UNL     1      42.816 -17.455   1.973  1.00  0.00     0.259 C 
HETATM    2  N   UNL     1      41.654 -16.782   2.300  1.00  0.00    -0.323 N 
HETATM    3  O   UNL     1      43.386 -17.407   0.890  1.00  0.00    -0.267 OA
HETATM    4  H   UNL     1      41.345 -16.863   3.257  1.00  0.00     0.169 HD
ENDROOT
BRANCH   2   5
HETATM    5  C   UNL     1      40.892 -15.921   1.479  1.00  0.00     0.036 A 
HETATM    6  C   UNL     1      41.235 -15.590   0.161  1.00  0.00     0.046 A 
HETATM    7  C   UNL     1      40.420 -14.696  -0.570  1.00  0.00     0.030 A 
HETATM    8  C   UNL     1      39.280 -14.183   0.032  1.00  0.00     0.063 A 
HETATM    9  C   UNL     1      40.449 -14.107  -1.871  1.00  0.00     0.156 A 
HETATM   10  N   UNL     1      38.706 -13.372  -0.907  1.00  0.00    -0.277 N 
HETATM   11  C   UNL     1      38.901 -14.499   1.338  1.00  0.00     0.034 A 
HETATM   12  H   UNL     1      37.852 -12.835  -0.816  1.00  0.00     0.189 HD
HETATM   13  N   UNL     1      39.384 -13.295  -2.063  1.00  0.00    -0.168 NA
HETATM   14  C   UNL     1      39.735 -15.371   2.049  1.00  0.00     0.032 A 
BRANCH   9  15
HETATM   15  C   UNL     1      41.466 -14.288  -2.915  1.00  0.00     0.270 C 
HETATM   16  N   UNL     1      42.580 -13.508  -2.754  1.00  0.00    -0.365 N 
HETATM   17  H   UNL     1      42.630 -12.894  -1.949  1.00  0.00     0.159 HD
HETATM   18  H   UNL     1      43.341 -13.584  -3.409  1.00  0.00     0.159 HD
HETATM   19  O   UNL     1      41.369 -15.066  -3.858  1.00  0.00    -0.266 OA
ENDBRANCH   9  15
ENDBRANCH   2   5
BRANCH   1  20
HETATM   20  C   UNL     1      43.377 -18.238   3.072  1.00  0.00     0.074 A 
HETATM   21  C   UNL     1      43.687 -19.588   2.960  1.00  0.00     0.066 A 
HETATM   22  C   UNL     1      43.568 -20.566   1.855  1.00  0.00     0.078 C 
HETATM   23  O   UNL     1      44.224 -20.059   4.116  1.00  0.00    -0.314 OA
HETATM   24  C   UNL     1      44.236 -19.032   5.001  1.00  0.00     0.087 A 
HETATM   25  C   UNL     1      43.708 -17.881   4.425  1.00  0.00     0.019 A 
HETATM   26  C   UNL     1      44.701 -19.118   6.310  1.00  0.00     0.041 A 
HETATM   27  C   UNL     1      43.605 -16.727   5.240  1.00  0.00     0.052 A 
HETATM   28  C   UNL     1      44.078 -16.773   6.562  1.00  0.00     0.069 A 
HETATM   29  C   UNL     1      44.616 -17.956   7.079  1.00  0.00     0.039 A 
BRANCH  28  30
HETATM   30  O   UNL     1      44.060 -15.731   7.451  1.00  0.00    -0.356 OA
HETATM   31  C   UNL     1      44.521 -14.470   6.985  1.00  0.00     0.210 C 
ENDBRANCH  28  30
ENDBRANCH   1  20
TORSDOF 4
ENDMDL
MODEL 4
REMARK VINA RESULT:      -8.5      1.760      2.783
REMARK  4 active torsions:
REMARK  status: ('A' for Active; 'I' for Inactive)
REMARK    1  A    between atoms: C_6  and  C_7 
REMARK       I    between atoms: C_7  and  N_8 
REMARK    2  A    between atoms: N_8  and  C_9 
REMARK    3  A    between atoms: C_16  and  C_17 
REMARK       I    between atoms: C_17  and  N_18 
REMARK    4  A    between atoms: C_25  and  O_26 
ROOT
HETATM    1  C   UNL     1      41.721 -15.864   1.637  1.00  0.00     0.259 C 
HETATM    2  N   UNL     1      43.018 -16.230   1.945  1.00  0.00    -0.323 N 
HETATM    3  O   UNL     1      40.709 -16.377   2.097  1.00  0.00    -0.267 OA
HETATM    4  H   UNL     1      43.750 -15.664   1.542  1.00  0.00     0.169 HD
ENDROOT
BRANCH   2   5
HETATM    5  C   UNL     1      43.445 -17.248   2.826  1.00  0.00     0.036 A 
HETATM    6  C   UNL     1      43.659 -18.578   2.440  1.00  0.00     0.046 A 
HETATM    7  C   UNL     1      44.059 -19.530   3.404  1.00  0.00     0.030 A 
HETATM    8  C   UNL     1      44.253 -19.117   4.715  1.00  0.00     0.063 A 
HETATM    9  C   UNL     1      44.333 -20.933   3.415  1.00  0.00     0.156 A 
HETATM   10  N   UNL     1      44.637 -20.238   5.397  1.00  0.00    -0.277 N 
HETATM   11  C   UNL     1      44.061 -17.799   5.134  1.00  0.00     0.034 A 
HETATM   12  H   UNL     1      44.869 -20.309   6.381  1.00  0.00     0.189 HD
HETATM   13  N   UNL     1      44.689 -21.352   4.650  1.00  0.00    -0.168 NA
HETATM   14  C   UNL     1      43.644 -16.878   4.164  1.00  0.00     0.032 A 
BRANCH   9  15
HETATM   15  C   UNL     1      44.248 -21.871   2.287  1.00  0.00     0.270 C 
HETATM   16  N   UNL     1      43.081 -21.788   1.576  1.00  0.00    -0.365 N 
HETATM   17  H   UNL     1      42.389 -21.102   1.857  1.00  0.00     0.159 HD
HETATM   18  H   UNL     1      42.945 -22.376   0.771  1.00  0.00     0.159 HD
HETATM   19  O   UNL     1      45.126 -22.666   1.972  1.00  0.00    -0.266 OA
ENDBRANCH   9  15
ENDBRANCH   2   5
BRANCH   1  20
HETATM   20  C   UNL     1      41.627 -14.737   0.711  1.00  0.00     0.074 A 
HETATM   21  C   UNL     1      41.869 -13.423   1.090  1.00  0.00     0.066 A 
HETATM   22  C   UNL     1      42.244 -12.792   2.376  1.00  0.00     0.078 C 
HETATM   23  O   UNL     1      41.746 -12.582   0.030  1.00  0.00    -0.314 OA
HETATM   24  C   UNL     1      41.389 -13.336  -1.040  1.00  0.00     0.087 A 
HETATM   25  C   UNL     1      41.279 -14.675  -0.683  1.00  0.00     0.019 A 
HETATM   26  C   UNL     1      41.152 -12.837  -2.317  1.00  0.00     0.041 A 
HETATM   27  C   UNL     1      40.863 -15.589  -1.682  1.00  0.00     0.052 A 
HETATM   28  C   UNL     1      40.630 -15.124  -2.987  1.00  0.00     0.069 A 
HETATM   29  C   UNL     1      40.775 -13.766  -3.289  1.00  0.00     0.039 A 
BRANCH  28  30
HETATM   30  O   UNL     1      40.245 -15.896  -4.050  1.00  0.00    -0.356 OA
HETATM   31  C   UNL     1      38.849 -16.050  -4.271  1.00  0.00     0.210 C 
ENDBRANCH  28  30
ENDBRANCH   1  20
TORSDOF 4
ENDMDL
MODEL 5
REMARK VINA RESULT:      -8.4      2.994      8.475
REMARK  4 active torsions:
REMARK  status: ('A' for Active; 'I' for Inactive)
REMARK    1  A    between atoms: C_6  and  C_7 
REMARK       I    between atoms: C_7  and  N_8 
REMARK    2  A    between atoms: N_8  and  C_9 
REMARK    3  A    between atoms: C_16  and  C_17 
REMARK       I    between atoms: C_17  and  N_18 
REMARK    4  A    between atoms: C_25  and  O_26 
ROOT
HETATM    1  C   UNL     1      41.401 -15.779   2.314  1.00  0.00     0.259 C 
HETATM    2  N   UNL     1      42.052 -15.062   1.328  1.00  0.00    -0.323 N 
HETATM    3  O   UNL     1      40.187 -15.847   2.460  1.00  0.00    -0.267 OA
HETATM    4  H   UNL     1      43.055 -15.162   1.291  1.00  0.00     0.169 HD
ENDROOT
BRANCH   2   5
HETATM    5  C   UNL     1      41.476 -14.272   0.307  1.00  0.00     0.036 A 
HETATM    6  C   UNL     1      40.713 -14.792  -0.748  1.00  0.00     0.046 A 
HETATM    7  C   UNL     1      40.203 -13.920  -1.736  1.00  0.00     0.030 A 
HETATM    8  C   UNL     1      40.452 -12.559  -1.624  1.00  0.00     0.063 A 
HETATM    9  C   UNL     1      39.444 -14.060  -2.938  1.00  0.00     0.156 A 
HETATM   10  N   UNL     1      39.835 -11.987  -2.702  1.00  0.00    -0.277 N 
HETATM   11  C   UNL     1      41.196 -12.005  -0.582  1.00  0.00     0.034 A 
HETATM   12  H   UNL     1      39.804 -11.003  -2.940  1.00  0.00     0.189 HD
HETATM   13  N   UNL     1      39.224 -12.858  -3.520  1.00  0.00    -0.168 NA
HETATM   14  C   UNL     1      41.709 -12.891   0.375  1.00  0.00     0.032 A 
BRANCH   9  15
HETATM   15  C   UNL     1      38.942 -15.301  -3.543  1.00  0.00     0.270 C 
HETATM   16  N   UNL     1      37.657 -15.616  -3.191  1.00  0.00    -0.365 N 
HETATM   17  H   UNL     1      37.156 -14.988  -2.573  1.00  0.00     0.159 HD
HETATM   18  H   UNL     1      37.221 -16.437  -3.577  1.00  0.00     0.159 HD
HETATM   19  O   UNL     1      39.582 -16.014  -4.308  1.00  0.00    -0.266 OA
ENDBRANCH   9  15
ENDBRANCH   2   5
BRANCH   1  20
HETATM   20  C   UNL     1      42.297 -16.524   3.194  1.00  0.00     0.074 A 
HETATM   21  C   UNL     1      42.749 -16.029   4.412  1.00  0.00     0.066 A 
HETATM   22  C   UNL     1      42.522 -14.757   5.134  1.00  0.00     0.078 C 
HETATM   23  O   UNL     1      43.539 -16.938   5.041  1.00  0.00    -0.314 OA
HETATM   24  C   UNL     1      43.638 -18.016   4.225  1.00  0.00     0.087 A 
HETATM   25  C   UNL     1      42.909 -17.819   3.058  1.00  0.00     0.019 A 
HETATM   26  C   UNL     1      44.377 -19.161   4.511  1.00  0.00     0.041 A 
HETATM   27  C   UNL     1      42.951 -18.839   2.076  1.00  0.00     0.052 A 
HETATM   28  C   UNL     1      43.674 -20.015   2.336  1.00  0.00     0.069 A 
HETATM   29  C   UNL     1      44.374 -20.163   3.538  1.00  0.00     0.039 A 
BRANCH  28  30
HETATM   30  O   UNL     1      43.784 -21.086   1.489  1.00  0.00    -0.356 OA
HETATM   31  C   UNL     1      44.497 -22.220   1.964  1.00  0.00     0.210 C 
ENDBRANCH  28  30
ENDBRANCH   1  20
TORSDOF 4
ENDMDL
MODEL 6
REMARK VINA RESULT:      -8.4      4.051      7.385
REMARK  4 active torsions:
REMARK  status: ('A' for Active; 'I' for Inactive)
REMARK    1  A    between atoms: C_6  and  C_7 
REMARK       I    between atoms: C_7  and  N_8 
REMARK    2  A    between atoms: N_8  and  C_9 
REMARK    3  A    between atoms: C_16  and  C_17 
REMARK       I    between atoms: C_17  and  N_18 
REMARK    4  A    between atoms: C_25  and  O_26 
ROOT
HETATM    1  C   UNL     1      41.761 -16.319   4.676  1.00  0.00     0.259 C 
HETATM    2  N   UNL     1      42.447 -15.127   4.545  1.00  0.00    -0.323 N 
HETATM    3  O   UNL     1      40.958 -16.584   5.561  1.00  0.00    -0.267 OA
HETATM    4  H   UNL     1      43.021 -15.029   3.721  1.00  0.00     0.169 HD
ENDROOT
BRANCH   2   5
HETATM    5  C   UNL     1      42.377 -13.990   5.382  1.00  0.00     0.036 A 
HETATM    6  C   UNL     1      43.312 -13.696   6.383  1.00  0.00     0.046 A 
HETATM    7  C   UNL     1      43.137 -12.548   7.187  1.00  0.00     0.030 A 
HETATM    8  C   UNL     1      42.048 -11.721   6.949  1.00  0.00     0.063 A 
HETATM    9  C   UNL     1      43.822 -11.948   8.289  1.00  0.00     0.156 A 
HETATM   10  N   UNL     1      42.152 -10.709   7.862  1.00  0.00    -0.277 N 
HETATM   11  C   UNL     1      41.103 -11.975   5.953  1.00  0.00     0.034 A 
HETATM   12  H   UNL     1      41.529  -9.918   7.977  1.00  0.00     0.189 HD
HETATM   13  N   UNL     1      43.203 -10.815   8.691  1.00  0.00    -0.168 NA
HETATM   14  C   UNL     1      41.286 -13.131   5.183  1.00  0.00     0.032 A 
BRANCH   9  15
HETATM   15  C   UNL     1      45.031 -12.436   8.965  1.00  0.00     0.270 C 
HETATM   16  N   UNL     1      46.154 -12.428   8.182  1.00  0.00    -0.365 N 
HETATM   17  H   UNL     1      46.079 -12.085   7.231  1.00  0.00     0.159 HD
HETATM   18  H   UNL     1      47.035 -12.722   8.570  1.00  0.00     0.159 HD
HETATM   19  O   UNL     1      45.075 -12.817  10.130  1.00  0.00    -0.266 OA
ENDBRANCH   9  15
ENDBRANCH   2   5
BRANCH   1  20
HETATM   20  C   UNL     1      42.037 -17.282   3.612  1.00  0.00     0.074 A 
HETATM   21  C   UNL     1      41.408 -17.242   2.373  1.00  0.00     0.066 A 
HETATM   22  C   UNL     1      40.384 -16.349   1.785  1.00  0.00     0.078 C 
HETATM   23  O   UNL     1      41.873 -18.228   1.562  1.00  0.00    -0.314 OA
HETATM   24  C   UNL     1      42.781 -18.939   2.276  1.00  0.00     0.087 A 
HETATM   25  C   UNL     1      42.916 -18.419   3.558  1.00  0.00     0.019 A 
HETATM   26  C   UNL     1      43.476 -20.046   1.795  1.00  0.00     0.041 A 
HETATM   27  C   UNL     1      43.795 -19.083   4.447  1.00  0.00     0.052 A 
HETATM   28  C   UNL     1      44.524 -20.195   3.994  1.00  0.00     0.069 A 
HETATM   29  C   UNL     1      44.358 -20.661   2.685  1.00  0.00     0.039 A 
BRANCH  28  30
HETATM   30  O   UNL     1      45.419 -20.917   4.736  1.00  0.00    -0.356 OA
HETATM   31  C   UNL     1      45.039 -22.233   5.116  1.00  0.00     0.210 C 
ENDBRANCH  28  30
ENDBRANCH   1  20
TORSDOF 4
ENDMDL
MODEL 7
REMARK VINA RESULT:      -8.1      3.292      8.102
REMARK  4 active torsions:
REMARK  status: ('A' for Active; 'I' for Inactive)
REMARK    1  A    between atoms: C_6  and  C_7 
REMARK       I    between atoms: C_7  and  N_8 
REMARK    2  A    between atoms: N_8  and  C_9 
REMARK    3  A    between atoms: C_16  and  C_17 
REMARK       I    between atoms: C_17  and  N_18 
REMARK    4  A    between atoms: C_25  and  O_26 
ROOT
HETATM    1  C   UNL     1      42.898 -15.792   2.903  1.00  0.00     0.259 C 
HETATM    2  N   UNL     1      41.796 -16.212   2.182  1.00  0.00    -0.323 N 
HETATM    3  O   UNL     1      43.492 -14.734   2.743  1.00  0.00    -0.267 OA
HETATM    4  H   UNL     1      41.369 -17.076   2.480  1.00  0.00     0.169 HD
ENDROOT
BRANCH   2   5
HETATM    5  C   UNL     1      41.138 -15.532   1.132  1.00  0.00     0.036 A 
HETATM    6  C   UNL     1      40.125 -14.583   1.328  1.00  0.00     0.046 A 
HETATM    7  C   UNL     1      39.509 -13.979   0.209  1.00  0.00     0.030 A 
HETATM    8  C   UNL     1      39.941 -14.325  -1.064  1.00  0.00     0.063 A 
HETATM    9  C   UNL     1      38.459 -13.033  -0.001  1.00  0.00     0.156 A 
HETATM   10  N   UNL     1      39.177 -13.583  -1.921  1.00  0.00    -0.277 N 
HETATM   11  C   UNL     1      40.955 -15.256  -1.296  1.00  0.00     0.034 A 
HETATM   12  H   UNL     1      39.222 -13.575  -2.934  1.00  0.00     0.189 HD
HETATM   13  N   UNL     1      38.269 -12.799  -1.320  1.00  0.00    -0.168 NA
HETATM   14  C   UNL     1      41.536 -15.857  -0.172  1.00  0.00     0.032 A 
BRANCH   9  15
HETATM   15  C   UNL     1      37.634 -12.367   1.017  1.00  0.00     0.270 C 
HETATM   16  N   UNL     1      36.308 -12.275   0.690  1.00  0.00    -0.365 N 
HETATM   17  H   UNL     1      35.997 -12.669  -0.191  1.00  0.00     0.159 HD
HETATM   18  H   UNL     1      35.663 -11.856   1.339  1.00  0.00     0.159 HD
HETATM   19  O   UNL     1      38.057 -11.929   2.081  1.00  0.00    -0.266 OA
ENDBRANCH   9  15
ENDBRANCH   2   5
BRANCH   1  20
HETATM   20  C   UNL     1      43.307 -16.722   3.954  1.00  0.00     0.074 A 
HETATM   21  C   UNL     1      43.293 -16.394   5.304  1.00  0.00     0.066 A 
HETATM   22  C   UNL     1      42.923 -15.166   6.044  1.00  0.00     0.078 C 
HETATM   23  O   UNL     1      43.688 -17.449   6.063  1.00  0.00    -0.314 OA
HETATM   24  C   UNL     1      43.995 -18.461   5.215  1.00  0.00     0.087 A 
HETATM   25  C   UNL     1      43.800 -18.072   3.894  1.00  0.00     0.019 A 
HETATM   26  C   UNL     1      44.454 -19.714   5.609  1.00  0.00     0.041 A 
HETATM   27  C   UNL     1      44.126 -19.005   2.880  1.00  0.00     0.052 A 
HETATM   28  C   UNL     1      44.578 -20.285   3.240  1.00  0.00     0.069 A 
HETATM   29  C   UNL     1      44.737 -20.624   4.588  1.00  0.00     0.039 A 
BRANCH  28  30
HETATM   30  O   UNL     1      44.908 -21.288   2.368  1.00  0.00    -0.356 OA
HETATM   31  C   UNL     1      43.871 -21.797   1.540  1.00  0.00     0.210 C 
ENDBRANCH  28  30
ENDBRANCH   1  20
TORSDOF 4
ENDMDL
MODEL 8
REMARK VINA RESULT:      -8.0      2.435      4.286
REMARK  4 active torsions:
REMARK  status: ('A' for Active; 'I' for Inactive)
REMARK    1  A    between atoms: C_6  and  C_7 
REMARK       I    between atoms: C_7  and  N_8 
REMARK    2  A    between atoms: N_8  and  C_9 
REMARK    3  A    between atoms: C_16  and  C_17 
REMARK       I    between atoms: C_17  and  N_18 
REMARK    4  A    between atoms: C_25  and  O_26 
ROOT
HETATM    1  C   UNL     1      40.740 -16.128   2.006  1.00  0.00     0.259 C 
HETATM    2  N   UNL     1      42.082 -16.295   2.291  1.00  0.00    -0.323 N 
HETATM    3  O   UNL     1      39.887 -17.005   2.060  1.00  0.00    -0.267 OA
HETATM    4  H   UNL     1      42.650 -15.461   2.274  1.00  0.00     0.169 HD
ENDROOT
BRANCH   2   5
HETATM    5  C   UNL     1      42.742 -17.479   2.690  1.00  0.00     0.036 A 
HETATM    6  C   UNL     1      43.089 -17.773   4.015  1.00  0.00     0.046 A 
HETATM    7  C   UNL     1      43.775 -18.974   4.308  1.00  0.00     0.030 A 
HETATM    8  C   UNL     1      44.068 -19.849   3.271  1.00  0.00     0.063 A 
HETATM    9  C   UNL     1      44.313 -19.593   5.478  1.00  0.00     0.156 A 
HETATM   10  N   UNL     1      44.713 -20.903   3.857  1.00  0.00    -0.277 N 
HETATM   11  C   UNL     1      43.727 -19.596   1.942  1.00  0.00     0.034 A 
HETATM   12  H   UNL     1      45.070 -21.735   3.401  1.00  0.00     0.189 HD
HETATM   13  N   UNL     1      44.885 -20.782   5.182  1.00  0.00    -0.168 NA
HETATM   14  C   UNL     1      43.067 -18.389   1.673  1.00  0.00     0.032 A 
BRANCH   9  15
HETATM   15  C   UNL     1      44.304 -19.072   6.852  1.00  0.00     0.270 C 
HETATM   16  N   UNL     1      43.597 -19.841   7.737  1.00  0.00    -0.365 N 
HETATM   17  H   UNL     1      43.157 -20.689   7.400  1.00  0.00     0.159 HD
HETATM   18  H   UNL     1      43.557 -19.574   8.708  1.00  0.00     0.159 HD
HETATM   19  O   UNL     1      44.876 -18.051   7.216  1.00  0.00    -0.266 OA
ENDBRANCH   9  15
ENDBRANCH   2   5
BRANCH   1  20
HETATM   20  C   UNL     1      40.374 -14.757   1.659  1.00  0.00     0.074 A 
HETATM   21  C   UNL     1      40.479 -14.248   0.370  1.00  0.00     0.066 A 
HETATM   22  C   UNL     1      40.939 -14.827  -0.913  1.00  0.00     0.078 C 
HETATM   23  O   UNL     1      40.042 -12.962   0.320  1.00  0.00    -0.314 OA
HETATM   24  C   UNL     1      39.682 -12.612   1.579  1.00  0.00     0.087 A 
HETATM   25  C   UNL     1      39.880 -13.669   2.460  1.00  0.00     0.019 A 
HETATM   26  C   UNL     1      39.191 -11.362   1.944  1.00  0.00     0.041 A 
HETATM   27  C   UNL     1      39.596 -13.445   3.829  1.00  0.00     0.052 A 
HETATM   28  C   UNL     1      39.086 -12.201   4.233  1.00  0.00     0.069 A 
HETATM   29  C   UNL     1      38.891 -11.181   3.296  1.00  0.00     0.039 A 
BRANCH  28  30
HETATM   30  O   UNL     1      38.751 -11.855   5.515  1.00  0.00    -0.356 OA
HETATM   31  C   UNL     1      39.816 -11.630   6.428  1.00  0.00     0.210 C 
ENDBRANCH  28  30
ENDBRANCH   1  20
TORSDOF 4
ENDMDL
MODEL 9
REMARK VINA RESULT:      -7.9      3.763      8.001
REMARK  4 active torsions:
REMARK  status: ('A' for Active; 'I' for Inactive)
REMARK    1  A    between atoms: C_6  and  C_7 
REMARK       I    between atoms: C_7  and  N_8 
REMARK    2  A    between atoms: N_8  and  C_9 
REMARK    3  A    between atoms: C_16  and  C_17 
REMARK       I    between atoms: C_17  and  N_18 
REMARK    4  A    between atoms: C_25  and  O_26 
ROOT
HETATM    1  C   UNL     1      42.804 -15.818   3.814  1.00  0.00     0.259 C 
HETATM    2  N   UNL     1      41.424 -15.877   3.792  1.00  0.00    -0.323 N 
HETATM    3  O   UNL     1      43.488 -14.951   3.285  1.00  0.00    -0.267 OA
HETATM    4  H   UNL     1      40.998 -16.613   4.336  1.00  0.00     0.169 HD
ENDROOT
BRANCH   2   5
HETATM    5  C   UNL     1      40.528 -14.978   3.170  1.00  0.00     0.036 A 
HETATM    6  C   UNL     1      40.206 -13.714   3.683  1.00  0.00     0.046 A 
HETATM    7  C   UNL     1      39.275 -12.899   3.000  1.00  0.00     0.030 A 
HETATM    8  C   UNL     1      38.718 -13.364   1.816  1.00  0.00     0.063 A 
HETATM    9  C   UNL     1      38.681 -11.617   3.210  1.00  0.00     0.156 A 
HETATM   10  N   UNL     1      37.880 -12.370   1.394  1.00  0.00    -0.277 N 
HETATM   11  C   UNL     1      39.025 -14.611   1.269  1.00  0.00     0.034 A 
HETATM   12  H   UNL     1      37.308 -12.363   0.557  1.00  0.00     0.189 HD
HETATM   13  N   UNL     1      37.825 -11.305   2.210  1.00  0.00    -0.168 NA
HETATM   14  C   UNL     1      39.934 -15.410   1.976  1.00  0.00     0.032 A 
BRANCH   9  15
HETATM   15  C   UNL     1      38.899 -10.702   4.338  1.00  0.00     0.270 C 
HETATM   16  N   UNL     1      39.319  -9.451   3.972  1.00  0.00    -0.365 N 
HETATM   17  H   UNL     1      39.433  -9.248   2.985  1.00  0.00     0.159 HD
HETATM   18  H   UNL     1      39.470  -8.749   4.678  1.00  0.00     0.159 HD
HETATM   19  O   UNL     1      38.722 -10.990   5.517  1.00  0.00    -0.266 OA
ENDBRANCH   9  15
ENDBRANCH   2   5
BRANCH   1  20
HETATM   20  C   UNL     1      43.431 -16.891   4.583  1.00  0.00     0.074 A 
HETATM   21  C   UNL     1      43.722 -16.781   5.938  1.00  0.00     0.066 A 
HETATM   22  C   UNL     1      43.537 -15.697   6.929  1.00  0.00     0.078 C 
HETATM   23  O   UNL     1      44.269 -17.932   6.411  1.00  0.00    -0.314 OA
HETATM   24  C   UNL     1      44.370 -18.787   5.363  1.00  0.00     0.087 A 
HETATM   25  C   UNL     1      43.887 -18.199   4.199  1.00  0.00     0.019 A 
HETATM   26  C   UNL     1      44.895 -20.074   5.439  1.00  0.00     0.041 A 
HETATM   27  C   UNL     1      43.970 -18.951   3.002  1.00  0.00     0.052 A 
HETATM   28  C   UNL     1      44.481 -20.258   3.042  1.00  0.00     0.069 A 
HETATM   29  C   UNL     1      44.935 -20.802   4.248  1.00  0.00     0.039 A 
BRANCH  28  30
HETATM   30  O   UNL     1      44.599 -21.101   1.969  1.00  0.00    -0.356 OA
HETATM   31  C   UNL     1      43.463 -21.886   1.630  1.00  0.00     0.210 C 
ENDBRANCH  28  30
ENDBRANCH   1  20
TORSDOF 4
ENDMDL
MODEL 10
REMARK VINA RESULT:      -7.9      2.923      8.233
REMARK  4 active torsions:
REMARK  status: ('A' for Active; 'I' for Inactive)
REMARK    1  A    between atoms: C_6  and  C_7 
REMARK       I    between atoms: C_7  and  N_8 
REMARK    2  A    between atoms: N_8  and  C_9 
REMARK    3  A    between atoms: C_16  and  C_17 
REMARK       I    between atoms: C_17  and  N_18 
REMARK    4  A    between atoms: C_25  and  O_26 
ROOT
HETATM    1  C   UNL     1      41.447 -16.555   2.818  1.00  0.00     0.259 C 
HETATM    2  N   UNL     1      42.281 -16.037   1.845  1.00  0.00    -0.323 N 
HETATM    3  O   UNL     1      40.224 -16.515   2.802  1.00  0.00    -0.267 OA
HETATM    4  H   UNL     1      43.267 -16.213   1.961  1.00  0.00     0.169 HD
ENDROOT
BRANCH   2   5
HETATM    5  C   UNL     1      41.912 -15.363   0.658  1.00  0.00     0.036 A 
HETATM    6  C   UNL     1      42.052 -13.982   0.467  1.00  0.00     0.046 A 
HETATM    7  C   UNL     1      41.628 -13.398  -0.747  1.00  0.00     0.030 A 
HETATM    8  C   UNL     1      41.100 -14.216  -1.737  1.00  0.00     0.063 A 
HETATM    9  C   UNL     1      41.570 -12.077  -1.290  1.00  0.00     0.156 A 
HETATM   10  N   UNL     1      40.795 -13.381  -2.775  1.00  0.00    -0.277 N 
HETATM   11  C   UNL     1      40.957 -15.596  -1.587  1.00  0.00     0.034 A 
HETATM   12  H   UNL     1      40.394 -13.635  -3.670  1.00  0.00     0.189 HD
HETATM   13  N   UNL     1      41.056 -12.085  -2.541  1.00  0.00    -0.168 NA
HETATM   14  C   UNL     1      41.366 -16.149  -0.366  1.00  0.00     0.032 A 
BRANCH   9  15
HETATM   15  C   UNL     1      41.977 -10.823  -0.641  1.00  0.00     0.270 C 
HETATM   16  N   UNL     1      41.066  -9.809  -0.763  1.00  0.00    -0.365 N 
HETATM   17  H   UNL     1      40.201  -9.990  -1.260  1.00  0.00     0.159 HD
HETATM   18  H   UNL     1      41.249  -8.919  -0.328  1.00  0.00     0.159 HD
HETATM   19  O   UNL     1      43.027 -10.662  -0.028  1.00  0.00    -0.266 OA
ENDBRANCH   9  15
ENDBRANCH   2   5
BRANCH   1  20
HETATM   20  C   UNL     1      42.153 -17.229   3.905  1.00  0.00     0.074 A 
HETATM   21  C   UNL     1      42.104 -16.795   5.225  1.00  0.00     0.066 A 
HETATM   22  C   UNL     1      41.427 -15.660   5.893  1.00  0.00     0.078 C 
HETATM   23  O   UNL     1      42.820 -17.619   6.033  1.00  0.00    -0.314 OA
HETATM   24  C   UNL     1      43.370 -18.575   5.244  1.00  0.00     0.087 A 
HETATM   25  C   UNL     1      43.013 -18.382   3.915  1.00  0.00     0.019 A 
HETATM   26  C   UNL     1      44.189 -19.604   5.700  1.00  0.00     0.041 A 
HETATM   27  C   UNL     1      43.550 -19.273   2.954  1.00  0.00     0.052 A 
HETATM   28  C   UNL     1      44.369 -20.332   3.379  1.00  0.00     0.069 A 
HETATM   29  C   UNL     1      44.678 -20.486   4.734  1.00  0.00     0.039 A 
BRANCH  28  30
HETATM   30  O   UNL     1      44.937 -21.276   2.565  1.00  0.00    -0.356 OA
HETATM   31  C   UNL     1      44.096 -21.892   1.598  1.00  0.00     0.210 C 
ENDBRANCH  28  30
ENDBRANCH   1  20
TORSDOF 4
ENDMDL
