MODEL 1
REMARK VINA RESULT:      -7.1      0.000      0.000
REMARK  13 active torsions:
REMARK  status: ('A' for Active; 'I' for Inactive)
REMARK    1  A    between atoms: C_2  and  N_3 
REMARK    2  A    between atoms: N_3  and  C_5 
REMARK    3  A    between atoms: N_3  and  C_34 
REMARK    4  A    between atoms: C_5  and  C_6 
REMARK    5  A    between atoms: C_6  and  O_7 
REMARK    6  A    between atoms: O_7  and  C_8 
REMARK    7  A    between atoms: N_15  and  N_16 
REMARK    8  A    between atoms: C_20  and  O_21 
REMARK    9  A    between atoms: O_21  and  C_22 
REMARK   10  A    between atoms: C_22  and  C_23 
REMARK   11  A    between atoms: C_23  and  N_24 
REMARK   12  A    between atoms: N_24  and  C_26 
REMARK   13  A    between atoms: N_24  and  C_28 
ROOT
HETATM    1  C   UNL     1      41.876 -10.704   7.566  1.00  0.00     0.091 A 
HETATM    2  C   UNL     1      40.709 -10.771   6.768  1.00  0.00     0.068 A 
HETATM    3 CL   UNL     1      39.501  -9.538   6.884  1.00  0.00    -0.081 Cl
HETATM    4  C   UNL     1      40.503 -11.815   5.854  1.00  0.00     0.040 A 
HETATM    5  C   UNL     1      41.469 -12.803   5.759  1.00  0.00    -0.011 A 
HETATM    6  C   UNL     1      42.613 -12.755   6.582  1.00  0.00     0.009 A 
HETATM    7  C   UNL     1      43.435 -13.953   6.260  1.00  0.00     0.093 A 
HETATM    8  N   UNL     1      44.557 -14.404   6.725  1.00  0.00    -0.203 NA
HETATM    9  C   UNL     1      42.710 -14.679   5.192  1.00  0.00     0.009 A 
HETATM   10  C   UNL     1      41.536 -13.972   4.905  1.00  0.00    -0.011 A 
HETATM   11  C   UNL     1      43.080 -15.851   4.548  1.00  0.00     0.053 A 
HETATM   12  C   UNL     1      42.222 -16.345   3.566  1.00  0.00     0.091 A 
HETATM   13  C   UNL     1      41.039 -15.628   3.248  1.00  0.00     0.068 A 
HETATM   14 CL   UNL     1      39.973 -16.208   2.012  1.00  0.00    -0.081 Cl
HETATM   15  C   UNL     1      40.687 -14.444   3.919  1.00  0.00     0.040 A 
HETATM   16  C   UNL     1      42.831 -11.722   7.483  1.00  0.00     0.053 A 
ENDROOT
BRANCH   1  17
HETATM   17  O   UNL     1      41.988  -9.635   8.422  1.00  0.00    -0.348 OA
BRANCH  17  18
HETATM   18  C   UNL     1      41.576  -9.865   9.774  1.00  0.00     0.203 C 
BRANCH  18  19
HETATM   19  C   UNL     1      42.834  -9.879  10.652  1.00  0.00     0.261 C 
BRANCH  19  20
HETATM   20  N   UNL     1      42.985 -11.197  11.410  1.00  0.00    -0.070 N 
HETATM   21  H   UNL     1      42.162 -11.752  11.123  1.00  0.00     0.279 HD
BRANCH  20  22
HETATM   22  C   UNL     1      42.892 -11.028  12.916  1.00  0.00     0.230 C 
HETATM   23  C   UNL     1      43.311  -9.629  13.333  1.00  0.00     0.034 C 
ENDBRANCH  20  22
BRANCH  20  24
HETATM   24  C   UNL     1      44.174 -12.047  11.002  1.00  0.00     0.230 C 
HETATM   25  C   UNL     1      45.346 -11.214  10.517  1.00  0.00     0.034 C 
ENDBRANCH  20  24
ENDBRANCH  19  20
ENDBRANCH  18  19
ENDBRANCH  17  18
ENDBRANCH   1  17
BRANCH   8  26
HETATM   26  N   UNL     1      45.141 -13.702   7.715  1.00  0.00    -0.226 NA
HETATM   27  H   UNL     1      46.032 -13.331   7.365  1.00  0.00     0.145 HD
HETATM   28  H   UNL     1      45.461 -14.361   8.435  1.00  0.00     0.145 HD
ENDBRANCH   8  26
BRANCH  12  29
HETATM   29  O   UNL     1      42.470 -17.490   2.845  1.00  0.00    -0.348 OA
BRANCH  29  30
HETATM   30  C   UNL     1      43.840 -17.888   2.736  1.00  0.00     0.203 C 
BRANCH  30  31
HETATM   31  C   UNL     1      43.868 -19.361   2.308  1.00  0.00     0.261 C 
BRANCH  31  32
HETATM   32  N   UNL     1      44.731 -20.218   3.239  1.00  0.00    -0.070 N 
HETATM   33  H   UNL     1      45.696 -20.035   2.917  1.00  0.00     0.279 HD
BRANCH  32  34
HETATM   34  C   UNL     1      44.714 -19.798   4.695  1.00  0.00     0.230 C 
HETATM   35  C   UNL     1      44.435 -20.952   5.639  1.00  0.00     0.034 C 
ENDBRANCH  32  34
BRANCH  32  36
HETATM   36  C   UNL     1      44.478 -21.694   2.984  1.00  0.00     0.230 C 
HETATM   37  C   UNL     1      44.058 -21.960   1.551  1.00  0.00     0.034 C 
ENDBRANCH  32  36
ENDBRANCH  31  32
ENDBRANCH  30  31
ENDBRANCH  29  30
ENDBRANCH  12  29
TORSDOF 13
ENDMDL
MODEL 2
REMARK VINA RESULT:      -7.0      4.753      8.345
REMARK  13 active torsions:
REMARK  status: ('A' for Active; 'I' for Inactive)
REMARK    1  A    between atoms: C_2  and  N_3 
REMARK    2  A    between atoms: N_3  and  C_5 
REMARK    3  A    between atoms: N_3  and  C_34 
REMARK    4  A    between atoms: C_5  and  C_6 
REMARK    5  A    between atoms: C_6  and  O_7 
REMARK    6  A    between atoms: O_7  and  C_8 
REMARK    7  A    between atoms: N_15  and  N_16 
REMARK    8  A    between atoms: C_20  and  O_21 
REMARK    9  A    between atoms: O_21  and  C_22 
REMARK   10  A    between atoms: C_22  and  C_23 
REMARK   11  A    between atoms: C_23  and  N_24 
REMARK   12  A    between atoms: N_24  and  C_26 
REMARK   13  A    between atoms: N_24  and  C_28 
ROOT
HETATM    1  C   UNL     1      43.433 -17.322   3.253  1.00  0.00     0.091 A 
HETATM    2  C   UNL     1      43.039 -18.155   2.179  1.00  0.00     0.068 A 
HETATM    3 CL   UNL     1      43.280 -19.866   2.266  1.00  0.00    -0.081 Cl
HETATM    4  C   UNL     1      42.429 -17.631   1.029  1.00  0.00     0.040 A 
HETATM    5  C   UNL     1      42.233 -16.261   0.957  1.00  0.00    -0.011 A 
HETATM    6  C   UNL     1      42.661 -15.429   2.012  1.00  0.00     0.009 A 
HETATM    7  C   UNL     1      42.333 -14.030   1.627  1.00  0.00     0.093 A 
HETATM    8  N   UNL     1      42.520 -12.888   2.210  1.00  0.00    -0.203 NA
HETATM    9  C   UNL     1      41.673 -14.107   0.304  1.00  0.00     0.009 A 
HETATM   10  C   UNL     1      41.621 -15.453  -0.079  1.00  0.00    -0.011 A 
HETATM   11  C   UNL     1      41.170 -13.068  -0.466  1.00  0.00     0.053 A 
HETATM   12  C   UNL     1      40.589 -13.397  -1.691  1.00  0.00     0.091 A 
HETATM   13  C   UNL     1      40.509 -14.758  -2.082  1.00  0.00     0.068 A 
HETATM   14 CL   UNL     1      39.766 -15.191  -3.586  1.00  0.00    -0.081 Cl
HETATM   15  C   UNL     1      41.030 -15.791  -1.284  1.00  0.00     0.040 A 
HETATM   16  C   UNL     1      43.257 -15.938   3.158  1.00  0.00     0.053 A 
ENDROOT
BRANCH   1  17
HETATM   17  O   UNL     1      44.012 -17.935   4.339  1.00  0.00    -0.348 OA
BRANCH  17  18
HETATM   18  C   UNL     1      43.152 -18.173   5.459  1.00  0.00     0.203 C 
BRANCH  18  19
HETATM   19  C   UNL     1      43.633 -17.289   6.616  1.00  0.00     0.261 C 
BRANCH  19  20
HETATM   20  N   UNL     1      42.681 -16.122   6.875  1.00  0.00    -0.070 N 
HETATM   21  H   UNL     1      42.594 -16.087   7.904  1.00  0.00     0.279 HD
BRANCH  20  22
HETATM   22  C   UNL     1      41.285 -16.365   6.330  1.00  0.00     0.230 C 
HETATM   23  C   UNL     1      40.690 -15.086   5.769  1.00  0.00     0.034 C 
ENDBRANCH  20  22
BRANCH  20  24
HETATM   24  C   UNL     1      43.214 -14.754   6.494  1.00  0.00     0.230 C 
HETATM   25  C   UNL     1      44.692 -14.599   6.798  1.00  0.00     0.034 C 
ENDBRANCH  20  24
ENDBRANCH  19  20
ENDBRANCH  18  19
ENDBRANCH  17  18
ENDBRANCH   1  17
BRANCH   8  26
HETATM   26  N   UNL     1      43.153 -12.898   3.399  1.00  0.00    -0.226 NA
HETATM   27  H   UNL     1      43.576 -11.974   3.547  1.00  0.00     0.145 HD
HETATM   28  H   UNL     1      43.984 -13.495   3.320  1.00  0.00     0.145 HD
ENDBRANCH   8  26
BRANCH  12  29
HETATM   29  O   UNL     1      40.045 -12.468  -2.547  1.00  0.00    -0.348 OA
BRANCH  29  30
HETATM   30  C   UNL     1      39.183 -11.488  -1.960  1.00  0.00     0.203 C 
BRANCH  30  31
HETATM   31  C   UNL     1      37.862 -12.180  -1.602  1.00  0.00     0.261 C 
BRANCH  31  32
HETATM   32  N   UNL     1      37.195 -11.555  -0.374  1.00  0.00    -0.070 N 
HETATM   33  H   UNL     1      37.765 -10.713  -0.187  1.00  0.00     0.279 HD
BRANCH  32  34
HETATM   34  C   UNL     1      35.789 -11.037  -0.602  1.00  0.00     0.230 C 
HETATM   35  C   UNL     1      34.937 -11.069   0.652  1.00  0.00     0.034 C 
ENDBRANCH  32  34
BRANCH  32  36
HETATM   36  C   UNL     1      37.367 -12.455   0.837  1.00  0.00     0.230 C 
HETATM   37  C   UNL     1      37.596 -13.902   0.442  1.00  0.00     0.034 C 
ENDBRANCH  32  36
ENDBRANCH  31  32
ENDBRANCH  30  31
ENDBRANCH  29  30
ENDBRANCH  12  29
TORSDOF 13
ENDMDL
MODEL 3
REMARK VINA RESULT:      -6.9      5.108      8.897
REMARK  13 active torsions:
REMARK  status: ('A' for Active; 'I' for Inactive)
REMARK    1  A    between atoms: C_2  and  N_3 
REMARK    2  A    between atoms: N_3  and  C_5 
REMARK    3  A    between atoms: N_3  and  C_34 
REMARK    4  A    between atoms: C_5  and  C_6 
REMARK    5  A    between atoms: C_6  and  O_7 
REMARK    6  A    between atoms: O_7  and  C_8 
REMARK    7  A    between atoms: N_15  and  N_16 
REMARK    8  A    between atoms: C_20  and  O_21 
REMARK    9  A    between atoms: O_21  and  C_22 
REMARK   10  A    between atoms: C_22  and  C_23 
REMARK   11  A    between atoms: C_23  and  N_24 
REMARK   12  A    between atoms: N_24  and  C_26 
REMARK   13  A    between atoms: N_24  and  C_28 
ROOT
HETATM    1  C   UNL     1      40.642 -13.616  -1.685  1.00  0.00     0.091 A 
HETATM    2  C   UNL     1      40.563 -14.983  -2.038  1.00  0.00     0.068 A 
HETATM    3 CL   UNL     1      39.841 -15.458  -3.537  1.00  0.00    -0.081 Cl
HETATM    4  C   UNL     1      41.078 -15.988  -1.205  1.00  0.00     0.040 A 
HETATM    5  C   UNL     1      41.658 -15.611  -0.004  1.00  0.00    -0.011 A 
HETATM    6  C   UNL     1      41.701 -14.250   0.363  1.00  0.00     0.009 A 
HETATM    7  C   UNL     1      42.355 -14.177   1.698  1.00  0.00     0.093 A 
HETATM    8  N   UNL     1      42.628 -13.192   2.493  1.00  0.00    -0.203 NA
HETATM    9  C   UNL     1      42.705 -15.568   2.065  1.00  0.00     0.009 A 
HETATM   10  C   UNL     1      42.280 -16.411   1.031  1.00  0.00    -0.011 A 
HETATM   11  C   UNL     1      43.343 -16.017   3.212  1.00  0.00     0.053 A 
HETATM   12  C   UNL     1      43.563 -17.390   3.331  1.00  0.00     0.091 A 
HETATM   13  C   UNL     1      43.158 -18.255   2.282  1.00  0.00     0.068 A 
HETATM   14 CL   UNL     1      43.445 -19.959   2.396  1.00  0.00    -0.081 Cl
HETATM   15  C   UNL     1      42.509 -17.772   1.132  1.00  0.00     0.040 A 
HETATM   16  C   UNL     1      41.203 -13.247  -0.457  1.00  0.00     0.053 A 
ENDROOT
BRANCH   1  17
HETATM   17  O   UNL     1      40.118 -12.709  -2.575  1.00  0.00    -0.348 OA
BRANCH  17  18
HETATM   18  C   UNL     1      39.833 -11.406  -2.053  1.00  0.00     0.203 C 
BRANCH  18  19
HETATM   19  C   UNL     1      40.200 -10.378  -3.130  1.00  0.00     0.261 C 
BRANCH  19  20
HETATM   20  N   UNL     1      41.448  -9.580  -2.755  1.00  0.00    -0.070 N 
HETATM   21  H   UNL     1      41.127  -8.599  -2.732  1.00  0.00     0.279 HD
BRANCH  20  22
HETATM   22  C   UNL     1      42.539  -9.656  -3.809  1.00  0.00     0.230 C 
HETATM   23  C   UNL     1      42.309 -10.829  -4.746  1.00  0.00     0.034 C 
ENDBRANCH  20  22
BRANCH  20  24
HETATM   24  C   UNL     1      41.984  -9.835  -1.358  1.00  0.00     0.230 C 
HETATM   25  C   UNL     1      43.459 -10.190  -1.356  1.00  0.00     0.034 C 
ENDBRANCH  20  24
ENDBRANCH  19  20
ENDBRANCH  18  19
ENDBRANCH  17  18
ENDBRANCH   1  17
BRANCH   8  26
HETATM   26  N   UNL     1      42.254 -11.959   2.101  1.00  0.00    -0.226 NA
HETATM   27  H   UNL     1      41.439 -12.051   1.483  1.00  0.00     0.145 HD
HETATM   28  H   UNL     1      42.963 -11.593   1.455  1.00  0.00     0.145 HD
ENDBRANCH   8  26
BRANCH  12  29
HETATM   29  O   UNL     1      44.191 -17.968   4.410  1.00  0.00    -0.348 OA
BRANCH  29  30
HETATM   30  C   UNL     1      43.402 -18.132   5.593  1.00  0.00     0.203 C 
BRANCH  30  31
HETATM   31  C   UNL     1      43.931 -17.154   6.649  1.00  0.00     0.261 C 
BRANCH  31  32
HETATM   32  N   UNL     1      42.961 -15.999   6.907  1.00  0.00    -0.070 N 
HETATM   33  H   UNL     1      42.930 -15.931   7.938  1.00  0.00     0.279 HD
BRANCH  32  34
HETATM   34  C   UNL     1      43.442 -14.641   6.436  1.00  0.00     0.230 C 
HETATM   35  C   UNL     1      44.841 -14.310   6.920  1.00  0.00     0.034 C 
ENDBRANCH  32  34
BRANCH  32  36
HETATM   36  C   UNL     1      41.557 -16.379   6.470  1.00  0.00     0.230 C 
HETATM   37  C   UNL     1      40.834 -15.220   5.811  1.00  0.00     0.034 C 
ENDBRANCH  32  36
ENDBRANCH  31  32
ENDBRANCH  30  31
ENDBRANCH  29  30
ENDBRANCH  12  29
TORSDOF 13
ENDMDL
MODEL 4
REMARK VINA RESULT:      -6.8      4.896      8.024
REMARK  13 active torsions:
REMARK  status: ('A' for Active; 'I' for Inactive)
REMARK    1  A    between atoms: C_2  and  N_3 
REMARK    2  A    between atoms: N_3  and  C_5 
REMARK    3  A    between atoms: N_3  and  C_34 
REMARK    4  A    between atoms: C_5  and  C_6 
REMARK    5  A    between atoms: C_6  and  O_7 
REMARK    6  A    between atoms: O_7  and  C_8 
REMARK    7  A    between atoms: N_15  and  N_16 
REMARK    8  A    between atoms: C_20  and  O_21 
REMARK    9  A    between atoms: O_21  and  C_22 
REMARK   10  A    between atoms: C_22  and  C_23 
REMARK   11  A    between atoms: C_23  and  N_24 
REMARK   12  A    between atoms: N_24  and  C_26 
REMARK   13  A    between atoms: N_24  and  C_28 
ROOT
HETATM    1  C   UNL     1      40.877 -13.710  -1.181  1.00  0.00     0.091 A 
HETATM    2  C   UNL     1      40.699 -15.035  -1.643  1.00  0.00     0.068 A 
HETATM    3 CL   UNL     1      39.882 -15.337  -3.138  1.00  0.00    -0.081 Cl
HETATM    4  C   UNL     1      41.189 -16.135  -0.924  1.00  0.00     0.040 A 
HETATM    5  C   UNL     1      41.845 -15.897   0.274  1.00  0.00    -0.011 A 
HETATM    6  C   UNL     1      41.988 -14.577   0.751  1.00  0.00     0.009 A 
HETATM    7  C   UNL     1      42.705 -14.657   2.052  1.00  0.00     0.093 A 
HETATM    8  N   UNL     1      43.074 -13.761   2.912  1.00  0.00    -0.203 NA
HETATM    9  C   UNL     1      42.986 -16.092   2.283  1.00  0.00     0.009 A 
HETATM   10  C   UNL     1      42.464 -16.818   1.206  1.00  0.00    -0.011 A 
HETATM   11  C   UNL     1      43.647 -16.675   3.355  1.00  0.00     0.053 A 
HETATM   12  C   UNL     1      43.788 -18.063   3.348  1.00  0.00     0.091 A 
HETATM   13  C   UNL     1      43.284 -18.809   2.252  1.00  0.00     0.068 A 
HETATM   14 CL   UNL     1      43.472 -20.530   2.209  1.00  0.00    -0.081 Cl
HETATM   15  C   UNL     1      42.614 -18.193   1.181  1.00  0.00     0.040 A 
HETATM   16  C   UNL     1      41.515 -13.481   0.043  1.00  0.00     0.053 A 
ENDROOT
BRANCH   1  17
HETATM   17  O   UNL     1      40.370 -12.701  -1.965  1.00  0.00    -0.348 OA
BRANCH  17  18
HETATM   18  C   UNL     1      39.651 -11.670  -1.278  1.00  0.00     0.203 C 
BRANCH  18  19
HETATM   19  C   UNL     1      38.159 -12.020  -1.335  1.00  0.00     0.261 C 
BRANCH  19  20
HETATM   20  N   UNL     1      37.618 -12.434   0.033  1.00  0.00    -0.070 N 
HETATM   21  H   UNL     1      36.659 -12.051   0.055  1.00  0.00     0.279 HD
BRANCH  20  22
HETATM   22  C   UNL     1      38.369 -11.792   1.186  1.00  0.00     0.230 C 
HETATM   23  C   UNL     1      37.466 -10.856   1.969  1.00  0.00     0.034 C 
ENDBRANCH  20  22
BRANCH  20  24
HETATM   24  C   UNL     1      37.433 -13.928   0.231  1.00  0.00     0.230 C 
HETATM   25  C   UNL     1      38.271 -14.471   1.373  1.00  0.00     0.034 C 
ENDBRANCH  20  24
ENDBRANCH  19  20
ENDBRANCH  18  19
ENDBRANCH  17  18
ENDBRANCH   1  17
BRANCH   8  26
HETATM   26  N   UNL     1      42.758 -12.480   2.643  1.00  0.00    -0.226 NA
HETATM   27  H   UNL     1      41.857 -12.467   2.150  1.00  0.00     0.145 HD
HETATM   28  H   UNL     1      43.396 -12.132   1.918  1.00  0.00     0.145 HD
ENDBRANCH   8  26
BRANCH  12  29
HETATM   29  O   UNL     1      44.428 -18.767   4.341  1.00  0.00    -0.348 OA
BRANCH  29  30
HETATM   30  C   UNL     1      44.558 -18.108   5.606  1.00  0.00     0.203 C 
BRANCH  30  31
HETATM   31  C   UNL     1      43.238 -18.289   6.366  1.00  0.00     0.261 C 
BRANCH  31  32
HETATM   32  N   UNL     1      42.759 -16.987   7.013  1.00  0.00    -0.070 N 
HETATM   33  H   UNL     1      42.516 -17.267   7.978  1.00  0.00     0.279 HD
BRANCH  32  34
HETATM   34  C   UNL     1      43.824 -15.920   7.169  1.00  0.00     0.230 C 
HETATM   35  C   UNL     1      43.480 -14.632   6.445  1.00  0.00     0.034 C 
ENDBRANCH  32  34
BRANCH  32  36
HETATM   36  C   UNL     1      41.463 -16.524   6.372  1.00  0.00     0.230 C 
HETATM   37  C   UNL     1      40.895 -17.562   5.424  1.00  0.00     0.034 C 
ENDBRANCH  32  36
ENDBRANCH  31  32
ENDBRANCH  30  31
ENDBRANCH  29  30
ENDBRANCH  12  29
TORSDOF 13
ENDMDL
MODEL 5
REMARK VINA RESULT:      -6.8      4.320      7.561
REMARK  13 active torsions:
REMARK  status: ('A' for Active; 'I' for Inactive)
REMARK    1  A    between atoms: C_2  and  N_3 
REMARK    2  A    between atoms: N_3  and  C_5 
REMARK    3  A    between atoms: N_3  and  C_34 
REMARK    4  A    between atoms: C_5  and  C_6 
REMARK    5  A    between atoms: C_6  and  O_7 
REMARK    6  A    between atoms: O_7  and  C_8 
REMARK    7  A    between atoms: N_15  and  N_16 
REMARK    8  A    between atoms: C_20  and  O_21 
REMARK    9  A    between atoms: O_21  and  C_22 
REMARK   10  A    between atoms: C_22  and  C_23 
REMARK   11  A    between atoms: C_23  and  N_24 
REMARK   12  A    between atoms: N_24  and  C_26 
REMARK   13  A    between atoms: N_24  and  C_28 
ROOT
HETATM    1  C   UNL     1      42.355 -17.589   4.638  1.00  0.00     0.091 A 
HETATM    2  C   UNL     1      43.002 -18.126   3.501  1.00  0.00     0.068 A 
HETATM    3 CL   UNL     1      44.183 -19.378   3.678  1.00  0.00    -0.081 Cl
HETATM    4  C   UNL     1      42.698 -17.683   2.205  1.00  0.00     0.040 A 
HETATM    5  C   UNL     1      41.752 -16.681   2.058  1.00  0.00    -0.011 A 
HETATM    6  C   UNL     1      41.136 -16.120   3.196  1.00  0.00     0.009 A 
HETATM    7  C   UNL     1      40.200 -15.069   2.713  1.00  0.00     0.093 A 
HETATM    8  N   UNL     1      39.409 -14.245   3.324  1.00  0.00    -0.203 NA
HETATM    9  C   UNL     1      40.296 -15.074   1.236  1.00  0.00     0.009 A 
HETATM   10  C   UNL     1      41.230 -16.049   0.864  1.00  0.00    -0.011 A 
HETATM   11  C   UNL     1      39.607 -14.283   0.329  1.00  0.00     0.053 A 
HETATM   12  C   UNL     1      39.873 -14.475  -1.027  1.00  0.00     0.091 A 
HETATM   13  C   UNL     1      40.801 -15.474  -1.421  1.00  0.00     0.068 A 
HETATM   14 CL   UNL     1      41.126 -15.749  -3.099  1.00  0.00    -0.081 Cl
HETATM   15  C   UNL     1      41.488 -16.260  -0.479  1.00  0.00     0.040 A 
HETATM   16  C   UNL     1      41.422 -16.557   4.482  1.00  0.00     0.053 A 
ENDROOT
BRANCH   1  17
HETATM   17  O   UNL     1      42.715 -18.099   5.862  1.00  0.00    -0.348 OA
BRANCH  17  18
HETATM   18  C   UNL     1      42.849 -17.149   6.925  1.00  0.00     0.203 C 
BRANCH  18  19
HETATM   19  C   UNL     1      44.063 -16.265   6.614  1.00  0.00     0.261 C 
BRANCH  19  20
HETATM   20  N   UNL     1      43.807 -14.801   6.967  1.00  0.00    -0.070 N 
HETATM   21  H   UNL     1      43.289 -14.840   7.861  1.00  0.00     0.279 HD
BRANCH  20  22
HETATM   22  C   UNL     1      42.900 -14.101   5.970  1.00  0.00     0.230 C 
HETATM   23  C   UNL     1      43.643 -13.792   4.683  1.00  0.00     0.034 C 
ENDBRANCH  20  22
BRANCH  20  24
HETATM   24  C   UNL     1      45.046 -13.984   7.284  1.00  0.00     0.230 C 
HETATM   25  C   UNL     1      44.786 -12.912   8.326  1.00  0.00     0.034 C 
ENDBRANCH  20  24
ENDBRANCH  19  20
ENDBRANCH  18  19
ENDBRANCH  17  18
ENDBRANCH   1  17
BRANCH   8  26
HETATM   26  N   UNL     1      39.398 -14.282   4.671  1.00  0.00    -0.226 NA
HETATM   27  H   UNL     1      39.569 -13.332   5.021  1.00  0.00     0.145 HD
HETATM   28  H   UNL     1      40.240 -14.775   4.989  1.00  0.00     0.145 HD
ENDBRANCH   8  26
BRANCH  12  29
HETATM   29  O   UNL     1      39.256 -13.766  -2.031  1.00  0.00    -0.348 OA
BRANCH  29  30
HETATM   30  C   UNL     1      39.223 -12.343  -1.877  1.00  0.00     0.203 C 
BRANCH  30  31
HETATM   31  C   UNL     1      40.485 -11.770  -2.534  1.00  0.00     0.261 C 
BRANCH  31  32
HETATM   32  N   UNL     1      41.386 -11.051  -1.527  1.00  0.00    -0.070 N 
HETATM   33  H   UNL     1      41.466 -10.094  -1.909  1.00  0.00     0.279 HD
BRANCH  32  34
HETATM   34  C   UNL     1      40.791 -10.877  -0.145  1.00  0.00     0.230 C 
HETATM   35  C   UNL     1      41.680 -11.427   0.955  1.00  0.00     0.034 C 
ENDBRANCH  32  34
BRANCH  32  36
HETATM   36  C   UNL     1      42.789 -11.633  -1.563  1.00  0.00     0.230 C 
HETATM   37  C   UNL     1      42.909 -12.764  -2.566  1.00  0.00     0.034 C 
ENDBRANCH  32  36
ENDBRANCH  31  32
ENDBRANCH  30  31
ENDBRANCH  29  30
ENDBRANCH  12  29
TORSDOF 13
ENDMDL
MODEL 6
REMARK VINA RESULT:      -6.8      5.161      8.519
REMARK  13 active torsions:
REMARK  status: ('A' for Active; 'I' for Inactive)
REMARK    1  A    between atoms: C_2  and  N_3 
REMARK    2  A    between atoms: N_3  and  C_5 
REMARK    3  A    between atoms: N_3  and  C_34 
REMARK    4  A    between atoms: C_5  and  C_6 
REMARK    5  A    between atoms: C_6  and  O_7 
REMARK    6  A    between atoms: O_7  and  C_8 
REMARK    7  A    between atoms: N_15  and  N_16 
REMARK    8  A    between atoms: C_20  and  O_21 
REMARK    9  A    between atoms: O_21  and  C_22 
REMARK   10  A    between atoms: C_22  and  C_23 
REMARK   11  A    between atoms: C_23  and  N_24 
REMARK   12  A    between atoms: N_24  and  C_26 
REMARK   13  A    between atoms: N_24  and  C_28 
ROOT
HETATM    1  C   UNL     1      43.636 -17.592   3.206  1.00  0.00     0.091 A 
HETATM    2  C   UNL     1      43.173 -18.366   2.116  1.00  0.00     0.068 A 
HETATM    3 CL   UNL     1      43.391 -20.082   2.108  1.00  0.00    -0.081 Cl
HETATM    4  C   UNL     1      42.512 -17.779   1.026  1.00  0.00     0.040 A 
HETATM    5  C   UNL     1      42.335 -16.405   1.029  1.00  0.00    -0.011 A 
HETATM    6  C   UNL     1      42.831 -15.631   2.099  1.00  0.00     0.009 A 
HETATM    7  C   UNL     1      42.506 -14.210   1.799  1.00  0.00     0.093 A 
HETATM    8  N   UNL     1      42.742 -13.101   2.425  1.00  0.00    -0.203 NA
HETATM    9  C   UNL     1      41.776 -14.215   0.511  1.00  0.00     0.009 A 
HETATM   10  C   UNL     1      41.683 -15.539   0.067  1.00  0.00    -0.011 A 
HETATM   11  C   UNL     1      41.251 -13.133  -0.181  1.00  0.00     0.053 A 
HETATM   12  C   UNL     1      40.601 -13.393  -1.388  1.00  0.00     0.091 A 
HETATM   13  C   UNL     1      40.479 -14.733  -1.839  1.00  0.00     0.068 A 
HETATM   14 CL   UNL     1      39.652 -15.082  -3.320  1.00  0.00    -0.081 Cl
HETATM   15  C   UNL     1      41.024 -15.810  -1.119  1.00  0.00     0.040 A 
HETATM   16  C   UNL     1      43.478 -16.202   3.186  1.00  0.00     0.053 A 
ENDROOT
BRANCH   1  17
HETATM   17  O   UNL     1      44.260 -18.264   4.229  1.00  0.00    -0.348 OA
BRANCH  17  18
HETATM   18  C   UNL     1      43.491 -18.450   5.422  1.00  0.00     0.203 C 
BRANCH  18  19
HETATM   19  C   UNL     1      44.083 -17.544   6.509  1.00  0.00     0.261 C 
BRANCH  19  20
HETATM   20  N   UNL     1      43.076 -16.500   6.991  1.00  0.00    -0.070 N 
HETATM   21  H   UNL     1      43.198 -16.483   8.017  1.00  0.00     0.279 HD
BRANCH  20  22
HETATM   22  C   UNL     1      41.635 -16.903   6.731  1.00  0.00     0.230 C 
HETATM   23  C   UNL     1      40.889 -15.807   5.992  1.00  0.00     0.034 C 
ENDBRANCH  20  22
BRANCH  20  24
HETATM   24  C   UNL     1      43.360 -15.075   6.553  1.00  0.00     0.230 C 
HETATM   25  C   UNL     1      44.736 -14.599   6.976  1.00  0.00     0.034 C 
ENDBRANCH  20  24
ENDBRANCH  19  20
ENDBRANCH  18  19
ENDBRANCH  17  18
ENDBRANCH   1  17
BRANCH   8  26
HETATM   26  N   UNL     1      43.435 -13.177   3.577  1.00  0.00    -0.226 NA
HETATM   27  H   UNL     1      44.416 -12.945   3.379  1.00  0.00     0.145 HD
HETATM   28  H   UNL     1      43.507 -14.164   3.849  1.00  0.00     0.145 HD
ENDBRANCH   8  26
BRANCH  12  29
HETATM   29  O   UNL     1      40.029 -12.417  -2.169  1.00  0.00    -0.348 OA
BRANCH  29  30
HETATM   30  C   UNL     1      40.210 -11.066  -1.733  1.00  0.00     0.203 C 
BRANCH  30  31
HETATM   31  C   UNL     1      40.542 -10.215  -2.966  1.00  0.00     0.261 C 
BRANCH  31  32
HETATM   32  N   UNL     1      42.049 -10.130  -3.221  1.00  0.00    -0.070 N 
HETATM   33  H   UNL     1      42.220  -9.118  -3.346  1.00  0.00     0.279 HD
BRANCH  32  34
HETATM   34  C   UNL     1      42.921 -10.536  -2.051  1.00  0.00     0.230 C 
HETATM   35  C   UNL     1      43.731  -9.383  -1.489  1.00  0.00     0.034 C 
ENDBRANCH  32  34
BRANCH  32  36
HETATM   36  C   UNL     1      42.398 -10.779  -4.549  1.00  0.00     0.230 C 
HETATM   37  C   UNL     1      42.134  -9.853  -5.721  1.00  0.00     0.034 C 
ENDBRANCH  32  36
ENDBRANCH  31  32
ENDBRANCH  30  31
ENDBRANCH  29  30
ENDBRANCH  12  29
TORSDOF 13
ENDMDL
MODEL 7
REMARK VINA RESULT:      -6.8      6.120      9.251
REMARK  13 active torsions:
REMARK  status: ('A' for Active; 'I' for Inactive)
REMARK    1  A    between atoms: C_2  and  N_3 
REMARK    2  A    between atoms: N_3  and  C_5 
REMARK    3  A    between atoms: N_3  and  C_34 
REMARK    4  A    between atoms: C_5  and  C_6 
REMARK    5  A    between atoms: C_6  and  O_7 
REMARK    6  A    between atoms: O_7  and  C_8 
REMARK    7  A    between atoms: N_15  and  N_16 
REMARK    8  A    between atoms: C_20  and  O_21 
REMARK    9  A    between atoms: O_21  and  C_22 
REMARK   10  A    between atoms: C_22  and  C_23 
REMARK   11  A    between atoms: C_23  and  N_24 
REMARK   12  A    between atoms: N_24  and  C_26 
REMARK   13  A    between atoms: N_24  and  C_28 
ROOT
HETATM    1  C   UNL     1      42.401 -17.770   3.417  1.00  0.00     0.091 A 
HETATM    2  C   UNL     1      42.901 -18.121   2.141  1.00  0.00     0.068 A 
HETATM    3 CL   UNL     1      44.043 -19.410   1.974  1.00  0.00    -0.081 Cl
HETATM    4  C   UNL     1      42.480 -17.457   0.979  1.00  0.00     0.040 A 
HETATM    5  C   UNL     1      41.565 -16.425   1.108  1.00  0.00    -0.011 A 
HETATM    6  C   UNL     1      41.097 -16.051   2.385  1.00  0.00     0.009 A 
HETATM    7  C   UNL     1      40.158 -14.914   2.191  1.00  0.00     0.093 A 
HETATM    8  N   UNL     1      39.470 -14.188   3.015  1.00  0.00    -0.203 NA
HETATM    9  C   UNL     1      40.096 -14.670   0.732  1.00  0.00     0.009 A 
HETATM   10  C   UNL     1      40.945 -15.587   0.102  1.00  0.00    -0.011 A 
HETATM   11  C   UNL     1      39.347 -13.721   0.053  1.00  0.00     0.053 A 
HETATM   12  C   UNL     1      39.459 -13.686  -1.338  1.00  0.00     0.091 A 
HETATM   13  C   UNL     1      40.298 -14.624  -1.993  1.00  0.00     0.068 A 
HETATM   14 CL   UNL     1      40.432 -14.617  -3.720  1.00  0.00    -0.081 Cl
HETATM   15  C   UNL     1      41.049 -15.573  -1.278  1.00  0.00     0.040 A 
HETATM   16  C   UNL     1      41.500 -16.707   3.540  1.00  0.00     0.053 A 
ENDROOT
BRANCH   1  17
HETATM   17  O   UNL     1      42.869 -18.488   4.491  1.00  0.00    -0.348 OA
BRANCH  17  18
HETATM   18  C   UNL     1      43.879 -17.853   5.282  1.00  0.00     0.203 C 
BRANCH  18  19
HETATM   19  C   UNL     1      44.770 -18.951   5.876  1.00  0.00     0.261 C 
BRANCH  19  20
HETATM   20  N   UNL     1      44.239 -20.348   5.561  1.00  0.00    -0.070 N 
HETATM   21  H   UNL     1      43.402 -20.179   4.980  1.00  0.00     0.279 HD
BRANCH  20  22
HETATM   22  C   UNL     1      43.767 -21.095   6.797  1.00  0.00     0.230 C 
HETATM   23  C   UNL     1      43.767 -20.186   8.014  1.00  0.00     0.034 C 
ENDBRANCH  20  22
BRANCH  20  24
HETATM   24  C   UNL     1      45.139 -21.202   4.686  1.00  0.00     0.230 C 
HETATM   25  C   UNL     1      44.741 -22.666   4.694  1.00  0.00     0.034 C 
ENDBRANCH  20  24
ENDBRANCH  19  20
ENDBRANCH  18  19
ENDBRANCH  17  18
ENDBRANCH   1  17
BRANCH   8  26
HETATM   26  N   UNL     1      39.601 -14.453   4.330  1.00  0.00    -0.226 NA
HETATM   27  H   UNL     1      39.192 -13.673   4.858  1.00  0.00     0.145 HD
HETATM   28  H   UNL     1      40.594 -14.374   4.580  1.00  0.00     0.145 HD
ENDBRANCH   8  26
BRANCH  12  29
HETATM   29  O   UNL     1      38.768 -12.803  -2.134  1.00  0.00    -0.348 OA
BRANCH  29  30
HETATM   30  C   UNL     1      39.124 -11.422  -2.012  1.00  0.00     0.203 C 
BRANCH  30  31
HETATM   31  C   UNL     1      39.976 -11.048  -3.232  1.00  0.00     0.261 C 
BRANCH  31  32
HETATM   32  N   UNL     1      41.385 -10.597  -2.838  1.00  0.00    -0.070 N 
HETATM   33  H   UNL     1      41.262 -10.211  -1.887  1.00  0.00     0.279 HD
BRANCH  32  34
HETATM   34  C   UNL     1      42.395 -11.715  -2.683  1.00  0.00     0.230 C 
HETATM   35  C   UNL     1      42.799 -11.950  -1.239  1.00  0.00     0.034 C 
ENDBRANCH  32  34
BRANCH  32  36
HETATM   36  C   UNL     1      41.830  -9.434  -3.707  1.00  0.00     0.230 C 
HETATM   37  C   UNL     1      42.478  -9.903  -4.996  1.00  0.00     0.034 C 
ENDBRANCH  32  36
ENDBRANCH  31  32
ENDBRANCH  30  31
ENDBRANCH  29  30
ENDBRANCH  12  29
TORSDOF 13
ENDMDL
MODEL 8
REMARK VINA RESULT:      -6.7      2.314      9.452
REMARK  13 active torsions:
REMARK  status: ('A' for Active; 'I' for Inactive)
REMARK    1  A    between atoms: C_2  and  N_3 
REMARK    2  A    between atoms: N_3  and  C_5 
REMARK    3  A    between atoms: N_3  and  C_34 
REMARK    4  A    between atoms: C_5  and  C_6 
REMARK    5  A    between atoms: C_6  and  O_7 
REMARK    6  A    between atoms: O_7  and  C_8 
REMARK    7  A    between atoms: N_15  and  N_16 
REMARK    8  A    between atoms: C_20  and  O_21 
REMARK    9  A    between atoms: O_21  and  C_22 
REMARK   10  A    between atoms: C_22  and  C_23 
REMARK   11  A    between atoms: C_23  and  N_24 
REMARK   12  A    between atoms: N_24  and  C_26 
REMARK   13  A    between atoms: N_24  and  C_28 
ROOT
HETATM    1  C   UNL     1      41.279 -16.074   1.639  1.00  0.00     0.091 A 
HETATM    2  C   UNL     1      41.257 -14.777   1.074  1.00  0.00     0.068 A 
HETATM    3 CL   UNL     1      41.627 -14.547  -0.600  1.00  0.00    -0.081 Cl
HETATM    4  C   UNL     1      40.919 -13.650   1.837  1.00  0.00     0.040 A 
HETATM    5  C   UNL     1      40.621 -13.830   3.179  1.00  0.00    -0.011 A 
HETATM    6  C   UNL     1      40.682 -15.119   3.748  1.00  0.00     0.009 A 
HETATM    7  C   UNL     1      40.335 -14.977   5.188  1.00  0.00     0.093 A 
HETATM    8  N   UNL     1      40.258 -15.826   6.164  1.00  0.00    -0.203 NA
HETATM    9  C   UNL     1      40.051 -13.541   5.408  1.00  0.00     0.009 A 
HETATM   10  C   UNL     1      40.227 -12.872   4.191  1.00  0.00    -0.011 A 
HETATM   11  C   UNL     1      39.671 -12.912   6.584  1.00  0.00     0.053 A 
HETATM   12  C   UNL     1      39.460 -11.534   6.539  1.00  0.00     0.091 A 
HETATM   13  C   UNL     1      39.612 -10.845   5.309  1.00  0.00     0.068 A 
HETATM   14 CL   UNL     1      39.328  -9.139   5.223  1.00  0.00    -0.081 Cl
HETATM   15  C   UNL     1      40.002 -11.507   4.132  1.00  0.00     0.040 A 
HETATM   16  C   UNL     1      41.005 -16.242   3.001  1.00  0.00     0.053 A 
ENDROOT
BRANCH   1  17
HETATM   17  O   UNL     1      41.611 -17.114   0.804  1.00  0.00    -0.348 OA
BRANCH  17  18
HETATM   18  C   UNL     1      42.055 -18.317   1.442  1.00  0.00     0.203 C 
BRANCH  18  19
HETATM   19  C   UNL     1      43.552 -18.164   1.742  1.00  0.00     0.261 C 
BRANCH  19  20
HETATM   20  N   UNL     1      44.136 -19.422   2.383  1.00  0.00    -0.070 N 
HETATM   21  H   UNL     1      45.122 -19.432   2.074  1.00  0.00     0.279 HD
BRANCH  20  22
HETATM   22  C   UNL     1      43.504 -20.701   1.861  1.00  0.00     0.230 C 
HETATM   23  C   UNL     1      44.363 -21.907   2.194  1.00  0.00     0.034 C 
ENDBRANCH  20  22
BRANCH  20  24
HETATM   24  C   UNL     1      44.214 -19.400   3.899  1.00  0.00     0.230 C 
HETATM   25  C   UNL     1      43.886 -18.038   4.479  1.00  0.00     0.034 C 
ENDBRANCH  20  24
ENDBRANCH  19  20
ENDBRANCH  18  19
ENDBRANCH  17  18
ENDBRANCH   1  17
BRANCH   8  26
HETATM   26  N   UNL     1      40.558 -17.110   5.891  1.00  0.00    -0.226 NA
HETATM   27  H   UNL     1      39.747 -17.541   5.433  1.00  0.00     0.145 HD
HETATM   28  H   UNL     1      40.596 -17.631   6.776  1.00  0.00     0.145 HD
ENDBRANCH   8  26
BRANCH  12  29
HETATM   29  O   UNL     1      39.072 -10.788   7.628  1.00  0.00    -0.348 OA
BRANCH  29  30
HETATM   30  C   UNL     1      39.341 -11.354   8.915  1.00  0.00     0.203 C 
BRANCH  30  31
HETATM   31  C   UNL     1      40.390 -10.472   9.606  1.00  0.00     0.261 C 
BRANCH  31  32
HETATM   32  N   UNL     1      41.281 -11.271  10.559  1.00  0.00    -0.070 N 
HETATM   33  H   UNL     1      41.237 -12.235  10.187  1.00  0.00     0.279 HD
BRANCH  32  34
HETATM   34  C   UNL     1      42.750 -10.902  10.524  1.00  0.00     0.230 C 
HETATM   35  C   UNL     1      43.622 -11.872  11.298  1.00  0.00     0.034 C 
ENDBRANCH  32  34
BRANCH  32  36
HETATM   36  C   UNL     1      40.658 -11.328  11.943  1.00  0.00     0.230 C 
HETATM   37  C   UNL     1      40.113  -9.980  12.376  1.00  0.00     0.034 C 
ENDBRANCH  32  36
ENDBRANCH  31  32
ENDBRANCH  30  31
ENDBRANCH  29  30
ENDBRANCH  12  29
TORSDOF 13
ENDMDL
MODEL 9
REMARK VINA RESULT:      -6.6      5.032      8.824
REMARK  13 active torsions:
REMARK  status: ('A' for Active; 'I' for Inactive)
REMARK    1  A    between atoms: C_2  and  N_3 
REMARK    2  A    between atoms: N_3  and  C_5 
REMARK    3  A    between atoms: N_3  and  C_34 
REMARK    4  A    between atoms: C_5  and  C_6 
REMARK    5  A    between atoms: C_6  and  O_7 
REMARK    6  A    between atoms: O_7  and  C_8 
REMARK    7  A    between atoms: N_15  and  N_16 
REMARK    8  A    between atoms: C_20  and  O_21 
REMARK    9  A    between atoms: O_21  and  C_22 
REMARK   10  A    between atoms: C_22  and  C_23 
REMARK   11  A    between atoms: C_23  and  N_24 
REMARK   12  A    between atoms: N_24  and  C_26 
REMARK   13  A    between atoms: N_24  and  C_28 
ROOT
HETATM    1  C   UNL     1      43.550 -17.022   5.157  1.00  0.00     0.091 A 
HETATM    2  C   UNL     1      43.241 -15.865   5.910  1.00  0.00     0.068 A 
HETATM    3 CL   UNL     1      44.058 -15.549   7.402  1.00  0.00    -0.081 Cl
HETATM    4  C   UNL     1      42.288 -14.935   5.469  1.00  0.00     0.040 A 
HETATM    5  C   UNL     1      41.633 -15.184   4.273  1.00  0.00    -0.011 A 
HETATM    6  C   UNL     1      41.915 -16.357   3.544  1.00  0.00     0.009 A 
HETATM    7  C   UNL     1      41.043 -16.343   2.338  1.00  0.00     0.093 A 
HETATM    8  N   UNL     1      40.883 -17.173   1.356  1.00  0.00    -0.203 NA
HETATM    9  C   UNL     1      40.263 -15.087   2.404  1.00  0.00     0.009 A 
HETATM   10  C   UNL     1      40.632 -14.406   3.571  1.00  0.00    -0.011 A 
HETATM   11  C   UNL     1      39.322 -14.613   1.502  1.00  0.00     0.053 A 
HETATM   12  C   UNL     1      38.715 -13.390   1.787  1.00  0.00     0.091 A 
HETATM   13  C   UNL     1      39.095 -12.677   2.953  1.00  0.00     0.068 A 
HETATM   14 CL   UNL     1      38.374 -11.144   3.312  1.00  0.00    -0.081 Cl
HETATM   15  C   UNL     1      40.048 -13.183   3.853  1.00  0.00     0.040 A 
HETATM   16  C   UNL     1      42.862 -17.279   3.967  1.00  0.00     0.053 A 
ENDROOT
BRANCH   1  17
HETATM   17  O   UNL     1      44.507 -17.865   5.671  1.00  0.00    -0.348 OA
BRANCH  17  18
HETATM   18  C   UNL     1      44.167 -19.255   5.708  1.00  0.00     0.203 C 
BRANCH  18  19
HETATM   19  C   UNL     1      45.083 -19.990   4.721  1.00  0.00     0.261 C 
BRANCH  19  20
HETATM   20  N   UNL     1      44.303 -20.955   3.830  1.00  0.00    -0.070 N 
HETATM   21  H   UNL     1      43.328 -20.879   4.163  1.00  0.00     0.279 HD
BRANCH  20  22
HETATM   22  C   UNL     1      44.716 -22.404   4.022  1.00  0.00     0.230 C 
HETATM   23  C   UNL     1      45.192 -22.650   5.443  1.00  0.00     0.034 C 
ENDBRANCH  20  22
BRANCH  20  24
HETATM   24  C   UNL     1      44.232 -20.570   2.364  1.00  0.00     0.230 C 
HETATM   25  C   UNL     1      43.892 -21.746   1.468  1.00  0.00     0.034 C 
ENDBRANCH  20  24
ENDBRANCH  19  20
ENDBRANCH  18  19
ENDBRANCH  17  18
ENDBRANCH   1  17
BRANCH   8  26
HETATM   26  N   UNL     1      41.609 -18.308   1.381  1.00  0.00    -0.226 NA
HETATM   27  H   UNL     1      40.962 -19.104   1.418  1.00  0.00     0.145 HD
HETATM   28  H   UNL     1      42.073 -18.377   2.295  1.00  0.00     0.145 HD
ENDBRANCH   8  26
BRANCH  12  29
HETATM   29  O   UNL     1      37.773 -12.801   0.974  1.00  0.00    -0.348 OA
BRANCH  29  30
HETATM   30  C   UNL     1      38.261 -12.187  -0.223  1.00  0.00     0.203 C 
BRANCH  30  31
HETATM   31  C   UNL     1      37.844 -13.070  -1.406  1.00  0.00     0.261 C 
BRANCH  31  32
HETATM   32  N   UNL     1      39.026 -13.838  -2.001  1.00  0.00    -0.070 N 
HETATM   33  H   UNL     1      39.099 -14.678  -1.402  1.00  0.00     0.279 HD
BRANCH  32  34
HETATM   34  C   UNL     1      38.804 -14.371  -3.402  1.00  0.00     0.230 C 
HETATM   35  C   UNL     1      37.441 -15.013  -3.581  1.00  0.00     0.034 C 
ENDBRANCH  32  34
BRANCH  32  36
HETATM   36  C   UNL     1      40.317 -13.065  -1.796  1.00  0.00     0.230 C 
HETATM   37  C   UNL     1      41.480 -13.979  -1.461  1.00  0.00     0.034 C 
ENDBRANCH  32  36
ENDBRANCH  31  32
ENDBRANCH  30  31
ENDBRANCH  29  30
ENDBRANCH  12  29
TORSDOF 13
ENDMDL
MODEL 10
REMARK VINA RESULT:      -6.6      1.297      9.287
REMARK  13 active torsions:
REMARK  status: ('A' for Active; 'I' for Inactive)
REMARK    1  A    between atoms: C_2  and  N_3 
REMARK    2  A    between atoms: N_3  and  C_5 
REMARK    3  A    between atoms: N_3  and  C_34 
REMARK    4  A    between atoms: C_5  and  C_6 
REMARK    5  A    between atoms: C_6  and  O_7 
REMARK    6  A    between atoms: O_7  and  C_8 
REMARK    7  A    between atoms: N_15  and  N_16 
REMARK    8  A    between atoms: C_20  and  O_21 
REMARK    9  A    between atoms: O_21  and  C_22 
REMARK   10  A    between atoms: C_22  and  C_23 
REMARK   11  A    between atoms: C_23  and  N_24 
REMARK   12  A    between atoms: N_24  and  C_26 
REMARK   13  A    between atoms: N_24  and  C_28 
ROOT
HETATM    1  C   UNL     1      42.669 -16.523   2.250  1.00  0.00     0.091 A 
HETATM    2  C   UNL     1      41.849 -15.616   1.538  1.00  0.00     0.068 A 
HETATM    3 CL   UNL     1      41.378 -15.958  -0.091  1.00  0.00    -0.081 Cl
HETATM    4  C   UNL     1      41.381 -14.432   2.127  1.00  0.00     0.040 A 
HETATM    5  C   UNL     1      41.756 -14.156   3.432  1.00  0.00    -0.011 A 
HETATM    6  C   UNL     1      42.604 -15.043   4.126  1.00  0.00     0.009 A 
HETATM    7  C   UNL     1      42.836 -14.460   5.476  1.00  0.00     0.093 A 
HETATM    8  N   UNL     1      43.540 -14.845   6.493  1.00  0.00    -0.203 NA
HETATM    9  C   UNL     1      42.056 -13.203   5.525  1.00  0.00     0.009 A 
HETATM   10  C   UNL     1      41.415 -13.040   4.291  1.00  0.00    -0.011 A 
HETATM   11  C   UNL     1      41.939 -12.306   6.577  1.00  0.00     0.053 A 
HETATM   12  C   UNL     1      41.139 -11.181   6.380  1.00  0.00     0.091 A 
HETATM   13  C   UNL     1      40.464 -11.013   5.143  1.00  0.00     0.068 A 
HETATM   14 CL   UNL     1      39.444  -9.638   4.885  1.00  0.00    -0.081 Cl
HETATM   15  C   UNL     1      40.604 -11.936   4.091  1.00  0.00     0.040 A 
HETATM   16  C   UNL     1      43.066 -16.221   3.557  1.00  0.00     0.053 A 
ENDROOT
BRANCH   1  17
HETATM   17  O   UNL     1      43.066 -17.660   1.587  1.00  0.00    -0.348 OA
BRANCH  17  18
HETATM   18  C   UNL     1      44.184 -18.358   2.147  1.00  0.00     0.203 C 
BRANCH  18  19
HETATM   19  C   UNL     1      43.652 -19.625   2.829  1.00  0.00     0.261 C 
BRANCH  19  20
HETATM   20  N   UNL     1      44.779 -20.588   3.201  1.00  0.00    -0.070 N 
HETATM   21  H   UNL     1      45.632 -20.139   2.829  1.00  0.00     0.279 HD
BRANCH  20  22
HETATM   22  C   UNL     1      44.660 -21.935   2.510  1.00  0.00     0.230 C 
HETATM   23  C   UNL     1      43.545 -21.921   1.480  1.00  0.00     0.034 C 
ENDBRANCH  20  22
BRANCH  20  24
HETATM   24  C   UNL     1      45.045 -20.729   4.688  1.00  0.00     0.230 C 
HETATM   25  C   UNL     1      44.750 -22.125   5.202  1.00  0.00     0.034 C 
ENDBRANCH  20  24
ENDBRANCH  19  20
ENDBRANCH  18  19
ENDBRANCH  17  18
ENDBRANCH   1  17
BRANCH   8  26
HETATM   26  N   UNL     1      44.244 -15.986   6.362  1.00  0.00    -0.226 NA
HETATM   27  H   UNL     1      45.085 -15.783   5.809  1.00  0.00     0.145 HD
HETATM   28  H   UNL     1      43.730 -16.614   5.733  1.00  0.00     0.145 HD
ENDBRANCH   8  26
BRANCH  12  29
HETATM   29  O   UNL     1      40.929 -10.219   7.340  1.00  0.00    -0.348 OA
BRANCH  29  30
HETATM   30  C   UNL     1      42.019  -9.962   8.231  1.00  0.00     0.203 C 
BRANCH  30  31
HETATM   31  C   UNL     1      41.655 -10.548   9.601  1.00  0.00     0.261 C 
BRANCH  31  32
HETATM   32  N   UNL     1      42.788 -11.391  10.190  1.00  0.00    -0.070 N 
HETATM   33  H   UNL     1      42.511 -12.363   9.972  1.00  0.00     0.279 HD
BRANCH  32  34
HETATM   34  C   UNL     1      44.137 -11.206   9.525  1.00  0.00     0.230 C 
HETATM   35  C   UNL     1      44.715 -12.503   8.992  1.00  0.00     0.034 C 
ENDBRANCH  32  34
BRANCH  32  36
HETATM   36  C   UNL     1      42.791 -11.287  11.705  1.00  0.00     0.230 C 
HETATM   37  C   UNL     1      43.517 -10.046  12.189  1.00  0.00     0.034 C 
ENDBRANCH  32  36
ENDBRANCH  31  32
ENDBRANCH  30  31
ENDBRANCH  29  30
ENDBRANCH  12  29
TORSDOF 13
ENDMDL
