MODEL 1
REMARK VINA RESULT:      -9.6      0.000      0.000
REMARK  4 active torsions:
REMARK  status: ('A' for Active; 'I' for Inactive)
REMARK       I    between atoms: C_2  and  N_3 
REMARK    1  A    between atoms: N_7  and  N_8 
REMARK       I    between atoms: N_8  and  C_9 
REMARK    2  A    between atoms: C_9  and  C_10 
REMARK    3  A    between atoms: C_18  and  C_19 
REMARK    4  A    between atoms: C_20  and  O_21 
ROOT
HETATM    1  C   UNL     1      41.937 -16.160   3.921  1.00  0.00     0.048 A 
HETATM    2  C   UNL     1      42.707 -15.541   4.931  1.00  0.00     0.009 A 
HETATM    3  C   UNL     1      43.716 -16.338   5.507  1.00  0.00     0.068 A 
HETATM    4  C   UNL     1      44.485 -15.811   6.535  1.00  0.00     0.032 A 
HETATM    5  C   UNL     1      44.309 -14.505   6.999  1.00  0.00     0.002 A 
HETATM    6  C   UNL     1      43.354 -13.692   6.408  1.00  0.00     0.001 A 
HETATM    7  C   UNL     1      42.566 -14.199   5.377  1.00  0.00     0.015 A 
HETATM    8  N   UNL     1      43.990 -17.586   5.098  1.00  0.00    -0.247 NA
HETATM    9  C   UNL     1      43.271 -18.143   4.094  1.00  0.00     0.071 A 
HETATM   10  C   UNL     1      42.228 -17.458   3.493  1.00  0.00     0.050 A 
ENDROOT
BRANCH   1  11
HETATM   11  C   UNL     1      40.809 -15.498   3.220  1.00  0.00     0.272 C 
HETATM   12  N   UNL     1      40.843 -15.565   1.834  1.00  0.00    -0.243 N 
HETATM   13  H   UNL     1      41.645 -15.967   1.365  1.00  0.00     0.192 HD
HETATM   14  O   UNL     1      39.962 -14.918   3.892  1.00  0.00    -0.266 OA
BRANCH  12  15
HETATM   15  N   UNL     1      39.883 -14.925   1.118  1.00  0.00    -0.181 NA
HETATM   16  C   UNL     1      40.161 -14.404  -0.038  1.00  0.00     0.035 C 
HETATM   17  C   UNL     1      39.035 -13.707  -0.771  1.00  0.00     0.076 C 
HETATM   18  C   UNL     1      41.465 -14.520  -0.794  1.00  0.00     0.076 C 
HETATM   19  C   UNL     1      39.523 -12.360  -1.275  1.00  0.00     0.131 C 
HETATM   20  N   UNL     1      40.769 -12.491  -2.036  1.00  0.00    -0.352 N 
HETATM   21  C   UNL     1      40.928 -11.704  -3.171  1.00  0.00     0.215 C 
HETATM   22  C   UNL     1      41.869 -13.153  -1.331  1.00  0.00     0.131 C 
HETATM   23  C   UNL     1      42.251 -11.785  -3.889  1.00  0.00     0.117 C 
HETATM   24  O   UNL     1      40.037 -10.977  -3.609  1.00  0.00    -0.274 OA
ENDBRANCH  12  15
ENDBRANCH   1  11
BRANCH   9  25
HETATM   25  C   UNL     1      43.696 -19.479   3.634  1.00  0.00     0.026 A 
HETATM   26  C   UNL     1      44.360 -20.403   4.464  1.00  0.00     0.080 A 
HETATM   27  C   UNL     1      44.728 -21.671   3.995  1.00  0.00     0.037 A 
HETATM   28  C   UNL     1      44.474 -22.031   2.674  1.00  0.00     0.003 A 
HETATM   29  C   UNL     1      43.840 -21.130   1.825  1.00  0.00     0.001 A 
HETATM   30  C   UNL     1      43.456 -19.873   2.300  1.00  0.00     0.016 A 
BRANCH  26  31
HETATM   31  O   UNL     1      44.579 -20.110   5.788  1.00  0.00    -0.355 OA
HETATM   32  C   UNL     1      43.822 -20.987   6.623  1.00  0.00     0.210 C 
ENDBRANCH  26  31
ENDBRANCH   9  25
TORSDOF 4
ENDMDL
MODEL 2
REMARK VINA RESULT:      -9.5      1.641      2.022
REMARK  4 active torsions:
REMARK  status: ('A' for Active; 'I' for Inactive)
REMARK       I    between atoms: C_2  and  N_3 
REMARK    1  A    between atoms: N_7  and  N_8 
REMARK       I    between atoms: N_8  and  C_9 
REMARK    2  A    between atoms: C_9  and  C_10 
REMARK    3  A    between atoms: C_18  and  C_19 
REMARK    4  A    between atoms: C_20  and  O_21 
ROOT
HETATM    1  C   UNL     1      41.900 -16.079   1.748  1.00  0.00     0.048 A 
HETATM    2  C   UNL     1      42.327 -15.194   2.764  1.00  0.00     0.009 A 
HETATM    3  C   UNL     1      43.076 -15.774   3.807  1.00  0.00     0.068 A 
HETATM    4  C   UNL     1      43.493 -14.974   4.861  1.00  0.00     0.032 A 
HETATM    5  C   UNL     1      43.219 -13.605   4.908  1.00  0.00     0.002 A 
HETATM    6  C   UNL     1      42.527 -13.010   3.865  1.00  0.00     0.001 A 
HETATM    7  C   UNL     1      42.093 -13.792   2.797  1.00  0.00     0.015 A 
HETATM    8  N   UNL     1      43.427 -17.069   3.828  1.00  0.00    -0.247 NA
HETATM    9  C   UNL     1      43.048 -17.889   2.818  1.00  0.00     0.071 A 
HETATM   10  C   UNL     1      42.273 -17.425   1.769  1.00  0.00     0.050 A 
ENDROOT
BRANCH   1  11
HETATM   11  C   UNL     1      41.075 -15.665   0.586  1.00  0.00     0.272 C 
HETATM   12  N   UNL     1      41.707 -15.724  -0.648  1.00  0.00    -0.243 N 
HETATM   13  H   UNL     1      42.692 -15.951  -0.703  1.00  0.00     0.192 HD
HETATM   14  O   UNL     1      39.931 -15.273   0.791  1.00  0.00    -0.266 OA
BRANCH  12  15
HETATM   15  N   UNL     1      41.042 -15.298  -1.752  1.00  0.00    -0.181 NA
HETATM   16  C   UNL     1      41.339 -14.161  -2.302  1.00  0.00     0.035 C 
HETATM   17  C   UNL     1      40.549 -13.757  -3.529  1.00  0.00     0.076 C 
HETATM   18  C   UNL     1      42.477 -13.240  -1.922  1.00  0.00     0.076 C 
HETATM   19  C   UNL     1      40.091 -12.317  -3.379  1.00  0.00     0.131 C 
HETATM   20  N   UNL     1      41.209 -11.430  -3.045  1.00  0.00    -0.352 N 
HETATM   21  C   UNL     1      41.244 -10.171  -3.633  1.00  0.00     0.215 C 
HETATM   22  C   UNL     1      41.973 -11.804  -1.852  1.00  0.00     0.131 C 
HETATM   23  C   UNL     1      42.351  -9.239  -3.209  1.00  0.00     0.117 C 
HETATM   24  O   UNL     1      40.432  -9.809  -4.484  1.00  0.00    -0.274 OA
ENDBRANCH  12  15
ENDBRANCH   1  11
BRANCH   9  25
HETATM   25  C   UNL     1      43.557 -19.274   2.861  1.00  0.00     0.026 A 
HETATM   26  C   UNL     1      44.322 -19.780   3.929  1.00  0.00     0.080 A 
HETATM   27  C   UNL     1      44.768 -21.108   3.942  1.00  0.00     0.037 A 
HETATM   28  C   UNL     1      44.490 -21.952   2.870  1.00  0.00     0.003 A 
HETATM   29  C   UNL     1      43.755 -21.473   1.791  1.00  0.00     0.001 A 
HETATM   30  C   UNL     1      43.294 -20.153   1.788  1.00  0.00     0.016 A 
BRANCH  26  31
HETATM   31  O   UNL     1      44.572 -18.999   5.032  1.00  0.00    -0.355 OA
HETATM   32  C   UNL     1      44.115 -19.652   6.216  1.00  0.00     0.210 C 
ENDBRANCH  26  31
ENDBRANCH   9  25
TORSDOF 4
ENDMDL
MODEL 3
REMARK VINA RESULT:      -9.5      2.436      9.011
REMARK  4 active torsions:
REMARK  status: ('A' for Active; 'I' for Inactive)
REMARK       I    between atoms: C_2  and  N_3 
REMARK    1  A    between atoms: N_7  and  N_8 
REMARK       I    between atoms: N_8  and  C_9 
REMARK    2  A    between atoms: C_9  and  C_10 
REMARK    3  A    between atoms: C_18  and  C_19 
REMARK    4  A    between atoms: C_20  and  O_21 
ROOT
HETATM    1  C   UNL     1      41.510 -15.073   0.795  1.00  0.00     0.048 A 
HETATM    2  C   UNL     1      40.912 -14.416   1.894  1.00  0.00     0.009 A 
HETATM    3  C   UNL     1      40.665 -13.039   1.725  1.00  0.00     0.068 A 
HETATM    4  C   UNL     1      40.119 -12.320   2.778  1.00  0.00     0.032 A 
HETATM    5  C   UNL     1      39.779 -12.922   3.992  1.00  0.00     0.002 A 
HETATM    6  C   UNL     1      39.969 -14.286   4.156  1.00  0.00     0.001 A 
HETATM    7  C   UNL     1      40.521 -15.030   3.115  1.00  0.00     0.015 A 
HETATM    8  N   UNL     1      40.915 -12.383   0.582  1.00  0.00    -0.247 NA
HETATM    9  C   UNL     1      41.443 -13.043  -0.476  1.00  0.00     0.071 A 
HETATM   10  C   UNL     1      41.763 -14.388  -0.396  1.00  0.00     0.050 A 
ENDROOT
BRANCH   1  11
HETATM   11  C   UNL     1      41.878 -16.510   0.793  1.00  0.00     0.272 C 
HETATM   12  N   UNL     1      43.198 -16.791   1.117  1.00  0.00    -0.243 N 
HETATM   13  H   UNL     1      43.859 -16.036   1.250  1.00  0.00     0.192 HD
HETATM   14  O   UNL     1      41.024 -17.333   0.478  1.00  0.00    -0.266 OA
BRANCH  12  15
HETATM   15  N   UNL     1      43.630 -18.077   1.071  1.00  0.00    -0.181 NA
HETATM   16  C   UNL     1      43.552 -18.836   2.121  1.00  0.00     0.035 C 
HETATM   17  C   UNL     1      44.056 -20.257   1.988  1.00  0.00     0.076 C 
HETATM   18  C   UNL     1      42.898 -18.492   3.441  1.00  0.00     0.076 C 
HETATM   19  C   UNL     1      44.951 -20.585   3.170  1.00  0.00     0.131 C 
HETATM   20  N   UNL     1      44.292 -20.279   4.443  1.00  0.00    -0.352 N 
HETATM   21  C   UNL     1      44.480 -21.158   5.504  1.00  0.00     0.215 C 
HETATM   22  C   UNL     1      43.812 -18.904   4.588  1.00  0.00     0.131 C 
HETATM   23  C   UNL     1      43.869 -20.782   6.830  1.00  0.00     0.117 C 
HETATM   24  O   UNL     1      45.095 -22.219   5.391  1.00  0.00    -0.274 OA
ENDBRANCH  12  15
ENDBRANCH   1  11
BRANCH   9  25
HETATM   25  C   UNL     1      41.596 -12.277  -1.729  1.00  0.00     0.026 A 
HETATM   26  C   UNL     1      42.526 -11.231  -1.881  1.00  0.00     0.080 A 
HETATM   27  C   UNL     1      42.656 -10.542  -3.094  1.00  0.00     0.037 A 
HETATM   28  C   UNL     1      41.833 -10.858  -4.172  1.00  0.00     0.003 A 
HETATM   29  C   UNL     1      40.889 -11.871  -4.042  1.00  0.00     0.001 A 
HETATM   30  C   UNL     1      40.775 -12.571  -2.838  1.00  0.00     0.016 A 
BRANCH  26  31
HETATM   31  O   UNL     1      43.396 -10.924  -0.863  1.00  0.00    -0.355 OA
HETATM   32  C   UNL     1      44.066  -9.693  -1.136  1.00  0.00     0.210 C 
ENDBRANCH  26  31
ENDBRANCH   9  25
TORSDOF 4
ENDMDL
MODEL 4
REMARK VINA RESULT:      -9.4      2.167      2.767
REMARK  4 active torsions:
REMARK  status: ('A' for Active; 'I' for Inactive)
REMARK       I    between atoms: C_2  and  N_3 
REMARK    1  A    between atoms: N_7  and  N_8 
REMARK       I    between atoms: N_8  and  C_9 
REMARK    2  A    between atoms: C_9  and  C_10 
REMARK    3  A    between atoms: C_18  and  C_19 
REMARK    4  A    between atoms: C_20  and  O_21 
ROOT
HETATM    1  C   UNL     1      41.860 -16.334   1.889  1.00  0.00     0.048 A 
HETATM    2  C   UNL     1      41.368 -15.887   3.137  1.00  0.00     0.009 A 
HETATM    3  C   UNL     1      41.506 -16.791   4.209  1.00  0.00     0.068 A 
HETATM    4  C   UNL     1      41.008 -16.437   5.454  1.00  0.00     0.032 A 
HETATM    5  C   UNL     1      40.400 -15.201   5.687  1.00  0.00     0.002 A 
HETATM    6  C   UNL     1      40.302 -14.281   4.655  1.00  0.00     0.001 A 
HETATM    7  C   UNL     1      40.790 -14.614   3.393  1.00  0.00     0.015 A 
HETATM    8  N   UNL     1      42.116 -17.981   4.093  1.00  0.00    -0.247 NA
HETATM    9  C   UNL     1      42.623 -18.368   2.898  1.00  0.00     0.071 A 
HETATM   10  C   UNL     1      42.499 -17.571   1.774  1.00  0.00     0.050 A 
ENDROOT
BRANCH   1  11
HETATM   11  C   UNL     1      41.776 -15.542   0.637  1.00  0.00     0.272 C 
HETATM   12  N   UNL     1      40.909 -16.037  -0.328  1.00  0.00    -0.243 N 
HETATM   13  H   UNL     1      40.452 -16.929  -0.189  1.00  0.00     0.192 HD
HETATM   14  O   UNL     1      42.485 -14.548   0.525  1.00  0.00    -0.266 OA
BRANCH  12  15
HETATM   15  N   UNL     1      40.827 -15.407  -1.527  1.00  0.00    -0.181 NA
HETATM   16  C   UNL     1      40.058 -14.372  -1.676  1.00  0.00     0.035 C 
HETATM   17  C   UNL     1      40.022 -13.727  -3.045  1.00  0.00     0.076 C 
HETATM   18  C   UNL     1      39.278 -13.659  -0.594  1.00  0.00     0.076 C 
HETATM   19  C   UNL     1      38.577 -13.486  -3.448  1.00  0.00     0.131 C 
HETATM   20  N   UNL     1      37.843 -12.764  -2.405  1.00  0.00    -0.352 N 
HETATM   21  C   UNL     1      36.931 -11.791  -2.801  1.00  0.00     0.215 C 
HETATM   22  C   UNL     1      37.860 -13.386  -1.079  1.00  0.00     0.131 C 
HETATM   23  C   UNL     1      36.120 -11.123  -1.720  1.00  0.00     0.117 C 
HETATM   24  O   UNL     1      36.786 -11.451  -3.975  1.00  0.00    -0.274 OA
ENDBRANCH  12  15
ENDBRANCH   1  11
BRANCH   9  25
HETATM   25  C   UNL     1      43.366 -19.644   2.874  1.00  0.00     0.026 A 
HETATM   26  C   UNL     1      44.305 -20.005   3.859  1.00  0.00     0.080 A 
HETATM   27  C   UNL     1      44.974 -21.236   3.812  1.00  0.00     0.037 A 
HETATM   28  C   UNL     1      44.745 -22.118   2.760  1.00  0.00     0.003 A 
HETATM   29  C   UNL     1      43.840 -21.777   1.761  1.00  0.00     0.001 A 
HETATM   30  C   UNL     1      43.159 -20.558   1.819  1.00  0.00     0.016 A 
BRANCH  26  31
HETATM   31  O   UNL     1      44.519 -19.189   4.944  1.00  0.00    -0.355 OA
HETATM   32  C   UNL     1      44.231 -19.889   6.155  1.00  0.00     0.210 C 
ENDBRANCH  26  31
ENDBRANCH   9  25
TORSDOF 4
ENDMDL
MODEL 5
REMARK VINA RESULT:      -9.4      2.251      8.123
REMARK  4 active torsions:
REMARK  status: ('A' for Active; 'I' for Inactive)
REMARK       I    between atoms: C_2  and  N_3 
REMARK    1  A    between atoms: N_7  and  N_8 
REMARK       I    between atoms: N_8  and  C_9 
REMARK    2  A    between atoms: C_9  and  C_10 
REMARK    3  A    between atoms: C_18  and  C_19 
REMARK    4  A    between atoms: C_20  and  O_21 
ROOT
HETATM    1  C   UNL     1      41.302 -14.874   3.307  1.00  0.00     0.048 A 
HETATM    2  C   UNL     1      40.491 -13.859   3.864  1.00  0.00     0.009 A 
HETATM    3  C   UNL     1      40.104 -12.831   2.982  1.00  0.00     0.068 A 
HETATM    4  C   UNL     1      39.342 -11.778   3.469  1.00  0.00     0.032 A 
HETATM    5  C   UNL     1      38.921 -11.720   4.800  1.00  0.00     0.002 A 
HETATM    6  C   UNL     1      39.250 -12.750   5.667  1.00  0.00     0.001 A 
HETATM    7  C   UNL     1      40.019 -13.816   5.204  1.00  0.00     0.015 A 
HETATM    8  N   UNL     1      40.422 -12.822   1.678  1.00  0.00    -0.247 NA
HETATM    9  C   UNL     1      41.160 -13.831   1.155  1.00  0.00     0.071 A 
HETATM   10  C   UNL     1      41.625 -14.866   1.948  1.00  0.00     0.050 A 
ENDROOT
BRANCH   1  11
HETATM   11  C   UNL     1      41.837 -16.021   4.081  1.00  0.00     0.272 C 
HETATM   12  N   UNL     1      43.193 -15.967   4.371  1.00  0.00    -0.243 N 
HETATM   13  H   UNL     1      43.765 -15.227   3.986  1.00  0.00     0.192 HD
HETATM   14  O   UNL     1      41.073 -16.935   4.376  1.00  0.00    -0.266 OA
BRANCH  12  15
HETATM   15  N   UNL     1      43.772 -17.012   5.018  1.00  0.00    -0.181 NA
HETATM   16  C   UNL     1      44.144 -18.068   4.362  1.00  0.00     0.035 C 
HETATM   17  C   UNL     1      44.780 -19.188   5.157  1.00  0.00     0.076 C 
HETATM   18  C   UNL     1      44.122 -18.257   2.862  1.00  0.00     0.076 C 
HETATM   19  C   UNL     1      44.145 -20.509   4.758  1.00  0.00     0.131 C 
HETATM   20  N   UNL     1      44.161 -20.696   3.305  1.00  0.00    -0.352 N 
HETATM   21  C   UNL     1      44.425 -21.969   2.812  1.00  0.00     0.215 C 
HETATM   22  C   UNL     1      43.537 -19.624   2.527  1.00  0.00     0.131 C 
HETATM   23  C   UNL     1      44.349 -22.162   1.318  1.00  0.00     0.117 C 
HETATM   24  O   UNL     1      44.733 -22.915   3.537  1.00  0.00    -0.274 OA
ENDBRANCH  12  15
ENDBRANCH   1  11
BRANCH   9  25
HETATM   25  C   UNL     1      41.382 -13.803  -0.304  1.00  0.00     0.026 A 
HETATM   26  C   UNL     1      42.113 -12.788  -0.951  1.00  0.00     0.080 A 
HETATM   27  C   UNL     1      42.321 -12.809  -2.337  1.00  0.00     0.037 A 
HETATM   28  C   UNL     1      41.771 -13.826  -3.113  1.00  0.00     0.003 A 
HETATM   29  C   UNL     1      41.025 -14.830  -2.503  1.00  0.00     0.001 A 
HETATM   30  C   UNL     1      40.836 -14.818  -1.118  1.00  0.00     0.016 A 
BRANCH  26  31
HETATM   31  O   UNL     1      42.719 -11.797  -0.217  1.00  0.00    -0.355 OA
HETATM   32  C   UNL     1      43.251 -10.793  -1.083  1.00  0.00     0.210 C 
ENDBRANCH  26  31
ENDBRANCH   9  25
TORSDOF 4
ENDMDL
MODEL 6
REMARK VINA RESULT:      -9.3      1.518      2.255
REMARK  4 active torsions:
REMARK  status: ('A' for Active; 'I' for Inactive)
REMARK       I    between atoms: C_2  and  N_3 
REMARK    1  A    between atoms: N_7  and  N_8 
REMARK       I    between atoms: N_8  and  C_9 
REMARK    2  A    between atoms: C_9  and  C_10 
REMARK    3  A    between atoms: C_18  and  C_19 
REMARK    4  A    between atoms: C_20  and  O_21 
ROOT
HETATM    1  C   UNL     1      42.110 -16.798   3.061  1.00  0.00     0.048 A 
HETATM    2  C   UNL     1      42.526 -15.692   3.837  1.00  0.00     0.009 A 
HETATM    3  C   UNL     1      43.275 -15.999   4.990  1.00  0.00     0.068 A 
HETATM    4  C   UNL     1      43.681 -14.966   5.823  1.00  0.00     0.032 A 
HETATM    5  C   UNL     1      43.396 -13.629   5.540  1.00  0.00     0.002 A 
HETATM    6  C   UNL     1      42.703 -13.306   4.383  1.00  0.00     0.001 A 
HETATM    7  C   UNL     1      42.280 -14.325   3.532  1.00  0.00     0.015 A 
HETATM    8  N   UNL     1      43.636 -17.248   5.320  1.00  0.00    -0.247 NA
HETATM    9  C   UNL     1      43.268 -18.289   4.535  1.00  0.00     0.071 A 
HETATM   10  C   UNL     1      42.493 -18.097   3.404  1.00  0.00     0.050 A 
ENDROOT
BRANCH   1  11
HETATM   11  C   UNL     1      41.286 -16.681   1.832  1.00  0.00     0.272 C 
HETATM   12  N   UNL     1      41.989 -16.426   0.662  1.00  0.00    -0.243 N 
HETATM   13  H   UNL     1      42.984 -16.247   0.698  1.00  0.00     0.192 HD
HETATM   14  O   UNL     1      40.068 -16.780   1.933  1.00  0.00    -0.266 OA
BRANCH  12  15
HETATM   15  N   UNL     1      41.301 -16.239  -0.493  1.00  0.00    -0.181 NA
HETATM   16  C   UNL     1      41.099 -15.042  -0.952  1.00  0.00     0.035 C 
HETATM   17  C   UNL     1      40.322 -14.919  -2.246  1.00  0.00     0.076 C 
HETATM   18  C   UNL     1      41.660 -13.752  -0.397  1.00  0.00     0.076 C 
HETATM   19  C   UNL     1      39.252 -13.853  -2.088  1.00  0.00     0.131 C 
HETATM   20  N   UNL     1      39.814 -12.597  -1.583  1.00  0.00    -0.352 N 
HETATM   21  C   UNL     1      39.327 -11.405  -2.106  1.00  0.00     0.215 C 
HETATM   22  C   UNL     1      40.557 -12.703  -0.325  1.00  0.00     0.131 C 
HETATM   23  C   UNL     1      39.852 -10.123  -1.511  1.00  0.00     0.117 C 
HETATM   24  O   UNL     1      38.517 -11.364  -3.032  1.00  0.00    -0.274 OA
ENDBRANCH  12  15
ENDBRANCH   1  11
BRANCH   9  25
HETATM   25  C   UNL     1      43.788 -19.619   4.909  1.00  0.00     0.026 A 
HETATM   26  C   UNL     1      44.398 -20.494   3.989  1.00  0.00     0.080 A 
HETATM   27  C   UNL     1      44.898 -21.740   4.389  1.00  0.00     0.037 A 
HETATM   28  C   UNL     1      44.767 -22.157   5.711  1.00  0.00     0.003 A 
HETATM   29  C   UNL     1      44.148 -21.323   6.637  1.00  0.00     0.001 A 
HETATM   30  C   UNL     1      43.667 -20.072   6.241  1.00  0.00     0.016 A 
BRANCH  26  31
HETATM   31  O   UNL     1      44.598 -20.099   2.688  1.00  0.00    -0.355 OA
HETATM   32  C   UNL     1      43.974 -21.016   1.790  1.00  0.00     0.210 C 
ENDBRANCH  26  31
ENDBRANCH   9  25
TORSDOF 4
ENDMDL
MODEL 7
REMARK VINA RESULT:      -9.2      1.332      1.459
REMARK  4 active torsions:
REMARK  status: ('A' for Active; 'I' for Inactive)
REMARK       I    between atoms: C_2  and  N_3 
REMARK    1  A    between atoms: N_7  and  N_8 
REMARK       I    between atoms: N_8  and  C_9 
REMARK    2  A    between atoms: C_9  and  C_10 
REMARK    3  A    between atoms: C_18  and  C_19 
REMARK    4  A    between atoms: C_20  and  O_21 
ROOT
HETATM    1  C   UNL     1      41.747 -16.046   4.434  1.00  0.00     0.048 A 
HETATM    2  C   UNL     1      42.621 -15.364   5.311  1.00  0.00     0.009 A 
HETATM    3  C   UNL     1      43.762 -16.083   5.720  1.00  0.00     0.068 A 
HETATM    4  C   UNL     1      44.643 -15.493   6.614  1.00  0.00     0.032 A 
HETATM    5  C   UNL     1      44.452 -14.197   7.100  1.00  0.00     0.002 A 
HETATM    6  C   UNL     1      43.361 -13.458   6.668  1.00  0.00     0.001 A 
HETATM    7  C   UNL     1      42.458 -14.030   5.774  1.00  0.00     0.015 A 
HETATM    8  N   UNL     1      44.054 -17.314   5.273  1.00  0.00    -0.247 NA
HETATM    9  C   UNL     1      43.227 -17.929   4.394  1.00  0.00     0.071 A 
HETATM   10  C   UNL     1      42.058 -17.324   3.965  1.00  0.00     0.050 A 
ENDROOT
BRANCH   1  11
HETATM   11  C   UNL     1      40.479 -15.470   3.920  1.00  0.00     0.272 C 
HETATM   12  N   UNL     1      40.060 -15.951   2.688  1.00  0.00    -0.243 N 
HETATM   13  H   UNL     1      40.650 -16.583   2.162  1.00  0.00     0.192 HD
HETATM   14  O   UNL     1      39.918 -14.604   4.584  1.00  0.00    -0.266 OA
BRANCH  12  15
HETATM   15  N   UNL     1      38.945 -15.425   2.118  1.00  0.00    -0.181 NA
HETATM   16  C   UNL     1      39.043 -14.538   1.177  1.00  0.00     0.035 C 
HETATM   17  C   UNL     1      37.752 -14.000   0.596  1.00  0.00     0.076 C 
HETATM   18  C   UNL     1      40.313 -14.063   0.507  1.00  0.00     0.076 C 
HETATM   19  C   UNL     1      37.827 -12.485   0.524  1.00  0.00     0.131 C 
HETATM   20  N   UNL     1      39.046 -12.039  -0.158  1.00  0.00    -0.352 N 
HETATM   21  C   UNL     1      38.954 -10.946  -1.012  1.00  0.00     0.215 C 
HETATM   22  C   UNL     1      40.300 -12.543   0.405  1.00  0.00     0.131 C 
HETATM   23  C   UNL     1      40.233 -10.446  -1.635  1.00  0.00     0.117 C 
HETATM   24  O   UNL     1      37.885 -10.401  -1.287  1.00  0.00    -0.274 OA
ENDBRANCH  12  15
ENDBRANCH   1  11
BRANCH   9  25
HETATM   25  C   UNL     1      43.667 -19.238   3.872  1.00  0.00     0.026 A 
HETATM   26  C   UNL     1      44.289 -20.215   4.673  1.00  0.00     0.080 A 
HETATM   27  C   UNL     1      44.672 -21.455   4.144  1.00  0.00     0.037 A 
HETATM   28  C   UNL     1      44.476 -21.732   2.793  1.00  0.00     0.003 A 
HETATM   29  C   UNL     1      43.885 -20.776   1.974  1.00  0.00     0.001 A 
HETATM   30  C   UNL     1      43.485 -19.547   2.507  1.00  0.00     0.016 A 
BRANCH  26  31
HETATM   31  O   UNL     1      44.450 -20.005   6.021  1.00  0.00    -0.355 OA
HETATM   32  C   UNL     1      43.830 -21.056   6.764  1.00  0.00     0.210 C 
ENDBRANCH  26  31
ENDBRANCH   9  25
TORSDOF 4
ENDMDL
MODEL 8
REMARK VINA RESULT:      -9.1      2.518      8.405
REMARK  4 active torsions:
REMARK  status: ('A' for Active; 'I' for Inactive)
REMARK       I    between atoms: C_2  and  N_3 
REMARK    1  A    between atoms: N_7  and  N_8 
REMARK       I    between atoms: N_8  and  C_9 
REMARK    2  A    between atoms: C_9  and  C_10 
REMARK    3  A    between atoms: C_18  and  C_19 
REMARK    4  A    between atoms: C_20  and  O_21 
ROOT
HETATM    1  C   UNL     1      41.946 -13.272   2.722  1.00  0.00     0.048 A 
HETATM    2  C   UNL     1      40.802 -12.627   3.246  1.00  0.00     0.009 A 
HETATM    3  C   UNL     1      40.087 -11.817   2.342  1.00  0.00     0.068 A 
HETATM    4  C   UNL     1      38.978 -11.120   2.798  1.00  0.00     0.032 A 
HETATM    5  C   UNL     1      38.529 -11.217   4.117  1.00  0.00     0.002 A 
HETATM    6  C   UNL     1      39.192 -12.049   5.005  1.00  0.00     0.001 A 
HETATM    7  C   UNL     1      40.312 -12.757   4.575  1.00  0.00     0.015 A 
HETATM    8  N   UNL     1      40.414 -11.697   1.047  1.00  0.00    -0.247 NA
HETATM    9  C   UNL     1      41.486 -12.363   0.554  1.00  0.00     0.071 A 
HETATM   10  C   UNL     1      42.279 -13.150   1.371  1.00  0.00     0.050 A 
ENDROOT
BRANCH   1  11
HETATM   11  C   UNL     1      42.846 -14.138   3.524  1.00  0.00     0.272 C 
HETATM   12  N   UNL     1      42.392 -15.432   3.742  1.00  0.00    -0.243 N 
HETATM   13  H   UNL     1      41.466 -15.703   3.439  1.00  0.00     0.192 HD
HETATM   14  O   UNL     1      43.886 -13.656   3.960  1.00  0.00    -0.266 OA
BRANCH  12  15
HETATM   15  N   UNL     1      43.126 -16.265   4.523  1.00  0.00    -0.181 NA
HETATM   16  C   UNL     1      43.630 -17.355   4.031  1.00  0.00     0.035 C 
HETATM   17  C   UNL     1      44.435 -18.230   4.969  1.00  0.00     0.076 C 
HETATM   18  C   UNL     1      43.604 -17.794   2.585  1.00  0.00     0.076 C 
HETATM   19  C   UNL     1      43.985 -19.673   4.818  1.00  0.00     0.131 C 
HETATM   20  N   UNL     1      43.997 -20.096   3.415  1.00  0.00    -0.352 N 
HETATM   21  C   UNL     1      44.428 -21.385   3.124  1.00  0.00     0.215 C 
HETATM   22  C   UNL     1      43.211 -19.263   2.502  1.00  0.00     0.131 C 
HETATM   23  C   UNL     1      44.348 -21.833   1.686  1.00  0.00     0.117 C 
HETATM   24  O   UNL     1      44.881 -22.146   3.978  1.00  0.00    -0.274 OA
ENDBRANCH  12  15
ENDBRANCH   1  11
BRANCH   9  25
HETATM   25  C   UNL     1      41.722 -12.259  -0.900  1.00  0.00     0.026 A 
HETATM   26  C   UNL     1      41.185 -13.168  -1.832  1.00  0.00     0.080 A 
HETATM   27  C   UNL     1      41.415 -13.022  -3.207  1.00  0.00     0.037 A 
HETATM   28  C   UNL     1      42.216 -11.985  -3.678  1.00  0.00     0.003 A 
HETATM   29  C   UNL     1      42.778 -11.086  -2.778  1.00  0.00     0.001 A 
HETATM   30  C   UNL     1      42.532 -11.221  -1.408  1.00  0.00     0.016 A 
BRANCH  26  31
HETATM   31  O   UNL     1      40.344 -14.171  -1.416  1.00  0.00    -0.355 OA
HETATM   32  C   UNL     1      40.955 -15.446  -1.616  1.00  0.00     0.210 C 
ENDBRANCH  26  31
ENDBRANCH   9  25
TORSDOF 4
ENDMDL
MODEL 9
REMARK VINA RESULT:      -8.9      4.940      8.593
REMARK  4 active torsions:
REMARK  status: ('A' for Active; 'I' for Inactive)
REMARK       I    between atoms: C_2  and  N_3 
REMARK    1  A    between atoms: N_7  and  N_8 
REMARK       I    between atoms: N_8  and  C_9 
REMARK    2  A    between atoms: C_9  and  C_10 
REMARK    3  A    between atoms: C_18  and  C_19 
REMARK    4  A    between atoms: C_20  and  O_21 
ROOT
HETATM    1  C   UNL     1      40.884 -13.186   5.285  1.00  0.00     0.048 A 
HETATM    2  C   UNL     1      41.058 -12.699   3.970  1.00  0.00     0.009 A 
HETATM    3  C   UNL     1      41.977 -13.407   3.171  1.00  0.00     0.068 A 
HETATM    4  C   UNL     1      42.231 -12.962   1.882  1.00  0.00     0.032 A 
HETATM    5  C   UNL     1      41.582 -11.850   1.340  1.00  0.00     0.002 A 
HETATM    6  C   UNL     1      40.637 -11.173   2.095  1.00  0.00     0.001 A 
HETATM    7  C   UNL     1      40.368 -11.597   3.394  1.00  0.00     0.015 A 
HETATM    8  N   UNL     1      42.615 -14.512   3.588  1.00  0.00    -0.247 NA
HETATM    9  C   UNL     1      42.395 -14.989   4.837  1.00  0.00     0.071 A 
HETATM   10  C   UNL     1      41.544 -14.340   5.714  1.00  0.00     0.050 A 
ENDROOT
BRANCH   1  11
HETATM   11  C   UNL     1      39.986 -12.557   6.286  1.00  0.00     0.272 C 
HETATM   12  N   UNL     1      40.615 -11.777   7.247  1.00  0.00    -0.243 N 
HETATM   13  H   UNL     1      41.625 -11.737   7.286  1.00  0.00     0.192 HD
HETATM   14  O   UNL     1      38.784 -12.790   6.222  1.00  0.00    -0.266 OA
BRANCH  12  15
HETATM   15  N   UNL     1      39.870 -11.222   8.238  1.00  0.00    -0.181 NA
HETATM   16  C   UNL     1      40.444 -10.665   9.260  1.00  0.00     0.035 C 
HETATM   17  C   UNL     1      39.542 -10.072  10.321  1.00  0.00     0.076 C 
HETATM   18  C   UNL     1      41.926 -10.436   9.454  1.00  0.00     0.076 C 
HETATM   19  C   UNL     1      40.015 -10.525  11.691  1.00  0.00     0.131 C 
HETATM   20  N   UNL     1      41.445 -10.265  11.879  1.00  0.00    -0.352 N 
HETATM   21  C   UNL     1      41.872  -9.822  13.126  1.00  0.00     0.215 C 
HETATM   22  C   UNL     1      42.327 -10.846  10.865  1.00  0.00     0.131 C 
HETATM   23  C   UNL     1      43.356  -9.647  13.328  1.00  0.00     0.117 C 
HETATM   24  O   UNL     1      41.093  -9.555  14.042  1.00  0.00    -0.274 OA
ENDBRANCH  12  15
ENDBRANCH   1  11
BRANCH   9  25
HETATM   25  C   UNL     1      43.055 -16.262   5.187  1.00  0.00     0.026 A 
HETATM   26  C   UNL     1      42.746 -17.486   4.562  1.00  0.00     0.080 A 
HETATM   27  C   UNL     1      43.411 -18.670   4.908  1.00  0.00     0.037 A 
HETATM   28  C   UNL     1      44.376 -18.665   5.912  1.00  0.00     0.003 A 
HETATM   29  C   UNL     1      44.686 -17.475   6.562  1.00  0.00     0.001 A 
HETATM   30  C   UNL     1      44.035 -16.291   6.202  1.00  0.00     0.016 A 
BRANCH  26  31
HETATM   31  O   UNL     1      41.841 -17.526   3.529  1.00  0.00    -0.355 OA
HETATM   32  C   UNL     1      42.441 -18.099   2.366  1.00  0.00     0.210 C 
ENDBRANCH  26  31
ENDBRANCH   9  25
TORSDOF 4
ENDMDL
MODEL 10
REMARK VINA RESULT:      -8.7      2.385      8.613
REMARK  4 active torsions:
REMARK  status: ('A' for Active; 'I' for Inactive)
REMARK       I    between atoms: C_2  and  N_3 
REMARK    1  A    between atoms: N_7  and  N_8 
REMARK       I    between atoms: N_8  and  C_9 
REMARK    2  A    between atoms: C_9  and  C_10 
REMARK    3  A    between atoms: C_18  and  C_19 
REMARK    4  A    between atoms: C_20  and  O_21 
ROOT
HETATM    1  C   UNL     1      41.560 -14.870   0.943  1.00  0.00     0.048 A 
HETATM    2  C   UNL     1      41.505 -13.967  -0.142  1.00  0.00     0.009 A 
HETATM    3  C   UNL     1      41.122 -12.649   0.176  1.00  0.00     0.068 A 
HETATM    4  C   UNL     1      41.005 -11.717  -0.845  1.00  0.00     0.032 A 
HETATM    5  C   UNL     1      41.283 -12.036  -2.177  1.00  0.00     0.002 A 
HETATM    6  C   UNL     1      41.709 -13.315  -2.499  1.00  0.00     0.001 A 
HETATM    7  C   UNL     1      41.830 -14.271  -1.493  1.00  0.00     0.015 A 
HETATM    8  N   UNL     1      40.879 -12.237   1.430  1.00  0.00    -0.247 NA
HETATM    9  C   UNL     1      40.986 -13.108   2.461  1.00  0.00     0.071 A 
HETATM   10  C   UNL     1      41.313 -14.436   2.248  1.00  0.00     0.050 A 
ENDROOT
BRANCH   1  11
HETATM   11  C   UNL     1      41.909 -16.306   0.805  1.00  0.00     0.272 C 
HETATM   12  N   UNL     1      43.177 -16.659   1.248  1.00  0.00    -0.243 N 
HETATM   13  H   UNL     1      43.825 -15.944   1.552  1.00  0.00     0.192 HD
HETATM   14  O   UNL     1      41.091 -17.060   0.290  1.00  0.00    -0.266 OA
BRANCH  12  15
HETATM   15  N   UNL     1      43.597 -17.940   1.094  1.00  0.00    -0.181 NA
HETATM   16  C   UNL     1      43.549 -18.773   2.088  1.00  0.00     0.035 C 
HETATM   17  C   UNL     1      44.038 -20.183   1.834  1.00  0.00     0.076 C 
HETATM   18  C   UNL     1      42.945 -18.523   3.451  1.00  0.00     0.076 C 
HETATM   19  C   UNL     1      44.971 -20.601   2.957  1.00  0.00     0.131 C 
HETATM   20  N   UNL     1      44.360 -20.385   4.271  1.00  0.00    -0.352 N 
HETATM   21  C   UNL     1      44.578 -21.340   5.258  1.00  0.00     0.215 C 
HETATM   22  C   UNL     1      43.896 -19.021   4.532  1.00  0.00     0.131 C 
HETATM   23  C   UNL     1      44.017 -21.058   6.629  1.00  0.00     0.117 C 
HETATM   24  O   UNL     1      45.180 -22.393   5.047  1.00  0.00    -0.274 OA
ENDBRANCH  12  15
ENDBRANCH   1  11
BRANCH   9  25
HETATM   25  C   UNL     1      40.801 -12.557   3.818  1.00  0.00     0.026 A 
HETATM   26  C   UNL     1      41.829 -12.523   4.781  1.00  0.00     0.080 A 
HETATM   27  C   UNL     1      41.619 -11.971   6.051  1.00  0.00     0.037 A 
HETATM   28  C   UNL     1      40.368 -11.473   6.402  1.00  0.00     0.003 A 
HETATM   29  C   UNL     1      39.328 -11.514   5.479  1.00  0.00     0.001 A 
HETATM   30  C   UNL     1      39.543 -12.047   4.205  1.00  0.00     0.016 A 
BRANCH  26  31
HETATM   31  O   UNL     1      43.094 -12.952   4.458  1.00  0.00    -0.355 OA
HETATM   32  C   UNL     1      43.527 -13.956   5.376  1.00  0.00     0.210 C 
ENDBRANCH  26  31
ENDBRANCH   9  25
TORSDOF 4
ENDMDL
