MODEL 1
REMARK VINA RESULT:      -8.5      0.000      0.000
REMARK  8 active torsions:
REMARK  status: ('A' for Active; 'I' for Inactive)
REMARK    1  A    between atoms: C_2  and  C_3 
REMARK    2  A    between atoms: C_3  and  N_4 
REMARK    3  A    between atoms: N_7  and  C_8 
REMARK    4  A    between atoms: C_8  and  C_9 
REMARK       I    between atoms: C_9  and  N_10 
REMARK    5  A    between atoms: N_10  and  C_11 
REMARK    6  A    between atoms: C_24  and  C_25 
REMARK       I    between atoms: C_25  and  N_26 
REMARK    7  A    between atoms: N_26  and  C_27 
REMARK    8  A    between atoms: C_27  and  C_28 
ROOT
HETATM    1  N   UNL     1      43.796 -18.437   3.311  1.00  0.00    -0.262 N 
HETATM    2  C   UNL     1      43.876 -17.413   2.379  1.00  0.00     0.332 C 
HETATM    3  O   UNL     1      44.602 -17.476   1.385  1.00  0.00    -0.246 OA
HETATM    4  N   UNL     1      43.094 -16.287   2.613  1.00  0.00    -0.290 N 
HETATM    5  C   UNL     1      42.389 -16.097   3.835  1.00  0.00     0.056 A 
HETATM    6  C   UNL     1      42.410 -17.101   4.800  1.00  0.00     0.059 A 
HETATM    7  C   UNL     1      43.133 -18.353   4.527  1.00  0.00     0.264 C 
HETATM    8  O   UNL     1      43.123 -19.243   5.373  1.00  0.00    -0.267 OA
HETATM    9  C   UNL     1      41.696 -14.908   4.126  1.00  0.00     0.048 A 
HETATM   10  C   UNL     1      41.045 -14.722   5.358  1.00  0.00     0.034 A 
HETATM   11  C   UNL     1      41.067 -15.756   6.300  1.00  0.00     0.018 A 
HETATM   12  C   UNL     1      41.741 -16.943   6.022  1.00  0.00     0.020 A 
ENDROOT
BRANCH  10  13
HETATM   13  C   UNL     1      40.406 -13.427   5.747  1.00  0.00     0.252 C 
HETATM   14  N   UNL     1      41.211 -12.465   6.316  1.00  0.00    -0.353 N 
HETATM   15  H   UNL     1      42.216 -12.534   6.291  1.00  0.00     0.163 HD
HETATM   16  O   UNL     1      39.203 -13.272   5.569  1.00  0.00    -0.268 OA
BRANCH  14  17
HETATM   17  C   UNL     1      40.671 -11.224   6.822  1.00  0.00     0.161 C 
BRANCH  17  18
HETATM   18  C   UNL     1      41.126 -10.973   8.236  1.00  0.00    -0.038 A 
HETATM   19  C   UNL     1      42.491 -10.824   8.529  1.00  0.00     0.048 A 
HETATM   20  C   UNL     1      42.851 -10.603   9.841  1.00  0.00     0.105 A 
HETATM   21  C   UNL     1      41.916 -10.518  10.847  1.00  0.00     0.105 A 
HETATM   22  O   UNL     1      44.122 -10.451  10.300  1.00  0.00    -0.323 OA
HETATM   23  O   UNL     1      42.484 -10.304  12.064  1.00  0.00    -0.323 OA
HETATM   24  C   UNL     1      40.568 -10.640  10.596  1.00  0.00     0.040 A 
HETATM   25  C   UNL     1      43.882 -10.281  11.712  1.00  0.00     0.352 A 
HETATM   26  C   UNL     1      40.172 -10.865   9.274  1.00  0.00     0.012 A 
ENDBRANCH  17  18
ENDBRANCH  14  17
ENDBRANCH  10  13
BRANCH   4  27
HETATM   27  C   UNL     1      42.884 -15.369   1.485  1.00  0.00     0.237 C 
BRANCH  27  28
HETATM   28  C   UNL     1      41.649 -15.614   0.617  1.00  0.00     0.240 C 
HETATM   29  N   UNL     1      41.499 -14.736  -0.439  1.00  0.00    -0.326 N 
HETATM   30  H   UNL     1      42.229 -14.040  -0.555  1.00  0.00     0.169 HD
HETATM   31  O   UNL     1      40.930 -16.581   0.864  1.00  0.00    -0.271 OA
BRANCH  29  32
HETATM   32  C   UNL     1      40.451 -14.722  -1.386  1.00  0.00     0.034 A 
HETATM   33  C   UNL     1      40.502 -15.386  -2.616  1.00  0.00     0.031 A 
HETATM   34  C   UNL     1      39.425 -15.330  -3.507  1.00  0.00     0.021 A 
HETATM   35  C   UNL     1      38.285 -14.609  -3.171  1.00  0.00     0.011 A 
HETATM   36 BR   UNL     1      36.832 -14.533  -4.375  1.00  0.00    -0.051 Br
HETATM   37  C   UNL     1      38.214 -13.944  -1.949  1.00  0.00     0.021 A 
HETATM   38  C   UNL     1      39.295 -14.002  -1.061  1.00  0.00     0.031 A 
ENDBRANCH  29  32
ENDBRANCH  27  28
ENDBRANCH   4  27
BRANCH   1  39
HETATM   39  C   UNL     1      44.455 -19.695   2.994  1.00  0.00     0.163 C 
BRANCH  39  40
HETATM   40  C   UNL     1      43.619 -20.565   2.084  1.00  0.00    -0.017 C 
HETATM   41  C   UNL     1      43.885 -21.796   1.620  1.00  0.00     0.008 C 
ENDBRANCH  39  40
ENDBRANCH   1  39
TORSDOF 8
ENDMDL
MODEL 2
REMARK VINA RESULT:      -8.5      3.644      6.044
REMARK  8 active torsions:
REMARK  status: ('A' for Active; 'I' for Inactive)
REMARK    1  A    between atoms: C_2  and  C_3 
REMARK    2  A    between atoms: C_3  and  N_4 
REMARK    3  A    between atoms: N_7  and  C_8 
REMARK    4  A    between atoms: C_8  and  C_9 
REMARK       I    between atoms: C_9  and  N_10 
REMARK    5  A    between atoms: N_10  and  C_11 
REMARK    6  A    between atoms: C_24  and  C_25 
REMARK       I    between atoms: C_25  and  N_26 
REMARK    7  A    between atoms: N_26  and  C_27 
REMARK    8  A    between atoms: C_27  and  C_28 
ROOT
HETATM    1  N   UNL     1      44.358 -19.353   4.572  1.00  0.00    -0.262 N 
HETATM    2  C   UNL     1      43.858 -19.189   3.288  1.00  0.00     0.332 C 
HETATM    3  O   UNL     1      44.299 -19.813   2.320  1.00  0.00    -0.246 OA
HETATM    4  N   UNL     1      42.822 -18.275   3.127  1.00  0.00    -0.290 N 
HETATM    5  C   UNL     1      42.414 -17.405   4.177  1.00  0.00     0.056 A 
HETATM    6  C   UNL     1      43.006 -17.522   5.432  1.00  0.00     0.059 A 
HETATM    7  C   UNL     1      44.020 -18.562   5.661  1.00  0.00     0.264 C 
HETATM    8  O   UNL     1      44.518 -18.674   6.778  1.00  0.00    -0.267 OA
HETATM    9  C   UNL     1      41.451 -16.396   3.986  1.00  0.00     0.048 A 
HETATM   10  C   UNL     1      41.096 -15.517   5.023  1.00  0.00     0.034 A 
HETATM   11  C   UNL     1      41.693 -15.670   6.279  1.00  0.00     0.018 A 
HETATM   12  C   UNL     1      42.640 -16.671   6.486  1.00  0.00     0.020 A 
ENDROOT
BRANCH  10  13
HETATM   13  C   UNL     1      40.170 -14.359   4.820  1.00  0.00     0.252 C 
HETATM   14  N   UNL     1      39.899 -13.981   3.524  1.00  0.00    -0.353 N 
HETATM   15  H   UNL     1      40.138 -14.568   2.740  1.00  0.00     0.163 HD
HETATM   16  O   UNL     1      39.706 -13.780   5.796  1.00  0.00    -0.268 OA
BRANCH  14  17
HETATM   17  C   UNL     1      39.104 -12.812   3.223  1.00  0.00     0.161 C 
BRANCH  17  18
HETATM   18  C   UNL     1      38.700 -12.791   1.772  1.00  0.00    -0.038 A 
HETATM   19  C   UNL     1      38.814 -11.612   1.018  1.00  0.00     0.048 A 
HETATM   20  C   UNL     1      38.423 -11.650  -0.303  1.00  0.00     0.105 A 
HETATM   21  C   UNL     1      37.945 -12.799  -0.888  1.00  0.00     0.105 A 
HETATM   22  O   UNL     1      38.454 -10.600  -1.169  1.00  0.00    -0.323 OA
HETATM   23  O   UNL     1      37.611 -12.615  -2.193  1.00  0.00    -0.323 OA
HETATM   24  C   UNL     1      37.837 -13.978  -0.186  1.00  0.00     0.040 A 
HETATM   25  C   UNL     1      37.919 -11.216  -2.359  1.00  0.00     0.352 A 
HETATM   26  C   UNL     1      38.225 -13.972   1.157  1.00  0.00     0.012 A 
ENDBRANCH  17  18
ENDBRANCH  14  17
ENDBRANCH  10  13
BRANCH   4  27
HETATM   27  C   UNL     1      42.047 -18.349   1.881  1.00  0.00     0.237 C 
BRANCH  27  28
HETATM   28  C   UNL     1      42.359 -17.302   0.812  1.00  0.00     0.240 C 
HETATM   29  N   UNL     1      41.268 -16.573   0.379  1.00  0.00    -0.326 N 
HETATM   30  H   UNL     1      40.381 -16.778   0.828  1.00  0.00     0.169 HD
HETATM   31  O   UNL     1      43.527 -17.134   0.465  1.00  0.00    -0.271 OA
BRANCH  29  32
HETATM   32  C   UNL     1      41.264 -15.558  -0.603  1.00  0.00     0.034 A 
HETATM   33  C   UNL     1      40.937 -15.772  -1.946  1.00  0.00     0.031 A 
HETATM   34  C   UNL     1      40.953 -14.717  -2.866  1.00  0.00     0.021 A 
HETATM   35  C   UNL     1      41.294 -13.437  -2.445  1.00  0.00     0.011 A 
HETATM   36 BR   UNL     1      41.317 -12.013  -3.686  1.00  0.00    -0.051 Br
HETATM   37  C   UNL     1      41.620 -13.203  -1.111  1.00  0.00     0.021 A 
HETATM   38  C   UNL     1      41.604 -14.262  -0.195  1.00  0.00     0.031 A 
ENDBRANCH  29  32
ENDBRANCH  27  28
ENDBRANCH   4  27
BRANCH   1  39
HETATM   39  C   UNL     1      45.305 -20.434   4.798  1.00  0.00     0.163 C 
BRANCH  39  40
HETATM   40  C   UNL     1      44.617 -21.736   5.137  1.00  0.00    -0.017 C 
HETATM   41  C   UNL     1      44.587 -22.879   4.435  1.00  0.00     0.008 C 
ENDBRANCH  39  40
ENDBRANCH   1  39
TORSDOF 8
ENDMDL
MODEL 3
REMARK VINA RESULT:      -8.2      3.823      9.504
REMARK  8 active torsions:
REMARK  status: ('A' for Active; 'I' for Inactive)
REMARK    1  A    between atoms: C_2  and  C_3 
REMARK    2  A    between atoms: C_3  and  N_4 
REMARK    3  A    between atoms: N_7  and  C_8 
REMARK    4  A    between atoms: C_8  and  C_9 
REMARK       I    between atoms: C_9  and  N_10 
REMARK    5  A    between atoms: N_10  and  C_11 
REMARK    6  A    between atoms: C_24  and  C_25 
REMARK       I    between atoms: C_25  and  N_26 
REMARK    7  A    between atoms: N_26  and  C_27 
REMARK    8  A    between atoms: C_27  and  C_28 
ROOT
HETATM    1  N   UNL     1      40.348  -8.242  11.205  1.00  0.00    -0.262 N 
HETATM    2  C   UNL     1      40.105  -8.399   9.848  1.00  0.00     0.332 C 
HETATM    3  O   UNL     1      39.120  -7.912   9.290  1.00  0.00    -0.246 OA
HETATM    4  N   UNL     1      41.031  -9.143   9.125  1.00  0.00    -0.290 N 
HETATM    5  C   UNL     1      42.075  -9.873   9.761  1.00  0.00     0.056 A 
HETATM    6  C   UNL     1      42.233  -9.779  11.142  1.00  0.00     0.059 A 
HETATM    7  C   UNL     1      41.340  -8.903  11.915  1.00  0.00     0.264 C 
HETATM    8  O   UNL     1      41.504  -8.806  13.128  1.00  0.00    -0.267 OA
HETATM    9  C   UNL     1      42.940 -10.724   9.048  1.00  0.00     0.048 A 
HETATM   10  C   UNL     1      43.934 -11.472   9.701  1.00  0.00     0.034 A 
HETATM   11  C   UNL     1      44.082 -11.342  11.086  1.00  0.00     0.018 A 
HETATM   12  C   UNL     1      43.240 -10.496  11.804  1.00  0.00     0.020 A 
ENDROOT
BRANCH  10  13
HETATM   13  C   UNL     1      44.786 -12.477   8.992  1.00  0.00     0.252 C 
HETATM   14  N   UNL     1      44.285 -13.037   7.838  1.00  0.00    -0.353 N 
HETATM   15  H   UNL     1      43.478 -12.652   7.371  1.00  0.00     0.163 HD
HETATM   16  O   UNL     1      45.878 -12.780   9.462  1.00  0.00    -0.268 OA
BRANCH  14  17
HETATM   17  C   UNL     1      44.982 -14.092   7.139  1.00  0.00     0.161 C 
BRANCH  17  18
HETATM   18  C   UNL     1      44.021 -15.144   6.650  1.00  0.00    -0.038 A 
HETATM   19  C   UNL     1      43.647 -15.194   5.297  1.00  0.00     0.048 A 
HETATM   20  C   UNL     1      42.759 -16.173   4.908  1.00  0.00     0.105 A 
HETATM   21  C   UNL     1      42.251 -17.090   5.798  1.00  0.00     0.105 A 
HETATM   22  O   UNL     1      42.284 -16.355   3.646  1.00  0.00    -0.323 OA
HETATM   23  O   UNL     1      41.389 -17.961   5.209  1.00  0.00    -0.323 OA
HETATM   24  C   UNL     1      42.608 -17.084   7.128  1.00  0.00     0.040 A 
HETATM   25  C   UNL     1      41.401 -17.478   3.849  1.00  0.00     0.352 A 
HETATM   26  C   UNL     1      43.507 -16.102   7.554  1.00  0.00     0.012 A 
ENDBRANCH  17  18
ENDBRANCH  14  17
ENDBRANCH  10  13
BRANCH   4  27
HETATM   27  C   UNL     1      40.997  -9.020   7.661  1.00  0.00     0.237 C 
BRANCH  27  28
HETATM   28  C   UNL     1      40.271 -10.124   6.893  1.00  0.00     0.240 C 
HETATM   29  N   UNL     1      41.025 -10.740   5.913  1.00  0.00    -0.326 N 
HETATM   30  H   UNL     1      41.987 -10.427   5.819  1.00  0.00     0.169 HD
HETATM   31  O   UNL     1      39.127 -10.427   7.225  1.00  0.00    -0.271 OA
BRANCH  29  32
HETATM   32  C   UNL     1      40.607 -11.776   5.048  1.00  0.00     0.034 A 
HETATM   33  C   UNL     1      40.304 -13.073   5.474  1.00  0.00     0.031 A 
HETATM   34  C   UNL     1      39.894 -14.051   4.561  1.00  0.00     0.021 A 
HETATM   35  C   UNL     1      39.780 -13.734   3.213  1.00  0.00     0.011 A 
HETATM   36 BR   UNL     1      39.227 -15.055   1.980  1.00  0.00    -0.051 Br
HETATM   37  C   UNL     1      40.074 -12.447   2.770  1.00  0.00     0.021 A 
HETATM   38  C   UNL     1      40.485 -11.472   3.687  1.00  0.00     0.031 A 
ENDBRANCH  29  32
ENDBRANCH  27  28
ENDBRANCH   4  27
BRANCH   1  39
HETATM   39  C   UNL     1      39.501  -7.315  11.942  1.00  0.00     0.163 C 
BRANCH  39  40
HETATM   40  C   UNL     1      38.363  -8.016  12.646  1.00  0.00    -0.017 C 
HETATM   41  C   UNL     1      37.755  -9.167  12.320  1.00  0.00     0.008 C 
ENDBRANCH  39  40
ENDBRANCH   1  39
TORSDOF 8
ENDMDL
MODEL 4
REMARK VINA RESULT:      -8.0      4.367     10.629
REMARK  8 active torsions:
REMARK  status: ('A' for Active; 'I' for Inactive)
REMARK    1  A    between atoms: C_2  and  C_3 
REMARK    2  A    between atoms: C_3  and  N_4 
REMARK    3  A    between atoms: N_7  and  C_8 
REMARK    4  A    between atoms: C_8  and  C_9 
REMARK       I    between atoms: C_9  and  N_10 
REMARK    5  A    between atoms: N_10  and  C_11 
REMARK    6  A    between atoms: C_24  and  C_25 
REMARK       I    between atoms: C_25  and  N_26 
REMARK    7  A    between atoms: N_26  and  C_27 
REMARK    8  A    between atoms: C_27  and  C_28 
ROOT
HETATM    1  N   UNL     1      38.720 -11.797   3.272  1.00  0.00    -0.262 N 
HETATM    2  C   UNL     1      38.797 -11.561   4.637  1.00  0.00     0.332 C 
HETATM    3  O   UNL     1      38.400 -10.515   5.153  1.00  0.00    -0.246 OA
HETATM    4  N   UNL     1      39.356 -12.567   5.419  1.00  0.00    -0.290 N 
HETATM    5  C   UNL     1      39.993 -13.703   4.846  1.00  0.00     0.056 A 
HETATM    6  C   UNL     1      39.990 -13.864   3.462  1.00  0.00     0.059 A 
HETATM    7  C   UNL     1      39.302 -12.875   2.619  1.00  0.00     0.264 C 
HETATM    8  O   UNL     1      39.282 -13.039   1.402  1.00  0.00    -0.267 OA
HETATM    9  C   UNL     1      40.665 -14.662   5.626  1.00  0.00     0.048 A 
HETATM   10  C   UNL     1      41.327 -15.752   5.037  1.00  0.00     0.034 A 
HETATM   11  C   UNL     1      41.291 -15.899   3.647  1.00  0.00     0.018 A 
HETATM   12  C   UNL     1      40.621 -14.963   2.861  1.00  0.00     0.020 A 
ENDROOT
BRANCH  10  13
HETATM   13  C   UNL     1      42.153 -16.719   5.827  1.00  0.00     0.252 C 
HETATM   14  N   UNL     1      43.352 -17.123   5.284  1.00  0.00    -0.353 N 
HETATM   15  H   UNL     1      43.764 -16.647   4.495  1.00  0.00     0.163 HD
HETATM   16  O   UNL     1      41.735 -17.129   6.904  1.00  0.00    -0.268 OA
BRANCH  14  17
HETATM   17  C   UNL     1      44.172 -18.132   5.916  1.00  0.00     0.161 C 
BRANCH  17  18
HETATM   18  C   UNL     1      44.288 -19.356   5.047  1.00  0.00    -0.038 A 
HETATM   19  C   UNL     1      43.986 -19.288   3.677  1.00  0.00     0.048 A 
HETATM   20  C   UNL     1      44.103 -20.441   2.931  1.00  0.00     0.105 A 
HETATM   21  C   UNL     1      44.513 -21.630   3.488  1.00  0.00     0.105 A 
HETATM   22  O   UNL     1      43.838 -20.556   1.602  1.00  0.00    -0.323 OA
HETATM   23  O   UNL     1      44.553 -22.641   2.581  1.00  0.00    -0.323 OA
HETATM   24  C   UNL     1      44.836 -21.731   4.823  1.00  0.00     0.040 A 
HETATM   25  C   UNL     1      44.107 -21.957   1.392  1.00  0.00     0.352 A 
HETATM   26  C   UNL     1      44.726 -20.578   5.607  1.00  0.00     0.012 A 
ENDBRANCH  17  18
ENDBRANCH  14  17
ENDBRANCH  10  13
BRANCH   4  27
HETATM   27  C   UNL     1      39.120 -12.500   6.868  1.00  0.00     0.237 C 
BRANCH  27  28
HETATM   28  C   UNL     1      40.089 -11.645   7.685  1.00  0.00     0.240 C 
HETATM   29  N   UNL     1      39.685 -11.390   8.981  1.00  0.00    -0.326 N 
HETATM   30  H   UNL     1      38.811 -11.815   9.274  1.00  0.00     0.169 HD
HETATM   31  O   UNL     1      41.157 -11.305   7.178  1.00  0.00    -0.271 OA
BRANCH  29  32
HETATM   32  C   UNL     1      40.374 -10.623   9.947  1.00  0.00     0.034 A 
HETATM   33  C   UNL     1      40.784  -9.301   9.747  1.00  0.00     0.031 A 
HETATM   34  C   UNL     1      41.462  -8.600  10.750  1.00  0.00     0.021 A 
HETATM   35  C   UNL     1      41.732  -9.218  11.965  1.00  0.00     0.011 A 
HETATM   36 BR   UNL     1      42.649  -8.272  13.319  1.00  0.00    -0.051 Br
HETATM   37  C   UNL     1      41.328 -10.533  12.185  1.00  0.00     0.021 A 
HETATM   38  C   UNL     1      40.651 -11.231  11.178  1.00  0.00     0.031 A 
ENDBRANCH  29  32
ENDBRANCH  27  28
ENDBRANCH   4  27
BRANCH   1  39
HETATM   39  C   UNL     1      37.973 -10.847   2.461  1.00  0.00     0.163 C 
BRANCH  39  40
HETATM   40  C   UNL     1      38.876  -9.865   1.752  1.00  0.00    -0.017 C 
HETATM   41  C   UNL     1      39.982  -9.259   2.210  1.00  0.00     0.008 C 
ENDBRANCH  39  40
ENDBRANCH   1  39
TORSDOF 8
ENDMDL
MODEL 5
REMARK VINA RESULT:      -7.9      3.722      7.851
REMARK  8 active torsions:
REMARK  status: ('A' for Active; 'I' for Inactive)
REMARK    1  A    between atoms: C_2  and  C_3 
REMARK    2  A    between atoms: C_3  and  N_4 
REMARK    3  A    between atoms: N_7  and  C_8 
REMARK    4  A    between atoms: C_8  and  C_9 
REMARK       I    between atoms: C_9  and  N_10 
REMARK    5  A    between atoms: N_10  and  C_11 
REMARK    6  A    between atoms: C_24  and  C_25 
REMARK       I    between atoms: C_25  and  N_26 
REMARK    7  A    between atoms: N_26  and  C_27 
REMARK    8  A    between atoms: C_27  and  C_28 
ROOT
HETATM    1  N   UNL     1      44.091 -17.787   5.341  1.00  0.00    -0.262 N 
HETATM    2  C   UNL     1      43.865 -16.441   5.587  1.00  0.00     0.332 C 
HETATM    3  O   UNL     1      44.079 -15.922   6.684  1.00  0.00    -0.246 OA
HETATM    4  N   UNL     1      43.372 -15.683   4.531  1.00  0.00    -0.290 N 
HETATM    5  C   UNL     1      42.938 -16.277   3.313  1.00  0.00     0.056 A 
HETATM    6  C   UNL     1      43.083 -17.650   3.131  1.00  0.00     0.059 A 
HETATM    7  C   UNL     1      43.712 -18.458   4.187  1.00  0.00     0.264 C 
HETATM    8  O   UNL     1      43.860 -19.664   4.007  1.00  0.00    -0.267 OA
HETATM    9  C   UNL     1      42.327 -15.531   2.287  1.00  0.00     0.048 A 
HETATM   10  C   UNL     1      41.863 -16.144   1.112  1.00  0.00     0.034 A 
HETATM   11  C   UNL     1      42.040 -17.522   0.949  1.00  0.00     0.018 A 
HETATM   12  C   UNL     1      42.652 -18.273   1.951  1.00  0.00     0.020 A 
ENDROOT
BRANCH  10  13
HETATM   13  C   UNL     1      41.101 -15.403   0.059  1.00  0.00     0.252 C 
HETATM   14  N   UNL     1      41.691 -15.265  -1.177  1.00  0.00    -0.353 N 
HETATM   15  H   UNL     1      42.502 -15.804  -1.440  1.00  0.00     0.163 HD
HETATM   16  O   UNL     1      40.002 -14.931   0.332  1.00  0.00    -0.268 OA
BRANCH  14  17
HETATM   17  C   UNL     1      41.084 -14.477  -2.226  1.00  0.00     0.161 C 
BRANCH  17  18
HETATM   18  C   UNL     1      41.714 -13.111  -2.309  1.00  0.00    -0.038 A 
HETATM   19  C   UNL     1      42.304 -12.529  -1.175  1.00  0.00     0.048 A 
HETATM   20  C   UNL     1      42.859 -11.274  -1.308  1.00  0.00     0.105 A 
HETATM   21  C   UNL     1      42.856 -10.601  -2.506  1.00  0.00     0.105 A 
HETATM   22  O   UNL     1      43.455 -10.563  -0.313  1.00  0.00    -0.323 OA
HETATM   23  O   UNL     1      43.447  -9.379  -2.415  1.00  0.00    -0.323 OA
HETATM   24  C   UNL     1      42.304 -11.147  -3.643  1.00  0.00     0.040 A 
HETATM   25  C   UNL     1      43.808  -9.355  -1.019  1.00  0.00     0.352 A 
HETATM   26  C   UNL     1      41.732 -12.418  -3.541  1.00  0.00     0.012 A 
ENDBRANCH  17  18
ENDBRANCH  14  17
ENDBRANCH  10  13
BRANCH   4  27
HETATM   27  C   UNL     1      43.468 -14.221   4.650  1.00  0.00     0.237 C 
BRANCH  27  28
HETATM   28  C   UNL     1      42.169 -13.465   4.929  1.00  0.00     0.240 C 
HETATM   29  N   UNL     1      41.977 -12.337   4.155  1.00  0.00    -0.326 N 
HETATM   30  H   UNL     1      42.692 -12.138   3.462  1.00  0.00     0.169 HD
HETATM   31  O   UNL     1      41.375 -13.927   5.747  1.00  0.00    -0.271 OA
BRANCH  29  32
HETATM   32  C   UNL     1      40.880 -11.450   4.209  1.00  0.00     0.034 A 
HETATM   33  C   UNL     1      39.628 -11.721   3.645  1.00  0.00     0.031 A 
HETATM   34  C   UNL     1      38.584 -10.795   3.738  1.00  0.00     0.021 A 
HETATM   35  C   UNL     1      38.785  -9.589   4.399  1.00  0.00     0.011 A 
HETATM   36 BR   UNL     1      37.374  -8.338   4.523  1.00  0.00    -0.051 Br
HETATM   37  C   UNL     1      40.022  -9.302   4.970  1.00  0.00     0.021 A 
HETATM   38  C   UNL     1      41.065 -10.232   4.873  1.00  0.00     0.031 A 
ENDBRANCH  29  32
ENDBRANCH  27  28
ENDBRANCH   4  27
BRANCH   1  39
HETATM   39  C   UNL     1      44.781 -18.557   6.367  1.00  0.00     0.163 C 
BRANCH  39  40
HETATM   40  C   UNL     1      43.820 -19.270   7.290  1.00  0.00    -0.017 C 
HETATM   41  C   UNL     1      43.574 -20.585   7.395  1.00  0.00     0.008 C 
ENDBRANCH  39  40
ENDBRANCH   1  39
TORSDOF 8
ENDMDL
MODEL 6
REMARK VINA RESULT:      -7.8      2.008      2.529
REMARK  8 active torsions:
REMARK  status: ('A' for Active; 'I' for Inactive)
REMARK    1  A    between atoms: C_2  and  C_3 
REMARK    2  A    between atoms: C_3  and  N_4 
REMARK    3  A    between atoms: N_7  and  C_8 
REMARK    4  A    between atoms: C_8  and  C_9 
REMARK       I    between atoms: C_9  and  N_10 
REMARK    5  A    between atoms: N_10  and  C_11 
REMARK    6  A    between atoms: C_24  and  C_25 
REMARK       I    between atoms: C_25  and  N_26 
REMARK    7  A    between atoms: N_26  and  C_27 
REMARK    8  A    between atoms: C_27  and  C_28 
ROOT
HETATM    1  N   UNL     1      44.481 -19.024   4.713  1.00  0.00    -0.262 N 
HETATM    2  C   UNL     1      43.626 -18.767   3.651  1.00  0.00     0.332 C 
HETATM    3  O   UNL     1      43.531 -19.520   2.680  1.00  0.00    -0.246 OA
HETATM    4  N   UNL     1      42.868 -17.604   3.721  1.00  0.00    -0.290 N 
HETATM    5  C   UNL     1      43.083 -16.621   4.727  1.00  0.00     0.056 A 
HETATM    6  C   UNL     1      44.023 -16.860   5.727  1.00  0.00     0.059 A 
HETATM    7  C   UNL     1      44.754 -18.136   5.744  1.00  0.00     0.264 C 
HETATM    8  O   UNL     1      45.562 -18.349   6.645  1.00  0.00    -0.267 OA
HETATM    9  C   UNL     1      42.404 -15.388   4.733  1.00  0.00     0.048 A 
HETATM   10  C   UNL     1      42.665 -14.413   5.710  1.00  0.00     0.034 A 
HETATM   11  C   UNL     1      43.601 -14.688   6.713  1.00  0.00     0.018 A 
HETATM   12  C   UNL     1      44.274 -15.908   6.726  1.00  0.00     0.020 A 
ENDROOT
BRANCH  10  13
HETATM   13  C   UNL     1      42.053 -13.048   5.673  1.00  0.00     0.252 C 
HETATM   14  N   UNL     1      42.197 -12.255   6.789  1.00  0.00    -0.353 N 
HETATM   15  H   UNL     1      42.851 -12.485   7.522  1.00  0.00     0.163 HD
HETATM   16  O   UNL     1      41.436 -12.692   4.675  1.00  0.00    -0.268 OA
BRANCH  14  17
HETATM   17  C   UNL     1      41.555 -10.964   6.894  1.00  0.00     0.161 C 
BRANCH  17  18
HETATM   18  C   UNL     1      41.292 -10.607   8.333  1.00  0.00    -0.038 A 
HETATM   19  C   UNL     1      39.990 -10.307   8.766  1.00  0.00     0.048 A 
HETATM   20  C   UNL     1      39.809  -9.980  10.093  1.00  0.00     0.105 A 
HETATM   21  C   UNL     1      40.855  -9.953  10.985  1.00  0.00     0.105 A 
HETATM   22  O   UNL     1      38.623  -9.651  10.673  1.00  0.00    -0.323 OA
HETATM   23  O   UNL     1      40.459  -9.600  12.236  1.00  0.00    -0.323 OA
HETATM   24  C   UNL     1      42.141 -10.259  10.602  1.00  0.00     0.040 A 
HETATM   25  C   UNL     1      39.047  -9.393  12.027  1.00  0.00     0.352 A 
HETATM   26  C   UNL     1      42.358 -10.594   9.262  1.00  0.00     0.012 A 
ENDBRANCH  17  18
ENDBRANCH  14  17
ENDBRANCH  10  13
BRANCH   4  27
HETATM   27  C   UNL     1      41.717 -17.496   2.813  1.00  0.00     0.237 C 
BRANCH  27  28
HETATM   28  C   UNL     1      41.911 -16.654   1.551  1.00  0.00     0.240 C 
HETATM   29  N   UNL     1      40.766 -16.040   1.083  1.00  0.00    -0.326 N 
HETATM   30  H   UNL     1      39.923 -16.177   1.632  1.00  0.00     0.169 HD
HETATM   31  O   UNL     1      43.043 -16.529   1.087  1.00  0.00    -0.271 OA
BRANCH  29  32
HETATM   32  C   UNL     1      40.653 -15.220  -0.062  1.00  0.00     0.034 A 
HETATM   33  C   UNL     1      41.053 -15.610  -1.344  1.00  0.00     0.031 A 
HETATM   34  C   UNL     1      40.910 -14.745  -2.435  1.00  0.00     0.021 A 
HETATM   35  C   UNL     1      40.361 -13.482  -2.249  1.00  0.00     0.011 A 
HETATM   36 BR   UNL     1      40.170 -12.314  -3.721  1.00  0.00    -0.051 Br
HETATM   37  C   UNL     1      39.954 -13.076  -0.980  1.00  0.00     0.021 A 
HETATM   38  C   UNL     1      40.100 -13.945   0.108  1.00  0.00     0.031 A 
ENDBRANCH  29  32
ENDBRANCH  27  28
ENDBRANCH   4  27
BRANCH   1  39
HETATM   39  C   UNL     1      45.140 -20.321   4.754  1.00  0.00     0.163 C 
BRANCH  39  40
HETATM   40  C   UNL     1      44.331 -21.351   5.507  1.00  0.00    -0.017 C 
HETATM   41  C   UNL     1      43.806 -21.270   6.740  1.00  0.00     0.008 C 
ENDBRANCH  39  40
ENDBRANCH   1  39
TORSDOF 8
ENDMDL
MODEL 7
REMARK VINA RESULT:      -7.8      3.940      7.249
REMARK  8 active torsions:
REMARK  status: ('A' for Active; 'I' for Inactive)
REMARK    1  A    between atoms: C_2  and  C_3 
REMARK    2  A    between atoms: C_3  and  N_4 
REMARK    3  A    between atoms: N_7  and  C_8 
REMARK    4  A    between atoms: C_8  and  C_9 
REMARK       I    between atoms: C_9  and  N_10 
REMARK    5  A    between atoms: N_10  and  C_11 
REMARK    6  A    between atoms: C_24  and  C_25 
REMARK       I    between atoms: C_25  and  N_26 
REMARK    7  A    between atoms: N_26  and  C_27 
REMARK    8  A    between atoms: C_27  and  C_28 
ROOT
HETATM    1  N   UNL     1      39.177 -13.894   1.725  1.00  0.00    -0.262 N 
HETATM    2  C   UNL     1      39.545 -12.615   2.118  1.00  0.00     0.332 C 
HETATM    3  O   UNL     1      39.169 -11.605   1.521  1.00  0.00    -0.246 OA
HETATM    4  N   UNL     1      40.375 -12.513   3.229  1.00  0.00    -0.290 N 
HETATM    5  C   UNL     1      40.979 -13.654   3.829  1.00  0.00     0.056 A 
HETATM    6  C   UNL     1      40.670 -14.924   3.347  1.00  0.00     0.059 A 
HETATM    7  C   UNL     1      39.702 -15.067   2.249  1.00  0.00     0.264 C 
HETATM    8  O   UNL     1      39.416 -16.193   1.849  1.00  0.00    -0.267 OA
HETATM    9  C   UNL     1      41.913 -13.548   4.875  1.00  0.00     0.048 A 
HETATM   10  C   UNL     1      42.532 -14.684   5.423  1.00  0.00     0.034 A 
HETATM   11  C   UNL     1      42.188 -15.948   4.932  1.00  0.00     0.018 A 
HETATM   12  C   UNL     1      41.257 -16.070   3.903  1.00  0.00     0.020 A 
ENDROOT
BRANCH  10  13
HETATM   13  C   UNL     1      43.619 -14.598   6.448  1.00  0.00     0.252 C 
HETATM   14  N   UNL     1      43.830 -13.378   7.051  1.00  0.00    -0.353 N 
HETATM   15  H   UNL     1      43.165 -12.624   6.968  1.00  0.00     0.163 HD
HETATM   16  O   UNL     1      44.288 -15.594   6.701  1.00  0.00    -0.268 OA
BRANCH  14  17
HETATM   17  C   UNL     1      44.921 -13.165   7.974  1.00  0.00     0.161 C 
BRANCH  17  18
HETATM   18  C   UNL     1      44.544 -12.163   9.034  1.00  0.00    -0.038 A 
HETATM   19  C   UNL     1      43.401 -11.361   8.882  1.00  0.00     0.048 A 
HETATM   20  C   UNL     1      43.109 -10.457   9.880  1.00  0.00     0.105 A 
HETATM   21  C   UNL     1      43.891 -10.336  11.004  1.00  0.00     0.105 A 
HETATM   22  O   UNL     1      42.054  -9.598   9.886  1.00  0.00    -0.323 OA
HETATM   23  O   UNL     1      43.429  -9.382  11.856  1.00  0.00    -0.323 OA
HETATM   24  C   UNL     1      45.008 -11.117  11.197  1.00  0.00     0.040 A 
HETATM   25  C   UNL     1      42.275  -8.907  11.133  1.00  0.00     0.352 A 
HETATM   26  C   UNL     1      45.333 -12.044  10.202  1.00  0.00     0.012 A 
ENDBRANCH  17  18
ENDBRANCH  14  17
ENDBRANCH  10  13
BRANCH   4  27
HETATM   27  C   UNL     1      40.479 -11.195   3.870  1.00  0.00     0.237 C 
BRANCH  27  28
HETATM   28  C   UNL     1      39.587 -10.948   5.086  1.00  0.00     0.240 C 
HETATM   29  N   UNL     1      40.244 -10.456   6.197  1.00  0.00    -0.326 N 
HETATM   30  H   UNL     1      41.238 -10.278   6.092  1.00  0.00     0.169 HD
HETATM   31  O   UNL     1      38.375 -11.134   4.984  1.00  0.00    -0.271 OA
BRANCH  29  32
HETATM   32  C   UNL     1      39.673 -10.151   7.453  1.00  0.00     0.034 A 
HETATM   33  C   UNL     1      39.400 -11.105   8.439  1.00  0.00     0.031 A 
HETATM   34  C   UNL     1      38.833 -10.731   9.662  1.00  0.00     0.021 A 
HETATM   35  C   UNL     1      38.538  -9.395   9.909  1.00  0.00     0.011 A 
HETATM   36 BR   UNL     1      37.772  -8.890  11.560  1.00  0.00    -0.051 Br
HETATM   37  C   UNL     1      38.806  -8.430   8.941  1.00  0.00     0.021 A 
HETATM   38  C   UNL     1      39.372  -8.809   7.717  1.00  0.00     0.031 A 
ENDBRANCH  29  32
ENDBRANCH  27  28
ENDBRANCH   4  27
BRANCH   1  39
HETATM   39  C   UNL     1      38.163 -14.019   0.688  1.00  0.00     0.163 C 
BRANCH  39  40
HETATM   40  C   UNL     1      38.754 -13.943  -0.701  1.00  0.00    -0.017 C 
HETATM   41  C   UNL     1      38.120 -13.919  -1.883  1.00  0.00     0.008 C 
ENDBRANCH  39  40
ENDBRANCH   1  39
TORSDOF 8
ENDMDL
MODEL 8
REMARK VINA RESULT:      -7.7      3.046      6.025
REMARK  8 active torsions:
REMARK  status: ('A' for Active; 'I' for Inactive)
REMARK    1  A    between atoms: C_2  and  C_3 
REMARK    2  A    between atoms: C_3  and  N_4 
REMARK    3  A    between atoms: N_7  and  C_8 
REMARK    4  A    between atoms: C_8  and  C_9 
REMARK       I    between atoms: C_9  and  N_10 
REMARK    5  A    between atoms: N_10  and  C_11 
REMARK    6  A    between atoms: C_24  and  C_25 
REMARK       I    between atoms: C_25  and  N_26 
REMARK    7  A    between atoms: N_26  and  C_27 
REMARK    8  A    between atoms: C_27  and  C_28 
ROOT
HETATM    1  N   UNL     1      40.519 -13.534   0.885  1.00  0.00    -0.262 N 
HETATM    2  C   UNL     1      41.364 -14.274   1.699  1.00  0.00     0.332 C 
HETATM    3  O   UNL     1      42.041 -15.211   1.273  1.00  0.00    -0.246 OA
HETATM    4  N   UNL     1      41.416 -13.916   3.042  1.00  0.00    -0.290 N 
HETATM    5  C   UNL     1      40.517 -12.969   3.607  1.00  0.00     0.056 A 
HETATM    6  C   UNL     1      39.606 -12.313   2.781  1.00  0.00     0.059 A 
HETATM    7  C   UNL     1      39.611 -12.586   1.336  1.00  0.00     0.264 C 
HETATM    8  O   UNL     1      38.822 -11.983   0.613  1.00  0.00    -0.267 OA
HETATM    9  C   UNL     1      40.485 -12.692   4.986  1.00  0.00     0.048 A 
HETATM   10  C   UNL     1      39.557 -11.787   5.530  1.00  0.00     0.034 A 
HETATM   11  C   UNL     1      38.668 -11.129   4.674  1.00  0.00     0.018 A 
HETATM   12  C   UNL     1      38.694 -11.385   3.305  1.00  0.00     0.020 A 
ENDROOT
BRANCH  10  13
HETATM   13  C   UNL     1      39.414 -11.564   7.003  1.00  0.00     0.252 C 
HETATM   14  N   UNL     1      39.808 -10.342   7.503  1.00  0.00    -0.353 N 
HETATM   15  H   UNL     1      39.992  -9.557   6.897  1.00  0.00     0.163 HD
HETATM   16  O   UNL     1      38.978 -12.466   7.709  1.00  0.00    -0.268 OA
BRANCH  14  17
HETATM   17  C   UNL     1      39.809 -10.066   8.921  1.00  0.00     0.161 C 
BRANCH  17  18
HETATM   18  C   UNL     1      41.094 -10.523   9.560  1.00  0.00    -0.038 A 
HETATM   19  C   UNL     1      42.290 -10.538   8.823  1.00  0.00     0.048 A 
HETATM   20  C   UNL     1      43.434 -10.972   9.457  1.00  0.00     0.105 A 
HETATM   21  C   UNL     1      43.430 -11.374  10.772  1.00  0.00     0.105 A 
HETATM   22  O   UNL     1      44.668 -11.063   8.891  1.00  0.00    -0.323 OA
HETATM   23  O   UNL     1      44.659 -11.770  11.197  1.00  0.00    -0.323 OA
HETATM   24  C   UNL     1      42.281 -11.356  11.531  1.00  0.00     0.040 A 
HETATM   25  C   UNL     1      45.434 -11.587   9.995  1.00  0.00     0.352 A 
HETATM   26  C   UNL     1      41.103 -10.921  10.917  1.00  0.00     0.012 A 
ENDBRANCH  17  18
ENDBRANCH  14  17
ENDBRANCH  10  13
BRANCH   4  27
HETATM   27  C   UNL     1      42.546 -14.429   3.830  1.00  0.00     0.237 C 
BRANCH  27  28
HETATM   28  C   UNL     1      42.573 -15.934   4.097  1.00  0.00     0.240 C 
HETATM   29  N   UNL     1      43.591 -16.617   3.461  1.00  0.00    -0.326 N 
HETATM   30  H   UNL     1      44.235 -16.058   2.910  1.00  0.00     0.169 HD
HETATM   31  O   UNL     1      41.758 -16.414   4.883  1.00  0.00    -0.271 OA
BRANCH  29  32
HETATM   32  C   UNL     1      43.845 -18.005   3.519  1.00  0.00     0.034 A 
HETATM   33  C   UNL     1      43.664 -18.878   2.441  1.00  0.00     0.031 A 
HETATM   34  C   UNL     1      43.936 -20.244   2.571  1.00  0.00     0.021 A 
HETATM   35  C   UNL     1      44.397 -20.747   3.782  1.00  0.00     0.011 A 
HETATM   36 BR   UNL     1      44.763 -22.592   3.956  1.00  0.00    -0.051 Br
HETATM   37  C   UNL     1      44.587 -19.893   4.866  1.00  0.00     0.021 A 
HETATM   38  C   UNL     1      44.311 -18.527   4.732  1.00  0.00     0.031 A 
ENDBRANCH  29  32
ENDBRANCH  27  28
ENDBRANCH   4  27
BRANCH   1  39
HETATM   39  C   UNL     1      40.587 -13.764  -0.551  1.00  0.00     0.163 C 
BRANCH  39  40
HETATM   40  C   UNL     1      41.545 -12.817  -1.237  1.00  0.00    -0.017 C 
HETATM   41  C   UNL     1      42.457 -13.084  -2.184  1.00  0.00     0.008 C 
ENDBRANCH  39  40
ENDBRANCH   1  39
TORSDOF 8
ENDMDL
MODEL 9
REMARK VINA RESULT:      -7.6      3.324      6.331
REMARK  8 active torsions:
REMARK  status: ('A' for Active; 'I' for Inactive)
REMARK    1  A    between atoms: C_2  and  C_3 
REMARK    2  A    between atoms: C_3  and  N_4 
REMARK    3  A    between atoms: N_7  and  C_8 
REMARK    4  A    between atoms: C_8  and  C_9 
REMARK       I    between atoms: C_9  and  N_10 
REMARK    5  A    between atoms: N_10  and  C_11 
REMARK    6  A    between atoms: C_24  and  C_25 
REMARK       I    between atoms: C_25  and  N_26 
REMARK    7  A    between atoms: N_26  and  C_27 
REMARK    8  A    between atoms: C_27  and  C_28 
ROOT
HETATM    1  N   UNL     1      41.431 -11.489   1.078  1.00  0.00    -0.262 N 
HETATM    2  C   UNL     1      41.946 -12.511   1.862  1.00  0.00     0.332 C 
HETATM    3  O   UNL     1      42.523 -13.488   1.382  1.00  0.00    -0.246 OA
HETATM    4  N   UNL     1      41.780 -12.394   3.238  1.00  0.00    -0.290 N 
HETATM    5  C   UNL     1      40.961 -11.383   3.816  1.00  0.00     0.056 A 
HETATM    6  C   UNL     1      40.371 -10.427   2.994  1.00  0.00     0.059 A 
HETATM    7  C   UNL     1      40.628 -10.458   1.546  1.00  0.00     0.264 C 
HETATM    8  O   UNL     1      40.125  -9.594   0.833  1.00  0.00    -0.267 OA
HETATM    9  C   UNL     1      40.691 -11.333   5.197  1.00  0.00     0.048 A 
HETATM   10  C   UNL     1      39.843 -10.354   5.742  1.00  0.00     0.034 A 
HETATM   11  C   UNL     1      39.280  -9.395   4.894  1.00  0.00     0.018 A 
HETATM   12  C   UNL     1      39.546  -9.426   3.527  1.00  0.00     0.020 A 
ENDROOT
BRANCH  10  13
HETATM   13  C   UNL     1      39.438 -10.347   7.182  1.00  0.00     0.252 C 
HETATM   14  N   UNL     1      40.006 -11.291   8.008  1.00  0.00    -0.353 N 
HETATM   15  H   UNL     1      40.807 -11.833   7.721  1.00  0.00     0.163 HD
HETATM   16  O   UNL     1      38.613  -9.528   7.572  1.00  0.00    -0.268 OA
BRANCH  14  17
HETATM   17  C   UNL     1      39.603 -11.436   9.389  1.00  0.00     0.161 C 
BRANCH  17  18
HETATM   18  C   UNL     1      40.690 -10.969  10.321  1.00  0.00    -0.038 A 
HETATM   19  C   UNL     1      40.477 -10.945  11.709  1.00  0.00     0.048 A 
HETATM   20  C   UNL     1      41.505 -10.502  12.513  1.00  0.00     0.105 A 
HETATM   21  C   UNL     1      42.714 -10.103  11.995  1.00  0.00     0.105 A 
HETATM   22  O   UNL     1      41.462 -10.402  13.869  1.00  0.00    -0.323 OA
HETATM   23  O   UNL     1      43.583  -9.698  12.959  1.00  0.00    -0.323 OA
HETATM   24  C   UNL     1      42.967 -10.131  10.642  1.00  0.00     0.040 A 
HETATM   25  C   UNL     1      42.776  -9.873  14.143  1.00  0.00     0.352 A 
HETATM   26  C   UNL     1      41.944 -10.574   9.799  1.00  0.00     0.012 A 
ENDBRANCH  17  18
ENDBRANCH  14  17
ENDBRANCH  10  13
BRANCH   4  27
HETATM   27  C   UNL     1      42.613 -13.252   4.091  1.00  0.00     0.237 C 
BRANCH  27  28
HETATM   28  C   UNL     1      42.423 -14.762   3.945  1.00  0.00     0.240 C 
HETATM   29  N   UNL     1      43.475 -15.423   3.340  1.00  0.00    -0.326 N 
HETATM   30  H   UNL     1      44.276 -14.856   3.083  1.00  0.00     0.169 HD
HETATM   31  O   UNL     1      41.414 -15.284   4.416  1.00  0.00    -0.271 OA
BRANCH  29  32
HETATM   32  C   UNL     1      43.561 -16.806   3.068  1.00  0.00     0.034 A 
HETATM   33  C   UNL     1      43.585 -17.796   4.057  1.00  0.00     0.031 A 
HETATM   34  C   UNL     1      43.671 -19.150   3.714  1.00  0.00     0.021 A 
HETATM   35  C   UNL     1      43.731 -19.523   2.377  1.00  0.00     0.011 A 
HETATM   36 BR   UNL     1      43.849 -21.351   1.915  1.00  0.00    -0.051 Br
HETATM   37  C   UNL     1      43.705 -18.553   1.378  1.00  0.00     0.021 A 
HETATM   38  C   UNL     1      43.621 -17.199   1.726  1.00  0.00     0.031 A 
ENDBRANCH  29  32
ENDBRANCH  27  28
ENDBRANCH   4  27
BRANCH   1  39
HETATM   39  C   UNL     1      41.756 -11.493  -0.341  1.00  0.00     0.163 C 
BRANCH  39  40
HETATM   40  C   UNL     1      43.032 -10.740  -0.637  1.00  0.00    -0.017 C 
HETATM   41  C   UNL     1      43.227  -9.716  -1.483  1.00  0.00     0.008 C 
ENDBRANCH  39  40
ENDBRANCH   1  39
TORSDOF 8
ENDMDL
MODEL 10
REMARK VINA RESULT:      -7.6      3.678      9.680
REMARK  8 active torsions:
REMARK  status: ('A' for Active; 'I' for Inactive)
REMARK    1  A    between atoms: C_2  and  C_3 
REMARK    2  A    between atoms: C_3  and  N_4 
REMARK    3  A    between atoms: N_7  and  C_8 
REMARK    4  A    between atoms: C_8  and  C_9 
REMARK       I    between atoms: C_9  and  N_10 
REMARK    5  A    between atoms: N_10  and  C_11 
REMARK    6  A    between atoms: C_24  and  C_25 
REMARK       I    between atoms: C_25  and  N_26 
REMARK    7  A    between atoms: N_26  and  C_27 
REMARK    8  A    between atoms: C_27  and  C_28 
ROOT
HETATM    1  N   UNL     1      42.484 -10.650  12.029  1.00  0.00    -0.262 N 
HETATM    2  C   UNL     1      43.532 -10.714  11.122  1.00  0.00     0.332 C 
HETATM    3  O   UNL     1      44.712 -10.638  11.466  1.00  0.00    -0.246 OA
HETATM    4  N   UNL     1      43.194 -10.865   9.781  1.00  0.00    -0.290 N 
HETATM    5  C   UNL     1      41.849 -10.770   9.326  1.00  0.00     0.056 A 
HETATM    6  C   UNL     1      40.823 -10.602  10.253  1.00  0.00     0.059 A 
HETATM    7  C   UNL     1      41.142 -10.559  11.687  1.00  0.00     0.264 C 
HETATM    8  O   UNL     1      40.228 -10.437  12.499  1.00  0.00    -0.267 OA
HETATM    9  C   UNL     1      41.513 -10.801   7.959  1.00  0.00     0.048 A 
HETATM   10  C   UNL     1      40.184 -10.658   7.528  1.00  0.00     0.034 A 
HETATM   11  C   UNL     1      39.172 -10.510   8.482  1.00  0.00     0.018 A 
HETATM   12  C   UNL     1      39.487 -10.488   9.839  1.00  0.00     0.020 A 
ENDROOT
BRANCH  10  13
HETATM   13  C   UNL     1      39.809 -10.563   6.082  1.00  0.00     0.252 C 
HETATM   14  N   UNL     1      40.704 -11.054   5.159  1.00  0.00    -0.353 N 
HETATM   15  H   UNL     1      41.482 -11.635   5.432  1.00  0.00     0.163 HD
HETATM   16  O   UNL     1      38.744 -10.041   5.770  1.00  0.00    -0.268 OA
BRANCH  14  17
HETATM   17  C   UNL     1      40.484 -10.914   3.737  1.00  0.00     0.161 C 
BRANCH  17  18
HETATM   18  C   UNL     1      40.494 -12.256   3.054  1.00  0.00    -0.038 A 
HETATM   19  C   UNL     1      41.272 -12.464   1.903  1.00  0.00     0.048 A 
HETATM   20  C   UNL     1      41.237 -13.710   1.315  1.00  0.00     0.105 A 
HETATM   21  C   UNL     1      40.480 -14.736   1.830  1.00  0.00     0.105 A 
HETATM   22  O   UNL     1      41.915 -14.076   0.194  1.00  0.00    -0.323 OA
HETATM   23  O   UNL     1      40.583 -15.875   1.095  1.00  0.00    -0.323 OA
HETATM   24  C   UNL     1      39.719 -14.576   2.967  1.00  0.00     0.040 A 
HETATM   25  C   UNL     1      41.480 -15.445   0.050  1.00  0.00     0.352 A 
HETATM   26  C   UNL     1      39.733 -13.323   3.586  1.00  0.00     0.012 A 
ENDBRANCH  17  18
ENDBRANCH  14  17
ENDBRANCH  10  13
BRANCH   4  27
HETATM   27  C   UNL     1      44.259 -11.294   8.864  1.00  0.00     0.237 C 
BRANCH  27  28
HETATM   28  C   UNL     1      44.259 -12.765   8.448  1.00  0.00     0.240 C 
HETATM   29  N   UNL     1      43.858 -12.998   7.146  1.00  0.00    -0.326 N 
HETATM   30  H   UNL     1      43.635 -12.180   6.589  1.00  0.00     0.169 HD
HETATM   31  O   UNL     1      44.662 -13.610   9.245  1.00  0.00    -0.271 OA
BRANCH  29  32
HETATM   32  C   UNL     1      43.752 -14.253   6.505  1.00  0.00     0.034 A 
HETATM   33  C   UNL     1      44.247 -15.447   7.040  1.00  0.00     0.031 A 
HETATM   34  C   UNL     1      44.105 -16.655   6.349  1.00  0.00     0.021 A 
HETATM   35  C   UNL     1      43.463 -16.677   5.116  1.00  0.00     0.011 A 
HETATM   36 BR   UNL     1      43.273 -18.308   4.183  1.00  0.00    -0.051 Br
HETATM   37  C   UNL     1      42.960 -15.499   4.569  1.00  0.00     0.021 A 
HETATM   38  C   UNL     1      43.106 -14.292   5.264  1.00  0.00     0.031 A 
ENDBRANCH  29  32
ENDBRANCH  27  28
ENDBRANCH   4  27
BRANCH   1  39
HETATM   39  C   UNL     1      42.813 -10.682  13.447  1.00  0.00     0.163 C 
BRANCH  39  40
HETATM   40  C   UNL     1      42.935  -9.296  14.038  1.00  0.00    -0.017 C 
HETATM   41  C   UNL     1      42.152  -8.699  14.949  1.00  0.00     0.008 C 
ENDBRANCH  39  40
ENDBRANCH   1  39
TORSDOF 8
ENDMDL
