MODEL 1
REMARK VINA RESULT:      -8.7      0.000      0.000
REMARK  5 active torsions:
REMARK  status: ('A' for Active; 'I' for Inactive)
REMARK    1  A    between atoms: O_2  and  C_3 
REMARK    2  A    between atoms: C_4  and  N_5 
REMARK    3  A    between atoms: N_5  and  C_6 
REMARK    4  A    between atoms: C_6  and  C_7 
REMARK    5  A    between atoms: C_15  and  C_16 
ROOT
HETATM    1  C   UNL     1      41.567 -16.356   1.922  1.00  0.00     0.120 A 
HETATM    2  N   UNL     1      41.796 -17.579   1.560  1.00  0.00    -0.233 NA
HETATM    3  C   UNL     1      42.660 -18.352   2.349  1.00  0.00     0.075 A 
HETATM    4  C   UNL     1      43.242 -17.869   3.522  1.00  0.00     0.061 A 
HETATM    5  C   UNL     1      42.929 -16.485   3.913  1.00  0.00     0.259 A 
HETATM    6  O   UNL     1      43.399 -15.970   4.920  1.00  0.00    -0.267 OA
HETATM    7  N   UNL     1      42.091 -15.807   3.068  1.00  0.00    -0.310 N 
HETATM    8  C   UNL     1      42.978 -19.644   1.923  1.00  0.00     0.048 A 
HETATM    9  C   UNL     1      43.864 -20.451   2.657  1.00  0.00     0.050 A 
HETATM   10  C   UNL     1      44.429 -19.943   3.839  1.00  0.00     0.017 A 
HETATM   11  C   UNL     1      44.119 -18.655   4.275  1.00  0.00     0.020 A 
HETATM   12  H   UNL     1      41.939 -14.833   3.288  1.00  0.00     0.170 HD
ENDROOT
BRANCH   1  13
HETATM   13  C   UNL     1      40.698 -15.427   1.079  1.00  0.00     0.171 C 
BRANCH  13  14
HETATM   14  N   UNL     1      40.616 -15.855  -0.332  1.00  0.00    -0.284 NA
HETATM   15  H   UNL     1      39.628 -15.968  -0.568  1.00  0.00     0.128 HD
BRANCH  14  16
HETATM   16  C   UNL     1      41.128 -14.897  -1.246  1.00  0.00     0.042 A 
HETATM   17  C   UNL     1      40.956 -15.061  -2.635  1.00  0.00     0.089 A 
HETATM   18  C   UNL     1      41.393 -14.068  -3.514  1.00  0.00     0.038 A 
HETATM   19  C   UNL     1      42.022 -12.922  -3.020  1.00  0.00     0.003 A 
HETATM   20  C   UNL     1      42.214 -12.764  -1.650  1.00  0.00     0.002 A 
HETATM   21  C   UNL     1      41.768 -13.748  -0.768  1.00  0.00     0.026 A 
BRANCH  17  22
HETATM   22  O   UNL     1      40.316 -16.212  -3.029  1.00  0.00    -0.354 OA
HETATM   23  C   UNL     1      39.245 -16.012  -3.948  1.00  0.00     0.210 C 
ENDBRANCH  17  22
ENDBRANCH  14  16
ENDBRANCH  13  14
ENDBRANCH   1  13
BRANCH   9  24
HETATM   24  C   UNL     1      44.238 -21.830   2.171  1.00  0.00     0.417 C 
HETATM   25  F   UNL     1      45.449 -21.883   1.551  1.00  0.00    -0.166 F 
HETATM   26  F   UNL     1      44.297 -22.735   3.187  1.00  0.00    -0.166 F 
HETATM   27  F   UNL     1      43.339 -22.329   1.278  1.00  0.00    -0.166 F 
ENDBRANCH   9  24
TORSDOF 5
ENDMDL
MODEL 2
REMARK VINA RESULT:      -8.4      1.274      2.191
REMARK  5 active torsions:
REMARK  status: ('A' for Active; 'I' for Inactive)
REMARK    1  A    between atoms: O_2  and  C_3 
REMARK    2  A    between atoms: C_4  and  N_5 
REMARK    3  A    between atoms: N_5  and  C_6 
REMARK    4  A    between atoms: C_6  and  C_7 
REMARK    5  A    between atoms: C_15  and  C_16 
ROOT
HETATM    1  C   UNL     1      41.733 -16.309   2.225  1.00  0.00     0.120 A 
HETATM    2  N   UNL     1      41.935 -17.517   1.802  1.00  0.00    -0.233 NA
HETATM    3  C   UNL     1      42.777 -18.350   2.554  1.00  0.00     0.075 A 
HETATM    4  C   UNL     1      43.365 -17.941   3.751  1.00  0.00     0.061 A 
HETATM    5  C   UNL     1      43.083 -16.571   4.211  1.00  0.00     0.259 A 
HETATM    6  O   UNL     1      43.562 -16.119   5.244  1.00  0.00    -0.267 OA
HETATM    7  N   UNL     1      42.266 -15.832   3.398  1.00  0.00    -0.310 N 
HETATM    8  C   UNL     1      43.066 -19.625   2.064  1.00  0.00     0.048 A 
HETATM    9  C   UNL     1      43.929 -20.490   2.758  1.00  0.00     0.050 A 
HETATM   10  C   UNL     1      44.501 -20.056   3.967  1.00  0.00     0.017 A 
HETATM   11  C   UNL     1      44.220 -18.784   4.467  1.00  0.00     0.020 A 
HETATM   12  H   UNL     1      42.136 -14.866   3.667  1.00  0.00     0.170 HD
ENDROOT
BRANCH   1  13
HETATM   13  C   UNL     1      40.891 -15.318   1.428  1.00  0.00     0.171 C 
BRANCH  13  14
HETATM   14  N   UNL     1      41.706 -14.251   0.811  1.00  0.00    -0.284 NA
HETATM   15  H   UNL     1      42.688 -14.456   1.005  1.00  0.00     0.128 HD
BRANCH  14  16
HETATM   16  C   UNL     1      41.592 -14.196  -0.602  1.00  0.00     0.042 A 
HETATM   17  C   UNL     1      42.099 -13.097  -1.325  1.00  0.00     0.089 A 
HETATM   18  C   UNL     1      42.052 -13.099  -2.721  1.00  0.00     0.038 A 
HETATM   19  C   UNL     1      41.481 -14.177  -3.402  1.00  0.00     0.003 A 
HETATM   20  C   UNL     1      40.957 -15.256  -2.692  1.00  0.00     0.002 A 
HETATM   21  C   UNL     1      41.015 -15.264  -1.298  1.00  0.00     0.026 A 
BRANCH  17  22
HETATM   22  O   UNL     1      42.654 -12.088  -0.574  1.00  0.00    -0.354 OA
HETATM   23  C   UNL     1      43.140 -10.983  -1.330  1.00  0.00     0.210 C 
ENDBRANCH  17  22
ENDBRANCH  14  16
ENDBRANCH  13  14
ENDBRANCH   1  13
BRANCH   9  24
HETATM   24  C   UNL     1      44.272 -21.852   2.205  1.00  0.00     0.417 C 
HETATM   25  F   UNL     1      44.363 -22.822   3.155  1.00  0.00    -0.166 F 
HETATM   26  F   UNL     1      43.347 -22.290   1.307  1.00  0.00    -0.166 F 
HETATM   27  F   UNL     1      45.465 -21.860   1.548  1.00  0.00    -0.166 F 
ENDBRANCH   9  24
TORSDOF 5
ENDMDL
MODEL 3
REMARK VINA RESULT:      -8.3      3.769      7.673
REMARK  5 active torsions:
REMARK  status: ('A' for Active; 'I' for Inactive)
REMARK    1  A    between atoms: O_2  and  C_3 
REMARK    2  A    between atoms: C_4  and  N_5 
REMARK    3  A    between atoms: N_5  and  C_6 
REMARK    4  A    between atoms: C_6  and  C_7 
REMARK    5  A    between atoms: C_15  and  C_16 
ROOT
HETATM    1  C   UNL     1      41.667 -16.803   2.772  1.00  0.00     0.120 A 
HETATM    2  N   UNL     1      41.859 -16.838   1.490  1.00  0.00    -0.233 NA
HETATM    3  C   UNL     1      41.174 -15.909   0.693  1.00  0.00     0.075 A 
HETATM    4  C   UNL     1      40.335 -14.932   1.229  1.00  0.00     0.061 A 
HETATM    5  C   UNL     1      40.170 -14.909   2.692  1.00  0.00     0.259 A 
HETATM    6  O   UNL     1      39.447 -14.095   3.254  1.00  0.00    -0.267 OA
HETATM    7  N   UNL     1      40.865 -15.867   3.380  1.00  0.00    -0.310 N 
HETATM    8  C   UNL     1      41.310 -15.991  -0.694  1.00  0.00     0.048 A 
HETATM    9  C   UNL     1      40.621 -15.108  -1.543  1.00  0.00     0.050 A 
HETATM   10  C   UNL     1      39.789 -14.126  -0.976  1.00  0.00     0.017 A 
HETATM   11  C   UNL     1      39.645 -14.035   0.408  1.00  0.00     0.020 A 
HETATM   12  H   UNL     1      40.692 -15.907   4.375  1.00  0.00     0.170 HD
ENDROOT
BRANCH   1  13
HETATM   13  C   UNL     1      42.316 -17.825   3.701  1.00  0.00     0.171 C 
BRANCH  13  14
HETATM   14  N   UNL     1      43.724 -18.097   3.346  1.00  0.00    -0.284 NA
HETATM   15  H   UNL     1      44.308 -17.795   4.128  1.00  0.00     0.128 HD
BRANCH  14  16
HETATM   16  C   UNL     1      44.005 -19.476   3.160  1.00  0.00     0.042 A 
HETATM   17  C   UNL     1      44.595 -20.237   4.189  1.00  0.00     0.089 A 
HETATM   18  C   UNL     1      44.788 -21.610   4.019  1.00  0.00     0.038 A 
HETATM   19  C   UNL     1      44.419 -22.226   2.820  1.00  0.00     0.003 A 
HETATM   20  C   UNL     1      43.856 -21.475   1.791  1.00  0.00     0.002 A 
HETATM   21  C   UNL     1      43.649 -20.106   1.962  1.00  0.00     0.026 A 
BRANCH  17  22
HETATM   22  O   UNL     1      44.913 -19.550   5.337  1.00  0.00    -0.354 OA
HETATM   23  C   UNL     1      44.044 -19.799   6.439  1.00  0.00     0.210 C 
ENDBRANCH  17  22
ENDBRANCH  14  16
ENDBRANCH  13  14
ENDBRANCH   1  13
BRANCH   9  24
HETATM   24  C   UNL     1      40.738 -15.226  -3.044  1.00  0.00     0.417 C 
HETATM   25  F   UNL     1      42.018 -15.150  -3.501  1.00  0.00    -0.166 F 
HETATM   26  F   UNL     1      40.243 -16.406  -3.507  1.00  0.00    -0.166 F 
HETATM   27  F   UNL     1      40.051 -14.249  -3.697  1.00  0.00    -0.166 F 
ENDBRANCH   9  24
TORSDOF 5
ENDMDL
MODEL 4
REMARK VINA RESULT:      -8.2      1.524      2.166
REMARK  5 active torsions:
REMARK  status: ('A' for Active; 'I' for Inactive)
REMARK    1  A    between atoms: O_2  and  C_3 
REMARK    2  A    between atoms: C_4  and  N_5 
REMARK    3  A    between atoms: N_5  and  C_6 
REMARK    4  A    between atoms: C_6  and  C_7 
REMARK    5  A    between atoms: C_15  and  C_16 
ROOT
HETATM    1  C   UNL     1      42.496 -16.101   3.106  1.00  0.00     0.120 A 
HETATM    2  N   UNL     1      42.564 -17.246   2.502  1.00  0.00    -0.233 NA
HETATM    3  C   UNL     1      43.250 -18.290   3.140  1.00  0.00     0.075 A 
HETATM    4  C   UNL     1      43.819 -18.153   4.407  1.00  0.00     0.061 A 
HETATM    5  C   UNL     1      43.690 -16.845   5.069  1.00  0.00     0.259 A 
HETATM    6  O   UNL     1      44.164 -16.626   6.177  1.00  0.00    -0.267 OA
HETATM    7  N   UNL     1      43.020 -15.886   4.358  1.00  0.00    -0.310 N 
HETATM    8  C   UNL     1      43.399 -19.502   2.463  1.00  0.00     0.048 A 
HETATM    9  C   UNL     1      44.106 -20.572   3.040  1.00  0.00     0.050 A 
HETATM   10  C   UNL     1      44.661 -20.410   4.321  1.00  0.00     0.017 A 
HETATM   11  C   UNL     1      44.518 -19.204   5.007  1.00  0.00     0.020 A 
HETATM   12  H   UNL     1      43.000 -14.964   4.772  1.00  0.00     0.170 HD
ENDROOT
BRANCH   1  13
HETATM   13  C   UNL     1      41.832 -14.894   2.448  1.00  0.00     0.171 C 
BRANCH  13  14
HETATM   14  N   UNL     1      41.622 -15.085   0.998  1.00  0.00    -0.284 NA
HETATM   15  H   UNL     1      41.633 -16.090   0.810  1.00  0.00     0.128 HD
BRANCH  14  16
HETATM   16  C   UNL     1      40.363 -14.617   0.542  1.00  0.00     0.042 A 
HETATM   17  C   UNL     1      40.165 -14.282  -0.813  1.00  0.00     0.089 A 
HETATM   18  C   UNL     1      38.897 -13.903  -1.260  1.00  0.00     0.038 A 
HETATM   19  C   UNL     1      37.829 -13.832  -0.361  1.00  0.00     0.003 A 
HETATM   20  C   UNL     1      38.024 -14.141   0.983  1.00  0.00     0.002 A 
HETATM   21  C   UNL     1      39.285 -14.533   1.431  1.00  0.00     0.026 A 
BRANCH  17  22
HETATM   22  O   UNL     1      41.268 -14.393  -1.627  1.00  0.00    -0.354 OA
HETATM   23  C   UNL     1      41.001 -14.928  -2.920  1.00  0.00     0.210 C 
ENDBRANCH  17  22
ENDBRANCH  14  16
ENDBRANCH  13  14
ENDBRANCH   1  13
BRANCH   9  24
HETATM   24  C   UNL     1      44.302 -21.866   2.288  1.00  0.00     0.417 C 
HETATM   25  F   UNL     1      45.356 -21.845   1.427  1.00  0.00    -0.166 F 
HETATM   26  F   UNL     1      44.521 -22.919   3.123  1.00  0.00    -0.166 F 
HETATM   27  F   UNL     1      43.215 -22.202   1.539  1.00  0.00    -0.166 F 
ENDBRANCH   9  24
TORSDOF 5
ENDMDL
MODEL 5
REMARK VINA RESULT:      -8.1      1.956      2.694
REMARK  5 active torsions:
REMARK  status: ('A' for Active; 'I' for Inactive)
REMARK    1  A    between atoms: O_2  and  C_3 
REMARK    2  A    between atoms: C_4  and  N_5 
REMARK    3  A    between atoms: N_5  and  C_6 
REMARK    4  A    between atoms: C_6  and  C_7 
REMARK    5  A    between atoms: C_15  and  C_16 
ROOT
HETATM    1  C   UNL     1      42.031 -16.414   3.881  1.00  0.00     0.120 A 
HETATM    2  N   UNL     1      42.113 -17.522   3.212  1.00  0.00    -0.233 NA
HETATM    3  C   UNL     1      43.062 -18.471   3.620  1.00  0.00     0.075 A 
HETATM    4  C   UNL     1      43.882 -18.285   4.733  1.00  0.00     0.061 A 
HETATM    5  C   UNL     1      43.733 -17.026   5.482  1.00  0.00     0.259 A 
HETATM    6  O   UNL     1      44.415 -16.768   6.466  1.00  0.00    -0.267 OA
HETATM    7  N   UNL     1      42.794 -16.157   4.994  1.00  0.00    -0.310 N 
HETATM    8  C   UNL     1      43.215 -19.632   2.859  1.00  0.00     0.048 A 
HETATM    9  C   UNL     1      44.173 -20.602   3.201  1.00  0.00     0.050 A 
HETATM   10  C   UNL     1      44.980 -20.393   4.333  1.00  0.00     0.017 A 
HETATM   11  C   UNL     1      44.836 -19.238   5.101  1.00  0.00     0.020 A 
HETATM   12  H   UNL     1      42.745 -15.259   5.455  1.00  0.00     0.170 HD
ENDROOT
BRANCH   1  13
HETATM   13  C   UNL     1      41.077 -15.301   3.458  1.00  0.00     0.171 C 
BRANCH  13  14
HETATM   14  N   UNL     1      39.997 -15.786   2.575  1.00  0.00    -0.284 NA
HETATM   15  H   UNL     1      39.110 -15.433   2.943  1.00  0.00     0.128 HD
BRANCH  14  16
HETATM   16  C   UNL     1      40.089 -15.299   1.246  1.00  0.00     0.042 A 
HETATM   17  C   UNL     1      39.268 -14.240   0.808  1.00  0.00     0.089 A 
HETATM   18  C   UNL     1      39.430 -13.718  -0.478  1.00  0.00     0.038 A 
HETATM   19  C   UNL     1      40.389 -14.261  -1.339  1.00  0.00     0.003 A 
HETATM   20  C   UNL     1      41.187 -15.322  -0.919  1.00  0.00     0.002 A 
HETATM   21  C   UNL     1      41.037 -15.837   0.369  1.00  0.00     0.026 A 
BRANCH  17  22
HETATM   22  O   UNL     1      38.363 -13.761   1.725  1.00  0.00    -0.354 OA
HETATM   23  C   UNL     1      38.582 -12.411   2.126  1.00  0.00     0.210 C 
ENDBRANCH  17  22
ENDBRANCH  14  16
ENDBRANCH  13  14
ENDBRANCH   1  13
BRANCH   9  24
HETATM   24  C   UNL     1      44.365 -21.835   2.351  1.00  0.00     0.417 C 
HETATM   25  F   UNL     1      45.455 -21.775   1.538  1.00  0.00    -0.166 F 
HETATM   26  F   UNL     1      44.519 -22.959   3.103  1.00  0.00    -0.166 F 
HETATM   27  F   UNL     1      43.303 -22.074   1.534  1.00  0.00    -0.166 F 
ENDBRANCH   9  24
TORSDOF 5
ENDMDL
MODEL 6
REMARK VINA RESULT:      -8.0      3.469      4.830
REMARK  5 active torsions:
REMARK  status: ('A' for Active; 'I' for Inactive)
REMARK    1  A    between atoms: O_2  and  C_3 
REMARK    2  A    between atoms: C_4  and  N_5 
REMARK    3  A    between atoms: N_5  and  C_6 
REMARK    4  A    between atoms: C_6  and  C_7 
REMARK    5  A    between atoms: C_15  and  C_16 
ROOT
HETATM    1  C   UNL     1      43.265 -16.043   4.868  1.00  0.00     0.120 A 
HETATM    2  N   UNL     1      43.628 -17.158   5.422  1.00  0.00    -0.233 NA
HETATM    3  C   UNL     1      43.908 -18.250   4.588  1.00  0.00     0.075 A 
HETATM    4  C   UNL     1      43.853 -18.167   3.196  1.00  0.00     0.061 A 
HETATM    5  C   UNL     1      43.468 -16.873   2.609  1.00  0.00     0.259 A 
HETATM    6  O   UNL     1      43.382 -16.707   1.399  1.00  0.00    -0.267 OA
HETATM    7  N   UNL     1      43.196 -15.875   3.506  1.00  0.00    -0.310 N 
HETATM    8  C   UNL     1      44.220 -19.477   5.177  1.00  0.00     0.048 A 
HETATM    9  C   UNL     1      44.478 -20.614   4.391  1.00  0.00     0.050 A 
HETATM   10  C   UNL     1      44.424 -20.500   2.990  1.00  0.00     0.017 A 
HETATM   11  C   UNL     1      44.114 -19.280   2.390  1.00  0.00     0.020 A 
HETATM   12  H   UNL     1      42.852 -15.011   3.111  1.00  0.00     0.170 HD
ENDROOT
BRANCH   1  13
HETATM   13  C   UNL     1      42.871 -14.831   5.707  1.00  0.00     0.171 C 
BRANCH  13  14
HETATM   14  N   UNL     1      41.421 -14.780   5.982  1.00  0.00    -0.284 NA
HETATM   15  H   UNL     1      41.298 -14.639   6.987  1.00  0.00     0.128 HD
BRANCH  14  16
HETATM   16  C   UNL     1      40.762 -13.693   5.352  1.00  0.00     0.042 A 
HETATM   17  C   UNL     1      40.081 -13.872   4.131  1.00  0.00     0.089 A 
HETATM   18  C   UNL     1      39.369 -12.810   3.568  1.00  0.00     0.038 A 
HETATM   19  C   UNL     1      39.350 -11.565   4.201  1.00  0.00     0.003 A 
HETATM   20  C   UNL     1      40.039 -11.376   5.397  1.00  0.00     0.002 A 
HETATM   21  C   UNL     1      40.740 -12.437   5.969  1.00  0.00     0.026 A 
BRANCH  17  22
HETATM   22  O   UNL     1      40.143 -15.133   3.587  1.00  0.00    -0.354 OA
HETATM   23  C   UNL     1      39.904 -15.186   2.183  1.00  0.00     0.210 C 
ENDBRANCH  17  22
ENDBRANCH  14  16
ENDBRANCH  13  14
ENDBRANCH   1  13
BRANCH   9  24
HETATM   24  C   UNL     1      44.773 -21.948   5.031  1.00  0.00     0.417 C 
HETATM   25  F   UNL     1      46.102 -22.214   5.155  1.00  0.00    -0.166 F 
HETATM   26  F   UNL     1      44.252 -22.043   6.286  1.00  0.00    -0.166 F 
HETATM   27  F   UNL     1      44.248 -22.989   4.328  1.00  0.00    -0.166 F 
ENDBRANCH   9  24
TORSDOF 5
ENDMDL
MODEL 7
REMARK VINA RESULT:      -7.9      3.710      5.356
REMARK  5 active torsions:
REMARK  status: ('A' for Active; 'I' for Inactive)
REMARK    1  A    between atoms: O_2  and  C_3 
REMARK    2  A    between atoms: C_4  and  N_5 
REMARK    3  A    between atoms: N_5  and  C_6 
REMARK    4  A    between atoms: C_6  and  C_7 
REMARK    5  A    between atoms: C_15  and  C_16 
ROOT
HETATM    1  C   UNL     1      41.133 -15.975   4.910  1.00  0.00     0.120 A 
HETATM    2  N   UNL     1      42.091 -16.828   5.093  1.00  0.00    -0.233 NA
HETATM    3  C   UNL     1      42.469 -17.640   4.013  1.00  0.00     0.075 A 
HETATM    4  C   UNL     1      41.886 -17.532   2.750  1.00  0.00     0.061 A 
HETATM    5  C   UNL     1      40.823 -16.527   2.579  1.00  0.00     0.259 A 
HETATM    6  O   UNL     1      40.245 -16.365   1.511  1.00  0.00    -0.267 OA
HETATM    7  N   UNL     1      40.514 -15.798   3.697  1.00  0.00    -0.310 N 
HETATM    8  C   UNL     1      43.444 -18.618   4.222  1.00  0.00     0.048 A 
HETATM    9  C   UNL     1      43.837 -19.481   3.185  1.00  0.00     0.050 A 
HETATM   10  C   UNL     1      43.240 -19.345   1.920  1.00  0.00     0.017 A 
HETATM   11  C   UNL     1      42.266 -18.371   1.699  1.00  0.00     0.020 A 
HETATM   12  H   UNL     1      39.731 -15.165   3.606  1.00  0.00     0.170 HD
ENDROOT
BRANCH   1  13
HETATM   13  C   UNL     1      40.613 -15.107   6.053  1.00  0.00     0.171 C 
BRANCH  13  14
HETATM   14  N   UNL     1      39.352 -14.418   5.711  1.00  0.00    -0.284 NA
HETATM   15  H   UNL     1      38.661 -14.658   6.425  1.00  0.00     0.128 HD
BRANCH  14  16
HETATM   16  C   UNL     1      39.456 -13.003   5.730  1.00  0.00     0.042 A 
HETATM   17  C   UNL     1      39.422 -12.261   4.533  1.00  0.00     0.089 A 
HETATM   18  C   UNL     1      39.442 -10.864   4.577  1.00  0.00     0.038 A 
HETATM   19  C   UNL     1      39.522 -10.203   5.806  1.00  0.00     0.003 A 
HETATM   20  C   UNL     1      39.579 -10.932   6.991  1.00  0.00     0.002 A 
HETATM   21  C   UNL     1      39.545 -12.326   6.952  1.00  0.00     0.026 A 
BRANCH  17  22
HETATM   22  O   UNL     1      39.330 -12.994   3.373  1.00  0.00    -0.354 OA
HETATM   23  C   UNL     1      40.188 -12.554   2.323  1.00  0.00     0.210 C 
ENDBRANCH  17  22
ENDBRANCH  14  16
ENDBRANCH  13  14
ENDBRANCH   1  13
BRANCH   9  24
HETATM   24  C   UNL     1      44.860 -20.566   3.425  1.00  0.00     0.417 C 
HETATM   25  F   UNL     1      45.570 -20.403   4.575  1.00  0.00    -0.166 F 
HETATM   26  F   UNL     1      44.292 -21.800   3.507  1.00  0.00    -0.166 F 
HETATM   27  F   UNL     1      45.781 -20.643   2.426  1.00  0.00    -0.166 F 
ENDBRANCH   9  24
TORSDOF 5
ENDMDL
MODEL 8
REMARK VINA RESULT:      -7.9      1.854      2.301
REMARK  5 active torsions:
REMARK  status: ('A' for Active; 'I' for Inactive)
REMARK    1  A    between atoms: O_2  and  C_3 
REMARK    2  A    between atoms: C_4  and  N_5 
REMARK    3  A    between atoms: N_5  and  C_6 
REMARK    4  A    between atoms: C_6  and  C_7 
REMARK    5  A    between atoms: C_15  and  C_16 
ROOT
HETATM    1  C   UNL     1      40.418 -15.972   2.420  1.00  0.00     0.120 A 
HETATM    2  N   UNL     1      41.044 -17.011   1.962  1.00  0.00    -0.233 NA
HETATM    3  C   UNL     1      41.889 -17.712   2.834  1.00  0.00     0.075 A 
HETATM    4  C   UNL     1      42.046 -17.359   4.175  1.00  0.00     0.061 A 
HETATM    5  C   UNL     1      41.292 -16.192   4.661  1.00  0.00     0.259 A 
HETATM    6  O   UNL     1      41.373 -15.800   5.818  1.00  0.00    -0.267 OA
HETATM    7  N   UNL     1      40.510 -15.564   3.729  1.00  0.00    -0.310 N 
HETATM    8  C   UNL     1      42.630 -18.783   2.329  1.00  0.00     0.048 A 
HETATM    9  C   UNL     1      43.518 -19.500   3.149  1.00  0.00     0.050 A 
HETATM   10  C   UNL     1      43.650 -19.129   4.499  1.00  0.00     0.017 A 
HETATM   11  C   UNL     1      42.915 -18.062   5.015  1.00  0.00     0.020 A 
HETATM   12  H   UNL     1      40.055 -14.715   4.036  1.00  0.00     0.170 HD
ENDROOT
BRANCH   1  13
HETATM   13  C   UNL     1      39.538 -15.112   1.517  1.00  0.00     0.171 C 
BRANCH  13  14
HETATM   14  N   UNL     1      40.326 -14.223   0.640  1.00  0.00    -0.284 NA
HETATM   15  H   UNL     1      41.316 -14.381   0.841  1.00  0.00     0.128 HD
BRANCH  14  16
HETATM   16  C   UNL     1      40.162 -14.499  -0.742  1.00  0.00     0.042 A 
HETATM   17  C   UNL     1      39.165 -13.846  -1.495  1.00  0.00     0.089 A 
HETATM   18  C   UNL     1      39.071 -14.068  -2.871  1.00  0.00     0.038 A 
HETATM   19  C   UNL     1      39.949 -14.957  -3.498  1.00  0.00     0.003 A 
HETATM   20  C   UNL     1      40.922 -15.622  -2.755  1.00  0.00     0.002 A 
HETATM   21  C   UNL     1      41.027 -15.392  -1.384  1.00  0.00     0.026 A 
BRANCH  17  22
HETATM   22  O   UNL     1      38.356 -12.980  -0.798  1.00  0.00    -0.354 OA
HETATM   23  C   UNL     1      37.728 -11.981  -1.596  1.00  0.00     0.210 C 
ENDBRANCH  17  22
ENDBRANCH  14  16
ENDBRANCH  13  14
ENDBRANCH   1  13
BRANCH   9  24
HETATM   24  C   UNL     1      44.348 -20.630   2.590  1.00  0.00     0.417 C 
HETATM   25  F   UNL     1      44.334 -21.753   3.359  1.00  0.00    -0.166 F 
HETATM   26  F   UNL     1      43.926 -21.016   1.354  1.00  0.00    -0.166 F 
HETATM   27  F   UNL     1      45.659 -20.291   2.449  1.00  0.00    -0.166 F 
ENDBRANCH   9  24
TORSDOF 5
ENDMDL
MODEL 9
REMARK VINA RESULT:      -7.7      2.511      3.340
REMARK  5 active torsions:
REMARK  status: ('A' for Active; 'I' for Inactive)
REMARK    1  A    between atoms: O_2  and  C_3 
REMARK    2  A    between atoms: C_4  and  N_5 
REMARK    3  A    between atoms: N_5  and  C_6 
REMARK    4  A    between atoms: C_6  and  C_7 
REMARK    5  A    between atoms: C_15  and  C_16 
ROOT
HETATM    1  C   UNL     1      42.220 -16.107   3.061  1.00  0.00     0.120 A 
HETATM    2  N   UNL     1      42.317 -17.258   2.473  1.00  0.00    -0.233 NA
HETATM    3  C   UNL     1      43.070 -18.261   3.102  1.00  0.00     0.075 A 
HETATM    4  C   UNL     1      43.677 -18.078   4.344  1.00  0.00     0.061 A 
HETATM    5  C   UNL     1      43.515 -16.765   4.991  1.00  0.00     0.259 A 
HETATM    6  O   UNL     1      44.019 -16.507   6.077  1.00  0.00    -0.267 OA
HETATM    7  N   UNL     1      42.779 -15.848   4.289  1.00  0.00    -0.310 N 
HETATM    8  C   UNL     1      43.248 -19.477   2.439  1.00  0.00     0.048 A 
HETATM    9  C   UNL     1      44.020 -20.505   3.006  1.00  0.00     0.050 A 
HETATM   10  C   UNL     1      44.613 -20.298   4.263  1.00  0.00     0.017 A 
HETATM   11  C   UNL     1      44.442 -19.088   4.935  1.00  0.00     0.020 A 
HETATM   12  H   UNL     1      42.734 -14.922   4.690  1.00  0.00     0.170 HD
ENDROOT
BRANCH   1  13
HETATM   13  C   UNL     1      41.482 -14.941   2.410  1.00  0.00     0.171 C 
BRANCH  13  14
HETATM   14  N   UNL     1      40.030 -14.969   2.682  1.00  0.00    -0.284 NA
HETATM   15  H   UNL     1      39.898 -15.302   3.639  1.00  0.00     0.128 HD
BRANCH  14  16
HETATM   16  C   UNL     1      39.419 -13.690   2.626  1.00  0.00     0.042 A 
HETATM   17  C   UNL     1      38.611 -13.323   1.531  1.00  0.00     0.089 A 
HETATM   18  C   UNL     1      37.950 -12.092   1.532  1.00  0.00     0.038 A 
HETATM   19  C   UNL     1      38.109 -11.213   2.608  1.00  0.00     0.003 A 
HETATM   20  C   UNL     1      38.924 -11.561   3.682  1.00  0.00     0.002 A 
HETATM   21  C   UNL     1      39.574 -12.795   3.690  1.00  0.00     0.026 A 
BRANCH  17  22
HETATM   22  O   UNL     1      38.502 -14.255   0.526  1.00  0.00    -0.354 OA
HETATM   23  C   UNL     1      38.040 -13.735  -0.718  1.00  0.00     0.210 C 
ENDBRANCH  17  22
ENDBRANCH  14  16
ENDBRANCH  13  14
ENDBRANCH   1  13
BRANCH   9  24
HETATM   24  C   UNL     1      44.245 -21.803   2.267  1.00  0.00     0.417 C 
HETATM   25  F   UNL     1      43.222 -22.145   1.437  1.00  0.00    -0.166 F 
HETATM   26  F   UNL     1      45.362 -21.766   1.490  1.00  0.00    -0.166 F 
HETATM   27  F   UNL     1      44.410 -22.859   3.111  1.00  0.00    -0.166 F 
ENDBRANCH   9  24
TORSDOF 5
ENDMDL
MODEL 10
REMARK VINA RESULT:      -7.6      2.313      3.016
REMARK  5 active torsions:
REMARK  status: ('A' for Active; 'I' for Inactive)
REMARK    1  A    between atoms: O_2  and  C_3 
REMARK    2  A    between atoms: C_4  and  N_5 
REMARK    3  A    between atoms: N_5  and  C_6 
REMARK    4  A    between atoms: C_6  and  C_7 
REMARK    5  A    between atoms: C_15  and  C_16 
ROOT
HETATM    1  C   UNL     1      41.549 -16.702   1.777  1.00  0.00     0.120 A 
HETATM    2  N   UNL     1      42.259 -17.562   2.438  1.00  0.00    -0.233 NA
HETATM    3  C   UNL     1      42.266 -17.475   3.838  1.00  0.00     0.075 A 
HETATM    4  C   UNL     1      41.511 -16.534   4.538  1.00  0.00     0.061 A 
HETATM    5  C   UNL     1      40.694 -15.598   3.748  1.00  0.00     0.259 A 
HETATM    6  O   UNL     1      40.007 -14.730   4.272  1.00  0.00    -0.267 OA
HETATM    7  N   UNL     1      40.769 -15.751   2.389  1.00  0.00    -0.310 N 
HETATM    8  C   UNL     1      43.091 -18.344   4.557  1.00  0.00     0.048 A 
HETATM    9  C   UNL     1      43.164 -18.280   5.959  1.00  0.00     0.050 A 
HETATM   10  C   UNL     1      42.386 -17.328   6.639  1.00  0.00     0.017 A 
HETATM   11  C   UNL     1      41.558 -16.455   5.933  1.00  0.00     0.020 A 
HETATM   12  H   UNL     1      40.276 -15.060   1.841  1.00  0.00     0.170 HD
ENDROOT
BRANCH   1  13
HETATM   13  C   UNL     1      41.545 -16.682   0.251  1.00  0.00     0.171 C 
BRANCH  13  14
HETATM   14  N   UNL     1      40.559 -15.729  -0.299  1.00  0.00    -0.284 NA
HETATM   15  H   UNL     1      40.183 -15.184   0.479  1.00  0.00     0.128 HD
BRANCH  14  16
HETATM   16  C   UNL     1      41.122 -14.787  -1.199  1.00  0.00     0.042 A 
HETATM   17  C   UNL     1      41.004 -14.961  -2.592  1.00  0.00     0.089 A 
HETATM   18  C   UNL     1      41.492 -13.983  -3.462  1.00  0.00     0.038 A 
HETATM   19  C   UNL     1      42.118 -12.842  -2.951  1.00  0.00     0.003 A 
HETATM   20  C   UNL     1      42.257 -12.675  -1.575  1.00  0.00     0.002 A 
HETATM   21  C   UNL     1      41.759 -13.644  -0.704  1.00  0.00     0.026 A 
BRANCH  17  22
HETATM   22  O   UNL     1      40.362 -16.106  -3.003  1.00  0.00    -0.354 OA
HETATM   23  C   UNL     1      39.278 -15.889  -3.902  1.00  0.00     0.210 C 
ENDBRANCH  17  22
ENDBRANCH  14  16
ENDBRANCH  13  14
ENDBRANCH   1  13
BRANCH   9  24
HETATM   24  C   UNL     1      44.088 -19.192   6.729  1.00  0.00     0.417 C 
HETATM   25  F   UNL     1      44.566 -20.234   5.995  1.00  0.00    -0.166 F 
HETATM   26  F   UNL     1      45.183 -18.534   7.202  1.00  0.00    -0.166 F 
HETATM   27  F   UNL     1      43.485 -19.746   7.816  1.00  0.00    -0.166 F 
ENDBRANCH   9  24
TORSDOF 5
ENDMDL
