MODEL 1
REMARK VINA RESULT:      -8.5      0.000      0.000
REMARK  7 active torsions:
REMARK  status: ('A' for Active; 'I' for Inactive)
REMARK    1  A    between atoms: C_4  and  C_5 
REMARK    2  A    between atoms: C_5  and  N_6 
REMARK       I    between atoms: N_6  and  C_7 
REMARK    3  A    between atoms: C_7  and  C_8 
REMARK    4  A    between atoms: C_8  and  C_9 
REMARK    5  A    between atoms: C_9  and  N_10 
REMARK    6  A    between atoms: N_10  and  C_11 
REMARK    7  A    between atoms: C_13  and  N_14 
ROOT
HETATM    1  N   UNL     1      44.367 -14.703   6.303  1.00  0.00    -0.262 NA
HETATM    2  H   UNL     1      45.106 -14.783   5.597  1.00  0.00     0.130 HD
ENDROOT
BRANCH   1   3
HETATM    3  C   UNL     1      44.067 -16.019   6.883  1.00  0.00     0.104 C 
BRANCH   3   4
HETATM    4  C   UNL     1      42.607 -16.379   6.619  1.00  0.00     0.117 C 
BRANCH   4   5
HETATM    5  C   UNL     1      42.446 -16.917   5.214  1.00  0.00     0.219 C 
HETATM    6  N   UNL     1      43.643 -17.153   4.585  1.00  0.00    -0.357 N 
HETATM    7  H   UNL     1      44.504 -16.848   5.019  1.00  0.00     0.162 HD
HETATM    8  O   UNL     1      41.344 -17.107   4.709  1.00  0.00    -0.274 OA
BRANCH   6   9
HETATM    9  C   UNL     1      43.721 -17.552   3.195  1.00  0.00     0.161 C 
BRANCH   9  10
HETATM   10  C   UNL     1      43.941 -19.038   3.076  1.00  0.00    -0.041 A 
HETATM   11  C   UNL     1      44.595 -19.748   4.095  1.00  0.00     0.009 A 
HETATM   12  C   UNL     1      44.801 -21.123   3.982  1.00  0.00     0.001 A 
HETATM   13  C   UNL     1      44.355 -21.805   2.852  1.00  0.00     0.000 A 
HETATM   14  C   UNL     1      43.708 -21.111   1.831  1.00  0.00     0.001 A 
HETATM   15  C   UNL     1      43.508 -19.734   1.939  1.00  0.00     0.009 A 
ENDBRANCH   9  10
ENDBRANCH   6   9
ENDBRANCH   4   5
ENDBRANCH   3   4
ENDBRANCH   1   3
BRANCH   1  16
HETATM   16  C   UNL     1      44.853 -13.768   7.207  1.00  0.00     0.181 A 
HETATM   17  N   UNL     1      46.074 -13.264   6.984  1.00  0.00    -0.207 NA
HETATM   18  C   UNL     1      46.502 -12.312   7.829  1.00  0.00     0.116 A 
HETATM   19  C   UNL     1      45.734 -11.852   8.912  1.00  0.00     0.031 A 
HETATM   20  C   UNL     1      44.454 -12.420   9.059  1.00  0.00     0.048 A 
HETATM   21  C   UNL     1      46.145 -10.877   9.850  1.00  0.00     0.017 A 
HETATM   22  N   UNL     1      44.058 -13.356   8.190  1.00  0.00    -0.330 N 
HETATM   23  C   UNL     1      43.605 -12.013  10.098  1.00  0.00     0.030 A 
HETATM   24  H   UNL     1      43.128 -13.753   8.231  1.00  0.00     0.168 HD
HETATM   25  C   UNL     1      44.028 -11.043  11.007  1.00  0.00     0.002 A 
HETATM   26  C   UNL     1      45.295 -10.479  10.884  1.00  0.00     0.001 A 
BRANCH  18  27
HETATM   27  N   UNL     1      47.792 -11.847   7.597  1.00  0.00    -0.286 NA
HETATM   28  H   UNL     1      48.459 -12.615   7.643  1.00  0.00     0.125 HD
HETATM   29  H   UNL     1      47.894 -11.324   6.732  1.00  0.00     0.125 HD
ENDBRANCH  18  27
ENDBRANCH   1  16
TORSDOF 7
ENDMDL
MODEL 2
REMARK VINA RESULT:      -8.3      4.388      6.909
REMARK  7 active torsions:
REMARK  status: ('A' for Active; 'I' for Inactive)
REMARK    1  A    between atoms: C_4  and  C_5 
REMARK    2  A    between atoms: C_5  and  N_6 
REMARK       I    between atoms: N_6  and  C_7 
REMARK    3  A    between atoms: C_7  and  C_8 
REMARK    4  A    between atoms: C_8  and  C_9 
REMARK    5  A    between atoms: C_9  and  N_10 
REMARK    6  A    between atoms: N_10  and  C_11 
REMARK    7  A    between atoms: C_13  and  N_14 
ROOT
HETATM    1  N   UNL     1      41.005 -17.230   4.699  1.00  0.00    -0.262 NA
HETATM    2  H   UNL     1      41.707 -17.975   4.642  1.00  0.00     0.130 HD
ENDROOT
BRANCH   1   3
HETATM    3  C   UNL     1      41.332 -16.299   5.786  1.00  0.00     0.104 C 
BRANCH   3   4
HETATM    4  C   UNL     1      42.807 -15.916   5.713  1.00  0.00     0.117 C 
BRANCH   4   5
HETATM    5  C   UNL     1      43.674 -17.089   6.114  1.00  0.00     0.219 C 
HETATM    6  N   UNL     1      44.023 -17.890   5.056  1.00  0.00    -0.357 N 
HETATM    7  H   UNL     1      43.598 -17.736   4.151  1.00  0.00     0.162 HD
HETATM    8  O   UNL     1      44.011 -17.286   7.277  1.00  0.00    -0.274 OA
BRANCH   6   9
HETATM    9  C   UNL     1      44.745 -19.134   5.231  1.00  0.00     0.161 C 
BRANCH   9  10
HETATM   10  C   UNL     1      44.468 -20.079   4.091  1.00  0.00    -0.041 A 
HETATM   11  C   UNL     1      44.819 -21.435   4.185  1.00  0.00     0.009 A 
HETATM   12  C   UNL     1      44.564 -22.308   3.126  1.00  0.00     0.001 A 
HETATM   13  C   UNL     1      43.956 -21.838   1.965  1.00  0.00     0.000 A 
HETATM   14  C   UNL     1      43.606 -20.493   1.857  1.00  0.00     0.001 A 
HETATM   15  C   UNL     1      43.867 -19.616   2.912  1.00  0.00     0.009 A 
ENDBRANCH   9  10
ENDBRANCH   6   9
ENDBRANCH   4   5
ENDBRANCH   3   4
ENDBRANCH   1   3
BRANCH   1  16
HETATM   16  C   UNL     1      41.001 -16.663   3.431  1.00  0.00     0.181 A 
HETATM   17  N   UNL     1      41.979 -17.020   2.588  1.00  0.00    -0.207 NA
HETATM   18  C   UNL     1      41.923 -16.515   1.345  1.00  0.00     0.116 A 
HETATM   19  C   UNL     1      40.906 -15.642   0.920  1.00  0.00     0.031 A 
HETATM   20  C   UNL     1      39.908 -15.337   1.865  1.00  0.00     0.048 A 
HETATM   21  C   UNL     1      40.815 -15.056  -0.363  1.00  0.00     0.017 A 
HETATM   22  N   UNL     1      39.990 -15.870   3.089  1.00  0.00    -0.330 N 
HETATM   23  C   UNL     1      38.841 -14.491   1.531  1.00  0.00     0.030 A 
HETATM   24  H   UNL     1      39.267 -15.716   3.780  1.00  0.00     0.168 HD
HETATM   25  C   UNL     1      38.765 -13.931   0.256  1.00  0.00     0.002 A 
HETATM   26  C   UNL     1      39.751 -14.211  -0.687  1.00  0.00     0.001 A 
BRANCH  18  27
HETATM   27  N   UNL     1      42.979 -16.868   0.511  1.00  0.00    -0.286 NA
HETATM   28  H   UNL     1      42.664 -16.923  -0.455  1.00  0.00     0.125 HD
HETATM   29  H   UNL     1      43.793 -16.266   0.597  1.00  0.00     0.125 HD
ENDBRANCH  18  27
ENDBRANCH   1  16
TORSDOF 7
ENDMDL
MODEL 3
REMARK VINA RESULT:      -8.3      3.632      4.809
REMARK  7 active torsions:
REMARK  status: ('A' for Active; 'I' for Inactive)
REMARK    1  A    between atoms: C_4  and  C_5 
REMARK    2  A    between atoms: C_5  and  N_6 
REMARK       I    between atoms: N_6  and  C_7 
REMARK    3  A    between atoms: C_7  and  C_8 
REMARK    4  A    between atoms: C_8  and  C_9 
REMARK    5  A    between atoms: C_9  and  N_10 
REMARK    6  A    between atoms: N_10  and  C_11 
REMARK    7  A    between atoms: C_13  and  N_14 
ROOT
HETATM    1  N   UNL     1      39.590 -14.826   3.479  1.00  0.00    -0.262 NA
HETATM    2  H   UNL     1      39.359 -13.846   3.671  1.00  0.00     0.130 HD
ENDROOT
BRANCH   1   3
HETATM    3  C   UNL     1      39.718 -15.050   2.033  1.00  0.00     0.104 C 
BRANCH   3   4
HETATM    4  C   UNL     1      39.920 -16.537   1.756  1.00  0.00     0.117 C 
BRANCH   4   5
HETATM    5  C   UNL     1      41.321 -16.789   1.241  1.00  0.00     0.219 C 
HETATM    6  N   UNL     1      41.919 -17.881   1.818  1.00  0.00    -0.357 N 
HETATM    7  H   UNL     1      41.470 -18.343   2.598  1.00  0.00     0.162 HD
HETATM    8  O   UNL     1      41.847 -16.070   0.399  1.00  0.00    -0.274 OA
BRANCH   6   9
HETATM    9  C   UNL     1      43.301 -18.230   1.563  1.00  0.00     0.161 C 
BRANCH   9  10
HETATM   10  C   UNL     1      43.849 -19.091   2.672  1.00  0.00    -0.041 A 
HETATM   11  C   UNL     1      44.031 -18.566   3.962  1.00  0.00     0.009 A 
HETATM   12  C   UNL     1      44.541 -19.365   4.986  1.00  0.00     0.001 A 
HETATM   13  C   UNL     1      44.874 -20.694   4.736  1.00  0.00     0.000 A 
HETATM   14  C   UNL     1      44.703 -21.225   3.459  1.00  0.00     0.001 A 
HETATM   15  C   UNL     1      44.200 -20.426   2.430  1.00  0.00     0.009 A 
ENDBRANCH   9  10
ENDBRANCH   6   9
ENDBRANCH   4   5
ENDBRANCH   3   4
ENDBRANCH   1   3
BRANCH   1  16
HETATM   16  C   UNL     1      40.751 -15.056   4.206  1.00  0.00     0.181 A 
HETATM   17  N   UNL     1      41.809 -14.275   3.950  1.00  0.00    -0.207 NA
HETATM   18  C   UNL     1      42.901 -14.465   4.707  1.00  0.00     0.116 A 
HETATM   19  C   UNL     1      42.968 -15.436   5.722  1.00  0.00     0.031 A 
HETATM   20  C   UNL     1      41.803 -16.197   5.937  1.00  0.00     0.048 A 
HETATM   21  C   UNL     1      44.099 -15.701   6.527  1.00  0.00     0.017 A 
HETATM   22  N   UNL     1      40.730 -15.970   5.171  1.00  0.00    -0.330 N 
HETATM   23  C   UNL     1      41.763 -17.177   6.939  1.00  0.00     0.030 A 
HETATM   24  H   UNL     1      39.859 -16.460   5.327  1.00  0.00     0.168 HD
HETATM   25  C   UNL     1      42.888 -17.415   7.729  1.00  0.00     0.002 A 
HETATM   26  C   UNL     1      44.053 -16.681   7.521  1.00  0.00     0.001 A 
BRANCH  18  27
HETATM   27  N   UNL     1      43.996 -13.672   4.382  1.00  0.00    -0.286 NA
HETATM   28  H   UNL     1      44.209 -13.032   5.144  1.00  0.00     0.125 HD
HETATM   29  H   UNL     1      44.820 -14.197   4.103  1.00  0.00     0.125 HD
ENDBRANCH  18  27
ENDBRANCH   1  16
TORSDOF 7
ENDMDL
MODEL 4
REMARK VINA RESULT:      -8.2      3.474      7.875
REMARK  7 active torsions:
REMARK  status: ('A' for Active; 'I' for Inactive)
REMARK    1  A    between atoms: C_4  and  C_5 
REMARK    2  A    between atoms: C_5  and  N_6 
REMARK       I    between atoms: N_6  and  C_7 
REMARK    3  A    between atoms: C_7  and  C_8 
REMARK    4  A    between atoms: C_8  and  C_9 
REMARK    5  A    between atoms: C_9  and  N_10 
REMARK    6  A    between atoms: N_10  and  C_11 
REMARK    7  A    between atoms: C_13  and  N_14 
ROOT
HETATM    1  N   UNL     1      44.878 -17.715   6.482  1.00  0.00    -0.262 NA
HETATM    2  H   UNL     1      44.779 -16.719   6.257  1.00  0.00     0.130 HD
ENDROOT
BRANCH   1   3
HETATM    3  C   UNL     1      44.068 -18.059   7.658  1.00  0.00     0.104 C 
BRANCH   3   4
HETATM    4  C   UNL     1      43.290 -16.832   8.126  1.00  0.00     0.117 C 
BRANCH   4   5
HETATM    5  C   UNL     1      43.717 -15.610   7.342  1.00  0.00     0.219 C 
HETATM    6  N   UNL     1      42.856 -15.297   6.320  1.00  0.00    -0.357 N 
HETATM    7  H   UNL     1      42.109 -15.936   6.081  1.00  0.00     0.162 HD
HETATM    8  O   UNL     1      44.738 -14.985   7.610  1.00  0.00    -0.274 OA
BRANCH   6   9
HETATM    9  C   UNL     1      43.137 -14.241   5.368  1.00  0.00     0.161 C 
BRANCH   9  10
HETATM   10  C   UNL     1      42.297 -14.401   4.128  1.00  0.00    -0.041 A 
HETATM   11  C   UNL     1      42.712 -13.846   2.907  1.00  0.00     0.009 A 
HETATM   12  C   UNL     1      41.931 -13.994   1.759  1.00  0.00     0.001 A 
HETATM   13  C   UNL     1      40.730 -14.697   1.818  1.00  0.00     0.000 A 
HETATM   14  C   UNL     1      40.305 -15.249   3.025  1.00  0.00     0.001 A 
HETATM   15  C   UNL     1      41.080 -15.096   4.176  1.00  0.00     0.009 A 
ENDBRANCH   9  10
ENDBRANCH   6   9
ENDBRANCH   4   5
ENDBRANCH   3   4
ENDBRANCH   1   3
BRANCH   1  16
HETATM   16  C   UNL     1      44.513 -18.371   5.313  1.00  0.00     0.181 A 
HETATM   17  N   UNL     1      43.972 -17.636   4.333  1.00  0.00    -0.207 NA
HETATM   18  C   UNL     1      43.685 -18.273   3.185  1.00  0.00     0.116 A 
HETATM   19  C   UNL     1      43.920 -19.645   2.994  1.00  0.00     0.031 A 
HETATM   20  C   UNL     1      44.511 -20.335   4.070  1.00  0.00     0.048 A 
HETATM   21  C   UNL     1      43.610 -20.373   1.822  1.00  0.00     0.017 A 
HETATM   22  N   UNL     1      44.794 -19.665   5.192  1.00  0.00    -0.330 N 
HETATM   23  C   UNL     1      44.802 -21.703   3.970  1.00  0.00     0.030 A 
HETATM   24  H   UNL     1      45.264 -20.112   5.968  1.00  0.00     0.168 HD
HETATM   25  C   UNL     1      44.497 -22.399   2.800  1.00  0.00     0.002 A 
HETATM   26  C   UNL     1      43.900 -21.736   1.731  1.00  0.00     0.001 A 
BRANCH  18  27
HETATM   27  N   UNL     1      43.081 -17.491   2.206  1.00  0.00    -0.286 NA
HETATM   28  H   UNL     1      42.815 -16.586   2.589  1.00  0.00     0.125 HD
HETATM   29  H   UNL     1      43.634 -17.383   1.362  1.00  0.00     0.125 HD
ENDBRANCH  18  27
ENDBRANCH   1  16
TORSDOF 7
ENDMDL
MODEL 5
REMARK VINA RESULT:      -8.2      3.546      5.628
REMARK  7 active torsions:
REMARK  status: ('A' for Active; 'I' for Inactive)
REMARK    1  A    between atoms: C_4  and  C_5 
REMARK    2  A    between atoms: C_5  and  N_6 
REMARK       I    between atoms: N_6  and  C_7 
REMARK    3  A    between atoms: C_7  and  C_8 
REMARK    4  A    between atoms: C_8  and  C_9 
REMARK    5  A    between atoms: C_9  and  N_10 
REMARK    6  A    between atoms: N_10  and  C_11 
REMARK    7  A    between atoms: C_13  and  N_14 
ROOT
HETATM    1  N   UNL     1      44.757 -19.437   6.169  1.00  0.00    -0.262 NA
HETATM    2  H   UNL     1      45.022 -19.343   7.155  1.00  0.00     0.130 HD
ENDROOT
BRANCH   1   3
HETATM    3  C   UNL     1      44.141 -20.748   5.926  1.00  0.00     0.104 C 
BRANCH   3   4
HETATM    4  C   UNL     1      45.018 -21.565   4.981  1.00  0.00     0.117 C 
BRANCH   4   5
HETATM    5  C   UNL     1      44.507 -21.449   3.561  1.00  0.00     0.219 C 
HETATM    6  N   UNL     1      44.205 -20.160   3.199  1.00  0.00    -0.357 N 
HETATM    7  H   UNL     1      44.214 -19.430   3.898  1.00  0.00     0.162 HD
HETATM    8  O   UNL     1      44.379 -22.427   2.831  1.00  0.00    -0.274 OA
BRANCH   6   9
HETATM    9  C   UNL     1      43.587 -19.838   1.929  1.00  0.00     0.161 C 
BRANCH   9  10
HETATM   10  C   UNL     1      43.122 -18.405   1.908  1.00  0.00    -0.041 A 
HETATM   11  C   UNL     1      41.815 -18.083   1.509  1.00  0.00     0.009 A 
HETATM   12  C   UNL     1      41.388 -16.755   1.489  1.00  0.00     0.001 A 
HETATM   13  C   UNL     1      42.259 -15.735   1.866  1.00  0.00     0.000 A 
HETATM   14  C   UNL     1      43.560 -16.041   2.259  1.00  0.00     0.001 A 
HETATM   15  C   UNL     1      43.992 -17.369   2.274  1.00  0.00     0.009 A 
ENDBRANCH   9  10
ENDBRANCH   6   9
ENDBRANCH   4   5
ENDBRANCH   3   4
ENDBRANCH   1   3
BRANCH   1  16
HETATM   16  C   UNL     1      43.923 -18.352   5.931  1.00  0.00     0.181 A 
HETATM   17  N   UNL     1      42.669 -18.608   5.536  1.00  0.00    -0.207 NA
HETATM   18  C   UNL     1      41.856 -17.551   5.375  1.00  0.00     0.116 A 
HETATM   19  C   UNL     1      42.273 -16.226   5.593  1.00  0.00     0.031 A 
HETATM   20  C   UNL     1      43.601 -16.052   6.027  1.00  0.00     0.048 A 
HETATM   21  C   UNL     1      41.472 -15.076   5.409  1.00  0.00     0.017 A 
HETATM   22  N   UNL     1      44.376 -17.129   6.188  1.00  0.00    -0.330 N 
HETATM   23  C   UNL     1      44.106 -14.770   6.290  1.00  0.00     0.030 A 
HETATM   24  H   UNL     1      45.319 -17.050   6.547  1.00  0.00     0.168 HD
HETATM   25  C   UNL     1      43.294 -13.649   6.112  1.00  0.00     0.002 A 
HETATM   26  C   UNL     1      41.983 -13.802   5.670  1.00  0.00     0.001 A 
BRANCH  18  27
HETATM   27  N   UNL     1      40.577 -17.848   4.918  1.00  0.00    -0.286 NA
HETATM   28  H   UNL     1      40.426 -17.441   3.997  1.00  0.00     0.125 HD
HETATM   29  H   UNL     1      40.356 -18.840   4.920  1.00  0.00     0.125 HD
ENDBRANCH  18  27
ENDBRANCH   1  16
TORSDOF 7
ENDMDL
MODEL 6
REMARK VINA RESULT:      -8.2      1.929      9.347
REMARK  7 active torsions:
REMARK  status: ('A' for Active; 'I' for Inactive)
REMARK    1  A    between atoms: C_4  and  C_5 
REMARK    2  A    between atoms: C_5  and  N_6 
REMARK       I    between atoms: N_6  and  C_7 
REMARK    3  A    between atoms: C_7  and  C_8 
REMARK    4  A    between atoms: C_8  and  C_9 
REMARK    5  A    between atoms: C_9  and  N_10 
REMARK    6  A    between atoms: N_10  and  C_11 
REMARK    7  A    between atoms: C_13  and  N_14 
ROOT
HETATM    1  N   UNL     1      42.614 -16.472   6.985  1.00  0.00    -0.262 NA
HETATM    2  H   UNL     1      42.387 -17.189   7.682  1.00  0.00     0.130 HD
ENDROOT
BRANCH   1   3
HETATM    3  C   UNL     1      43.892 -15.825   7.311  1.00  0.00     0.104 C 
BRANCH   3   4
HETATM    4  C   UNL     1      44.051 -14.552   6.485  1.00  0.00     0.117 C 
BRANCH   4   5
HETATM    5  C   UNL     1      45.072 -13.636   7.126  1.00  0.00     0.219 C 
HETATM    6  N   UNL     1      44.698 -13.201   8.373  1.00  0.00    -0.357 N 
HETATM    7  H   UNL     1      43.766 -13.396   8.712  1.00  0.00     0.162 HD
HETATM    8  O   UNL     1      46.115 -13.324   6.562  1.00  0.00    -0.274 OA
BRANCH   6   9
HETATM    9  C   UNL     1      45.467 -12.221   9.112  1.00  0.00     0.161 C 
BRANCH   9  10
HETATM   10  C   UNL     1      44.674 -11.686  10.277  1.00  0.00    -0.041 A 
HETATM   11  C   UNL     1      44.439 -10.308  10.409  1.00  0.00     0.009 A 
HETATM   12  C   UNL     1      43.707  -9.815  11.490  1.00  0.00     0.001 A 
HETATM   13  C   UNL     1      43.201 -10.690  12.448  1.00  0.00     0.000 A 
HETATM   14  C   UNL     1      43.431 -12.060  12.330  1.00  0.00     0.001 A 
HETATM   15  C   UNL     1      44.170 -12.555  11.254  1.00  0.00     0.009 A 
ENDBRANCH   9  10
ENDBRANCH   6   9
ENDBRANCH   4   5
ENDBRANCH   3   4
ENDBRANCH   1   3
BRANCH   1  16
HETATM   16  C   UNL     1      42.601 -17.152   5.774  1.00  0.00     0.181 A 
HETATM   17  N   UNL     1      41.727 -16.747   4.844  1.00  0.00    -0.207 NA
HETATM   18  C   UNL     1      41.772 -17.370   3.655  1.00  0.00     0.116 A 
HETATM   19  C   UNL     1      42.675 -18.410   3.372  1.00  0.00     0.031 A 
HETATM   20  C   UNL     1      43.572 -18.757   4.400  1.00  0.00     0.048 A 
HETATM   21  C   UNL     1      42.747 -19.121   2.153  1.00  0.00     0.017 A 
HETATM   22  N   UNL     1      43.505 -18.105   5.566  1.00  0.00    -0.330 N 
HETATM   23  C   UNL     1      44.524 -19.768   4.209  1.00  0.00     0.030 A 
HETATM   24  H   UNL     1      44.164 -18.289   6.311  1.00  0.00     0.168 HD
HETATM   25  C   UNL     1      44.583 -20.451   2.994  1.00  0.00     0.002 A 
HETATM   26  C   UNL     1      43.695 -20.130   1.971  1.00  0.00     0.001 A 
BRANCH  18  27
HETATM   27  N   UNL     1      40.819 -16.958   2.730  1.00  0.00    -0.286 NA
HETATM   28  H   UNL     1      41.099 -17.228   1.789  1.00  0.00     0.125 HD
HETATM   29  H   UNL     1      39.877 -17.274   2.936  1.00  0.00     0.125 HD
ENDBRANCH  18  27
ENDBRANCH   1  16
TORSDOF 7
ENDMDL
MODEL 7
REMARK VINA RESULT:      -8.1      1.914      8.376
REMARK  7 active torsions:
REMARK  status: ('A' for Active; 'I' for Inactive)
REMARK    1  A    between atoms: C_4  and  C_5 
REMARK    2  A    between atoms: C_5  and  N_6 
REMARK       I    between atoms: N_6  and  C_7 
REMARK    3  A    between atoms: C_7  and  C_8 
REMARK    4  A    between atoms: C_8  and  C_9 
REMARK    5  A    between atoms: C_9  and  N_10 
REMARK    6  A    between atoms: N_10  and  C_11 
REMARK    7  A    between atoms: C_13  and  N_14 
ROOT
HETATM    1  N   UNL     1      40.718 -15.982   4.675  1.00  0.00    -0.262 NA
HETATM    2  H   UNL     1      39.841 -16.513   4.672  1.00  0.00     0.130 HD
ENDROOT
BRANCH   1   3
HETATM    3  C   UNL     1      40.804 -15.138   5.874  1.00  0.00     0.104 C 
BRANCH   3   4
HETATM    4  C   UNL     1      41.358 -13.766   5.501  1.00  0.00     0.117 C 
BRANCH   4   5
HETATM    5  C   UNL     1      42.872 -13.789   5.518  1.00  0.00     0.219 C 
HETATM    6  N   UNL     1      43.389 -14.370   6.649  1.00  0.00    -0.357 N 
HETATM    7  H   UNL     1      42.774 -14.612   7.414  1.00  0.00     0.162 HD
HETATM    8  O   UNL     1      43.543 -13.322   4.604  1.00  0.00    -0.274 OA
BRANCH   6   9
HETATM    9  C   UNL     1      44.811 -14.388   6.928  1.00  0.00     0.161 C 
BRANCH   9  10
HETATM   10  C   UNL     1      45.197 -13.231   7.813  1.00  0.00    -0.041 A 
HETATM   11  C   UNL     1      46.424 -12.573   7.636  1.00  0.00     0.009 A 
HETATM   12  C   UNL     1      46.780 -11.503   8.458  1.00  0.00     0.001 A 
HETATM   13  C   UNL     1      45.916 -11.079   9.465  1.00  0.00     0.000 A 
HETATM   14  C   UNL     1      44.697 -11.728   9.655  1.00  0.00     0.001 A 
HETATM   15  C   UNL     1      44.342 -12.802   8.838  1.00  0.00     0.009 A 
ENDBRANCH   9  10
ENDBRANCH   6   9
ENDBRANCH   4   5
ENDBRANCH   3   4
ENDBRANCH   1   3
BRANCH   1  16
HETATM   16  C   UNL     1      41.708 -16.951   4.576  1.00  0.00     0.181 A 
HETATM   17  N   UNL     1      42.398 -17.250   5.685  1.00  0.00    -0.207 NA
HETATM   18  C   UNL     1      43.305 -18.236   5.589  1.00  0.00     0.116 A 
HETATM   19  C   UNL     1      43.551 -18.933   4.394  1.00  0.00     0.031 A 
HETATM   20  C   UNL     1      42.766 -18.569   3.283  1.00  0.00     0.048 A 
HETATM   21  C   UNL     1      44.513 -19.955   4.227  1.00  0.00     0.017 A 
HETATM   22  N   UNL     1      41.864 -17.591   3.421  1.00  0.00    -0.330 N 
HETATM   23  C   UNL     1      42.923 -19.219   2.051  1.00  0.00     0.030 A 
HETATM   24  H   UNL     1      41.246 -17.334   2.662  1.00  0.00     0.168 HD
HETATM   25  C   UNL     1      43.872 -20.232   1.911  1.00  0.00     0.002 A 
HETATM   26  C   UNL     1      44.666 -20.596   2.995  1.00  0.00     0.001 A 
BRANCH  18  27
HETATM   27  N   UNL     1      44.036 -18.486   6.745  1.00  0.00    -0.286 NA
HETATM   28  H   UNL     1      43.905 -17.733   7.417  1.00  0.00     0.125 HD
HETATM   29  H   UNL     1      43.846 -19.390   7.168  1.00  0.00     0.125 HD
ENDBRANCH  18  27
ENDBRANCH   1  16
TORSDOF 7
ENDMDL
MODEL 8
REMARK VINA RESULT:      -8.1      4.369      6.260
REMARK  7 active torsions:
REMARK  status: ('A' for Active; 'I' for Inactive)
REMARK    1  A    between atoms: C_4  and  C_5 
REMARK    2  A    between atoms: C_5  and  N_6 
REMARK       I    between atoms: N_6  and  C_7 
REMARK    3  A    between atoms: C_7  and  C_8 
REMARK    4  A    between atoms: C_8  and  C_9 
REMARK    5  A    between atoms: C_9  and  N_10 
REMARK    6  A    between atoms: N_10  and  C_11 
REMARK    7  A    between atoms: C_13  and  N_14 
ROOT
HETATM    1  N   UNL     1      40.244 -15.890   6.086  1.00  0.00    -0.262 NA
HETATM    2  H   UNL     1      39.245 -16.113   6.025  1.00  0.00     0.130 HD
ENDROOT
BRANCH   1   3
HETATM    3  C   UNL     1      40.999 -17.049   6.581  1.00  0.00     0.104 C 
BRANCH   3   4
HETATM    4  C   UNL     1      42.431 -16.632   6.905  1.00  0.00     0.117 C 
BRANCH   4   5
HETATM    5  C   UNL     1      43.348 -17.836   6.868  1.00  0.00     0.219 C 
HETATM    6  N   UNL     1      44.063 -17.933   5.701  1.00  0.00    -0.357 N 
HETATM    7  H   UNL     1      43.850 -17.313   4.931  1.00  0.00     0.162 HD
HETATM    8  O   UNL     1      43.420 -18.631   7.799  1.00  0.00    -0.274 OA
BRANCH   6   9
HETATM    9  C   UNL     1      44.907 -19.073   5.404  1.00  0.00     0.161 C 
BRANCH   9  10
HETATM   10  C   UNL     1      44.463 -19.751   4.134  1.00  0.00    -0.041 A 
HETATM   11  C   UNL     1      44.779 -21.097   3.894  1.00  0.00     0.009 A 
HETATM   12  C   UNL     1      44.369 -21.723   2.716  1.00  0.00     0.001 A 
HETATM   13  C   UNL     1      43.639 -21.013   1.766  1.00  0.00     0.000 A 
HETATM   14  C   UNL     1      43.323 -19.674   1.990  1.00  0.00     0.001 A 
HETATM   15  C   UNL     1      43.738 -19.044   3.164  1.00  0.00     0.009 A 
ENDBRANCH   9  10
ENDBRANCH   6   9
ENDBRANCH   4   5
ENDBRANCH   3   4
ENDBRANCH   1   3
BRANCH   1  16
HETATM   16  C   UNL     1      40.585 -15.482   4.803  1.00  0.00     0.181 A 
HETATM   17  N   UNL     1      40.981 -14.213   4.641  1.00  0.00    -0.207 NA
HETATM   18  C   UNL     1      41.372 -13.851   3.407  1.00  0.00     0.116 A 
HETATM   19  C   UNL     1      41.367 -14.737   2.315  1.00  0.00     0.031 A 
HETATM   20  C   UNL     1      40.956 -16.057   2.581  1.00  0.00     0.048 A 
HETATM   21  C   UNL     1      41.735 -14.404   0.991  1.00  0.00     0.017 A 
HETATM   22  N   UNL     1      40.586 -16.382   3.824  1.00  0.00    -0.330 N 
HETATM   23  C   UNL     1      40.934 -17.019   1.561  1.00  0.00     0.030 A 
HETATM   24  H   UNL     1      40.333 -17.331   4.067  1.00  0.00     0.168 HD
HETATM   25  C   UNL     1      41.312 -16.671   0.264  1.00  0.00     0.002 A 
HETATM   26  C   UNL     1      41.708 -15.367  -0.020  1.00  0.00     0.001 A 
BRANCH  18  27
HETATM   27  N   UNL     1      41.730 -12.516   3.264  1.00  0.00    -0.286 NA
HETATM   28  H   UNL     1      42.596 -12.436   2.733  1.00  0.00     0.125 HD
HETATM   29  H   UNL     1      41.002 -11.931   2.864  1.00  0.00     0.125 HD
ENDBRANCH  18  27
ENDBRANCH   1  16
TORSDOF 7
ENDMDL
MODEL 9
REMARK VINA RESULT:      -8.0      2.644      9.662
REMARK  7 active torsions:
REMARK  status: ('A' for Active; 'I' for Inactive)
REMARK    1  A    between atoms: C_4  and  C_5 
REMARK    2  A    between atoms: C_5  and  N_6 
REMARK       I    between atoms: N_6  and  C_7 
REMARK    3  A    between atoms: C_7  and  C_8 
REMARK    4  A    between atoms: C_8  and  C_9 
REMARK    5  A    between atoms: C_9  and  N_10 
REMARK    6  A    between atoms: N_10  and  C_11 
REMARK    7  A    between atoms: C_13  and  N_14 
ROOT
HETATM    1  N   UNL     1      44.020 -13.684   7.710  1.00  0.00    -0.262 NA
HETATM    2  H   UNL     1      43.614 -13.769   8.648  1.00  0.00     0.130 HD
ENDROOT
BRANCH   1   3
HETATM    3  C   UNL     1      45.403 -13.196   7.792  1.00  0.00     0.104 C 
BRANCH   3   4
HETATM    4  C   UNL     1      45.507 -12.117   8.867  1.00  0.00     0.117 C 
BRANCH   4   5
HETATM    5  C   UNL     1      44.385 -12.268   9.871  1.00  0.00     0.219 C 
HETATM    6  N   UNL     1      43.373 -11.358   9.692  1.00  0.00    -0.357 N 
HETATM    7  H   UNL     1      43.491 -10.604   9.028  1.00  0.00     0.162 HD
HETATM    8  O   UNL     1      44.406 -13.122  10.752  1.00  0.00    -0.274 OA
BRANCH   6   9
HETATM    9  C   UNL     1      42.262 -11.244  10.614  1.00  0.00     0.161 C 
BRANCH   9  10
HETATM   10  C   UNL     1      42.500 -10.134  11.604  1.00  0.00    -0.041 A 
HETATM   11  C   UNL     1      42.119  -8.816  11.306  1.00  0.00     0.009 A 
HETATM   12  C   UNL     1      42.342  -7.789  12.224  1.00  0.00     0.001 A 
HETATM   13  C   UNL     1      42.947  -8.066  13.448  1.00  0.00     0.000 A 
HETATM   14  C   UNL     1      43.334  -9.369  13.754  1.00  0.00     0.001 A 
HETATM   15  C   UNL     1      43.118 -10.397  12.834  1.00  0.00     0.009 A 
ENDBRANCH   9  10
ENDBRANCH   6   9
ENDBRANCH   4   5
ENDBRANCH   3   4
ENDBRANCH   1   3
BRANCH   1  16
HETATM   16  C   UNL     1      43.886 -14.953   7.160  1.00  0.00     0.181 A 
HETATM   17  N   UNL     1      43.880 -15.996   8.001  1.00  0.00    -0.207 NA
HETATM   18  C   UNL     1      43.682 -17.210   7.461  1.00  0.00     0.116 A 
HETATM   19  C   UNL     1      43.496 -17.411   6.082  1.00  0.00     0.031 A 
HETATM   20  C   UNL     1      43.495 -16.257   5.276  1.00  0.00     0.048 A 
HETATM   21  C   UNL     1      43.315 -18.665   5.456  1.00  0.00     0.017 A 
HETATM   22  N   UNL     1      43.683 -15.065   5.851  1.00  0.00    -0.330 N 
HETATM   23  C   UNL     1      43.298 -16.351   3.891  1.00  0.00     0.030 A 
HETATM   24  H   UNL     1      43.639 -14.208   5.315  1.00  0.00     0.168 HD
HETATM   25  C   UNL     1      43.112 -17.599   3.295  1.00  0.00     0.002 A 
HETATM   26  C   UNL     1      43.123 -18.752   4.075  1.00  0.00     0.001 A 
BRANCH  18  27
HETATM   27  N   UNL     1      43.731 -18.274   8.355  1.00  0.00    -0.286 NA
HETATM   28  H   UNL     1      44.069 -17.959   9.262  1.00  0.00     0.125 HD
HETATM   29  H   UNL     1      42.855 -18.779   8.446  1.00  0.00     0.125 HD
ENDBRANCH  18  27
ENDBRANCH   1  16
TORSDOF 7
ENDMDL
MODEL 10
REMARK VINA RESULT:      -7.9      3.286      7.189
REMARK  7 active torsions:
REMARK  status: ('A' for Active; 'I' for Inactive)
REMARK    1  A    between atoms: C_4  and  C_5 
REMARK    2  A    between atoms: C_5  and  N_6 
REMARK       I    between atoms: N_6  and  C_7 
REMARK    3  A    between atoms: C_7  and  C_8 
REMARK    4  A    between atoms: C_8  and  C_9 
REMARK    5  A    between atoms: C_9  and  N_10 
REMARK    6  A    between atoms: N_10  and  C_11 
REMARK    7  A    between atoms: C_13  and  N_14 
ROOT
HETATM    1  N   UNL     1      39.683 -14.772   3.975  1.00  0.00    -0.262 NA
HETATM    2  H   UNL     1      38.916 -15.417   4.197  1.00  0.00     0.130 HD
ENDROOT
BRANCH   1   3
HETATM    3  C   UNL     1      40.228 -14.181   5.204  1.00  0.00     0.104 C 
BRANCH   3   4
HETATM    4  C   UNL     1      41.217 -13.074   4.850  1.00  0.00     0.117 C 
BRANCH   4   5
HETATM    5  C   UNL     1      42.635 -13.536   5.107  1.00  0.00     0.219 C 
HETATM    6  N   UNL     1      42.777 -14.204   6.298  1.00  0.00    -0.357 N 
HETATM    7  H   UNL     1      42.006 -14.231   6.951  1.00  0.00     0.162 HD
HETATM    8  O   UNL     1      43.548 -13.315   4.319  1.00  0.00    -0.274 OA
BRANCH   6   9
HETATM    9  C   UNL     1      44.070 -14.624   6.799  1.00  0.00     0.161 C 
BRANCH   9  10
HETATM   10  C   UNL     1      44.133 -16.124   6.926  1.00  0.00    -0.041 A 
HETATM   11  C   UNL     1      43.147 -16.824   7.640  1.00  0.00     0.009 A 
HETATM   12  C   UNL     1      43.208 -18.213   7.759  1.00  0.00     0.001 A 
HETATM   13  C   UNL     1      44.253 -18.918   7.166  1.00  0.00     0.000 A 
HETATM   14  C   UNL     1      45.241 -18.235   6.458  1.00  0.00     0.001 A 
HETATM   15  C   UNL     1      45.185 -16.845   6.344  1.00  0.00     0.009 A 
ENDBRANCH   9  10
ENDBRANCH   6   9
ENDBRANCH   4   5
ENDBRANCH   3   4
ENDBRANCH   1   3
BRANCH   1  16
HETATM   16  C   UNL     1      40.584 -15.544   3.253  1.00  0.00     0.181 A 
HETATM   17  N   UNL     1      40.865 -15.162   2.000  1.00  0.00    -0.207 NA
HETATM   18  C   UNL     1      41.788 -15.879   1.339  1.00  0.00     0.116 A 
HETATM   19  C   UNL     1      42.439 -16.990   1.903  1.00  0.00     0.031 A 
HETATM   20  C   UNL     1      42.098 -17.308   3.231  1.00  0.00     0.048 A 
HETATM   21  C   UNL     1      43.393 -17.799   1.245  1.00  0.00     0.017 A 
HETATM   22  N   UNL     1      41.184 -16.563   3.861  1.00  0.00    -0.330 N 
HETATM   23  C   UNL     1      42.707 -18.387   3.888  1.00  0.00     0.030 A 
HETATM   24  H   UNL     1      40.948 -16.727   4.831  1.00  0.00     0.168 HD
HETATM   25  C   UNL     1      43.653 -19.167   3.222  1.00  0.00     0.002 A 
HETATM   26  C   UNL     1      43.993 -18.875   1.904  1.00  0.00     0.001 A 
BRANCH  18  27
HETATM   27  N   UNL     1      42.020 -15.484   0.026  1.00  0.00    -0.286 NA
HETATM   28  H   UNL     1      43.020 -15.412  -0.151  1.00  0.00     0.125 HD
HETATM   29  H   UNL     1      41.567 -16.070  -0.669  1.00  0.00     0.125 HD
ENDBRANCH  18  27
ENDBRANCH   1  16
TORSDOF 7
ENDMDL
