MODEL 1
REMARK VINA RESULT:      -8.1      0.000      0.000
REMARK  3 active torsions:
REMARK  status: ('A' for Active; 'I' for Inactive)
REMARK    1  A    between atoms: C_2  and  N_3 
REMARK    2  A    between atoms: C_7  and  N_8 
REMARK    3  A    between atoms: N_8  and  C_9 
ROOT
HETATM    1  N   UNL     1      40.558 -14.732   2.042  1.00  0.00    -0.230 N 
HETATM    2  C   UNL     1      41.442 -15.161   1.052  1.00  0.00     0.335 A 
HETATM    3  O   UNL     1      41.425 -14.856  -0.140  1.00  0.00    -0.246 OA
HETATM    4  N   UNL     1      42.469 -15.973   1.451  1.00  0.00    -0.294 N 
HETATM    5  C   UNL     1      42.760 -16.343   2.725  1.00  0.00     0.114 A 
HETATM    6  C   UNL     1      41.913 -15.952   3.679  1.00  0.00     0.123 A 
HETATM    7  C   UNL     1      40.723 -15.137   3.366  1.00  0.00     0.259 A 
HETATM    8  O   UNL     1      39.955 -14.926   4.306  1.00  0.00    -0.267 OA
HETATM    9  H   UNL     1      43.099 -16.229   0.703  1.00  0.00     0.172 HD
ENDROOT
BRANCH   5  10
HETATM   10  N   UNL     1      43.860 -17.142   2.952  1.00  0.00    -0.342 N 
HETATM   11  H   UNL     1      44.541 -16.736   3.587  1.00  0.00     0.167 HD
BRANCH  10  12
HETATM   12  C   UNL     1      43.942 -18.554   2.930  1.00  0.00     0.036 A 
HETATM   13  C   UNL     1      44.442 -19.201   4.074  1.00  0.00     0.069 A 
HETATM   14  C   UNL     1      44.552 -20.577   4.063  1.00  0.00     0.107 A 
HETATM   15  C   UNL     1      44.202 -21.322   2.965  1.00  0.00     0.105 A 
HETATM   16  O   UNL     1      45.000 -21.346   5.092  1.00  0.00    -0.323 OA
HETATM   17  O   UNL     1      44.380 -22.655   3.163  1.00  0.00    -0.323 OA
HETATM   18  C   UNL     1      43.727 -20.733   1.818  1.00  0.00     0.042 A 
HETATM   19  C   UNL     1      44.880 -22.664   4.516  1.00  0.00     0.352 A 
HETATM   20  C   UNL     1      43.604 -19.336   1.803  1.00  0.00     0.032 A 
ENDBRANCH  10  12
ENDBRANCH   5  10
BRANCH   1  21
HETATM   21  C   UNL     1      39.443 -13.874   1.690  1.00  0.00     0.047 A 
HETATM   22  C   UNL     1      39.467 -12.489   1.938  1.00  0.00     0.031 A 
HETATM   23  C   UNL     1      38.385 -11.662   1.604  1.00  0.00     0.021 A 
HETATM   24  C   UNL     1      37.254 -12.208   1.010  1.00  0.00     0.011 A 
HETATM   25  C   UNL     1      37.197 -13.571   0.751  1.00  0.00     0.021 A 
HETATM   26 BR   UNL     1      35.796 -11.097   0.557  1.00  0.00    -0.051 Br
HETATM   27  C   UNL     1      38.281 -14.392   1.089  1.00  0.00     0.031 A 
ENDBRANCH   1  21
TORSDOF 3
ENDMDL
MODEL 2
REMARK VINA RESULT:      -8.0      4.301      5.062
REMARK  3 active torsions:
REMARK  status: ('A' for Active; 'I' for Inactive)
REMARK    1  A    between atoms: C_2  and  N_3 
REMARK    2  A    between atoms: C_7  and  N_8 
REMARK    3  A    between atoms: N_8  and  C_9 
ROOT
HETATM    1  N   UNL     1      41.102 -13.591  -2.415  1.00  0.00    -0.230 N 
HETATM    2  C   UNL     1      40.781 -14.872  -2.864  1.00  0.00     0.335 A 
HETATM    3  O   UNL     1      40.564 -15.218  -4.026  1.00  0.00    -0.246 OA
HETATM    4  N   UNL     1      40.746 -15.866  -1.925  1.00  0.00    -0.294 N 
HETATM    5  C   UNL     1      41.066 -15.748  -0.610  1.00  0.00     0.114 A 
HETATM    6  C   UNL     1      41.361 -14.525  -0.165  1.00  0.00     0.123 A 
HETATM    7  C   UNL     1      41.356 -13.355  -1.064  1.00  0.00     0.259 A 
HETATM    8  O   UNL     1      41.535 -12.262  -0.526  1.00  0.00    -0.267 OA
HETATM    9  H   UNL     1      40.541 -16.779  -2.306  1.00  0.00     0.172 HD
ENDROOT
BRANCH   5  10
HETATM   10  N   UNL     1      41.009 -16.866   0.194  1.00  0.00    -0.342 N 
HETATM   11  H   UNL     1      40.524 -17.653  -0.228  1.00  0.00     0.167 HD
BRANCH  10  12
HETATM   12  C   UNL     1      41.927 -17.286   1.184  1.00  0.00     0.036 A 
HETATM   13  C   UNL     1      41.445 -17.468   2.492  1.00  0.00     0.069 A 
HETATM   14  C   UNL     1      42.329 -17.856   3.479  1.00  0.00     0.107 A 
HETATM   15  C   UNL     1      43.662 -18.053   3.218  1.00  0.00     0.105 A 
HETATM   16  O   UNL     1      42.015 -18.086   4.782  1.00  0.00    -0.323 OA
HETATM   17  O   UNL     1      44.356 -18.437   4.321  1.00  0.00    -0.323 OA
HETATM   18  C   UNL     1      44.183 -17.868   1.959  1.00  0.00     0.042 A 
HETATM   19  C   UNL     1      43.305 -18.463   5.308  1.00  0.00     0.352 A 
HETATM   20  C   UNL     1      43.306 -17.476   0.939  1.00  0.00     0.032 A 
ENDBRANCH  10  12
ENDBRANCH   5  10
BRANCH   1  21
HETATM   21  C   UNL     1      41.152 -12.489  -3.356  1.00  0.00     0.047 A 
HETATM   22  C   UNL     1      42.370 -12.014  -3.877  1.00  0.00     0.031 A 
HETATM   23  C   UNL     1      42.417 -10.944  -4.781  1.00  0.00     0.021 A 
HETATM   24  C   UNL     1      41.240 -10.325  -5.184  1.00  0.00     0.011 A 
HETATM   25  C   UNL     1      40.021 -10.768  -4.690  1.00  0.00     0.021 A 
HETATM   26 BR   UNL     1      41.300  -8.884  -6.403  1.00  0.00    -0.051 Br
HETATM   27  C   UNL     1      39.980 -11.838  -3.785  1.00  0.00     0.031 A 
ENDBRANCH   1  21
TORSDOF 3
ENDMDL
MODEL 3
REMARK VINA RESULT:      -8.0      8.160      9.609
REMARK  3 active torsions:
REMARK  status: ('A' for Active; 'I' for Inactive)
REMARK    1  A    between atoms: C_2  and  N_3 
REMARK    2  A    between atoms: C_7  and  N_8 
REMARK    3  A    between atoms: N_8  and  C_9 
ROOT
HETATM    1  N   UNL     1      43.348 -11.375  10.789  1.00  0.00    -0.230 N 
HETATM    2  C   UNL     1      42.801 -10.906   9.594  1.00  0.00     0.335 A 
HETATM    3  O   UNL     1      42.010  -9.973   9.457  1.00  0.00    -0.246 OA
HETATM    4  N   UNL     1      43.217 -11.516   8.443  1.00  0.00    -0.294 N 
HETATM    5  C   UNL     1      44.167 -12.481   8.336  1.00  0.00     0.114 A 
HETATM    6  C   UNL     1      44.688 -12.948   9.473  1.00  0.00     0.123 A 
HETATM    7  C   UNL     1      44.263 -12.427  10.787  1.00  0.00     0.259 A 
HETATM    8  O   UNL     1      44.729 -13.005  11.769  1.00  0.00    -0.267 OA
HETATM    9  H   UNL     1      42.816 -11.119   7.604  1.00  0.00     0.172 HD
ENDROOT
BRANCH   5  10
HETATM   10  N   UNL     1      44.491 -12.963   7.086  1.00  0.00    -0.342 N 
HETATM   11  H   UNL     1      45.426 -12.713   6.777  1.00  0.00     0.167 HD
BRANCH  10  12
HETATM   12  C   UNL     1      44.023 -14.133   6.445  1.00  0.00     0.036 A 
HETATM   13  C   UNL     1      43.120 -13.981   5.378  1.00  0.00     0.069 A 
HETATM   14  C   UNL     1      42.633 -15.112   4.753  1.00  0.00     0.107 A 
HETATM   15  C   UNL     1      42.995 -16.372   5.156  1.00  0.00     0.105 A 
HETATM   16  O   UNL     1      41.769 -15.129   3.703  1.00  0.00    -0.323 OA
HETATM   17  O   UNL     1      42.411 -17.345   4.408  1.00  0.00    -0.323 OA
HETATM   18  C   UNL     1      43.859 -16.572   6.206  1.00  0.00     0.042 A 
HETATM   19  C   UNL     1      41.640 -16.550   3.484  1.00  0.00     0.352 A 
HETATM   20  C   UNL     1      44.370 -15.440   6.856  1.00  0.00     0.032 A 
ENDBRANCH  10  12
ENDBRANCH   5  10
BRANCH   1  21
HETATM   21  C   UNL     1      42.947 -10.778  12.048  1.00  0.00     0.047 A 
HETATM   22  C   UNL     1      43.711  -9.771  12.668  1.00  0.00     0.031 A 
HETATM   23  C   UNL     1      43.326  -9.201  13.889  1.00  0.00     0.021 A 
HETATM   24  C   UNL     1      42.162  -9.628  14.516  1.00  0.00     0.011 A 
HETATM   25  C   UNL     1      41.384 -10.619  13.933  1.00  0.00     0.021 A 
HETATM   26 BR   UNL     1      41.639  -8.860  16.161  1.00  0.00    -0.051 Br
HETATM   27  C   UNL     1      41.775 -11.186  12.713  1.00  0.00     0.031 A 
ENDBRANCH   1  21
TORSDOF 3
ENDMDL
MODEL 4
REMARK VINA RESULT:      -7.8      1.712      2.280
REMARK  3 active torsions:
REMARK  status: ('A' for Active; 'I' for Inactive)
REMARK    1  A    between atoms: C_2  and  N_3 
REMARK    2  A    between atoms: C_7  and  N_8 
REMARK    3  A    between atoms: N_8  and  C_9 
ROOT
HETATM    1  N   UNL     1      40.906 -14.355   2.329  1.00  0.00    -0.230 N 
HETATM    2  C   UNL     1      42.298 -14.269   2.311  1.00  0.00     0.335 A 
HETATM    3  O   UNL     1      42.983 -13.282   2.578  1.00  0.00    -0.246 OA
HETATM    4  N   UNL     1      42.984 -15.413   2.007  1.00  0.00    -0.294 N 
HETATM    5  C   UNL     1      42.450 -16.645   1.797  1.00  0.00     0.114 A 
HETATM    6  C   UNL     1      41.119 -16.737   1.798  1.00  0.00     0.123 A 
HETATM    7  C   UNL     1      40.264 -15.558   2.034  1.00  0.00     0.259 A 
HETATM    8  O   UNL     1      39.053 -15.738   1.904  1.00  0.00    -0.267 OA
HETATM    9  H   UNL     1      43.988 -15.306   2.039  1.00  0.00     0.172 HD
ENDROOT
BRANCH   5  10
HETATM   10  N   UNL     1      43.295 -17.702   1.536  1.00  0.00    -0.342 N 
HETATM   11  H   UNL     1      43.962 -17.522   0.792  1.00  0.00     0.167 HD
BRANCH  10  12
HETATM   12  C   UNL     1      43.758 -18.700   2.425  1.00  0.00     0.036 A 
HETATM   13  C   UNL     1      43.787 -20.028   1.965  1.00  0.00     0.069 A 
HETATM   14  C   UNL     1      44.213 -21.020   2.824  1.00  0.00     0.107 A 
HETATM   15  C   UNL     1      44.593 -20.745   4.114  1.00  0.00     0.105 A 
HETATM   16  O   UNL     1      44.311 -22.343   2.524  1.00  0.00    -0.323 OA
HETATM   17  O   UNL     1      44.984 -21.858   4.789  1.00  0.00    -0.323 OA
HETATM   18  C   UNL     1      44.563 -19.465   4.615  1.00  0.00     0.042 A 
HETATM   19  C   UNL     1      44.810 -22.867   3.773  1.00  0.00     0.352 A 
HETATM   20  C   UNL     1      44.136 -18.439   3.761  1.00  0.00     0.032 A 
ENDBRANCH  10  12
ENDBRANCH   5  10
BRANCH   1  21
HETATM   21  C   UNL     1      40.115 -13.180   2.637  1.00  0.00     0.047 A 
HETATM   22  C   UNL     1      39.696 -12.285   1.635  1.00  0.00     0.031 A 
HETATM   23  C   UNL     1      38.937 -11.145   1.935  1.00  0.00     0.021 A 
HETATM   24  C   UNL     1      38.579 -10.878   3.250  1.00  0.00     0.011 A 
HETATM   25  C   UNL     1      38.974 -11.740   4.264  1.00  0.00     0.021 A 
HETATM   26 BR   UNL     1      37.555  -9.344   3.658  1.00  0.00    -0.051 Br
HETATM   27  C   UNL     1      39.734 -12.877   3.958  1.00  0.00     0.031 A 
ENDBRANCH   1  21
TORSDOF 3
ENDMDL
MODEL 5
REMARK VINA RESULT:      -7.7      4.301      8.497
REMARK  3 active torsions:
REMARK  status: ('A' for Active; 'I' for Inactive)
REMARK    1  A    between atoms: C_2  and  N_3 
REMARK    2  A    between atoms: C_7  and  N_8 
REMARK    3  A    between atoms: N_8  and  C_9 
ROOT
HETATM    1  N   UNL     1      42.144 -16.331   2.077  1.00  0.00    -0.230 N 
HETATM    2  C   UNL     1      41.438 -16.871   1.002  1.00  0.00     0.335 A 
HETATM    3  O   UNL     1      41.014 -18.022   0.897  1.00  0.00    -0.246 OA
HETATM    4  N   UNL     1      41.141 -16.025  -0.031  1.00  0.00    -0.294 N 
HETATM    5  C   UNL     1      41.398 -14.691  -0.084  1.00  0.00     0.114 A 
HETATM    6  C   UNL     1      42.086 -14.166   0.931  1.00  0.00     0.123 A 
HETATM    7  C   UNL     1      42.534 -14.992   2.070  1.00  0.00     0.259 A 
HETATM    8  O   UNL     1      43.253 -14.426   2.894  1.00  0.00    -0.267 OA
HETATM    9  H   UNL     1      40.601 -16.456  -0.768  1.00  0.00     0.172 HD
ENDROOT
BRANCH   5  10
HETATM   10  N   UNL     1      40.996 -13.978  -1.193  1.00  0.00    -0.342 N 
HETATM   11  H   UNL     1      41.712 -13.365  -1.570  1.00  0.00     0.167 HD
BRANCH  10  12
HETATM   12  C   UNL     1      40.046 -14.340  -2.175  1.00  0.00     0.036 A 
HETATM   13  C   UNL     1      38.879 -13.561  -2.279  1.00  0.00     0.069 A 
HETATM   14  C   UNL     1      37.928 -13.911  -3.216  1.00  0.00     0.107 A 
HETATM   15  C   UNL     1      38.086 -15.002  -4.034  1.00  0.00     0.105 A 
HETATM   16  O   UNL     1      36.760 -13.253  -3.447  1.00  0.00    -0.323 OA
HETATM   17  O   UNL     1      37.041 -15.167  -4.887  1.00  0.00    -0.323 OA
HETATM   18  C   UNL     1      39.199 -15.804  -3.955  1.00  0.00     0.042 A 
HETATM   19  C   UNL     1      36.207 -14.051  -4.514  1.00  0.00     0.352 A 
HETATM   20  C   UNL     1      40.181 -15.469  -3.013  1.00  0.00     0.032 A 
ENDBRANCH  10  12
ENDBRANCH   5  10
BRANCH   1  21
HETATM   21  C   UNL     1      42.497 -17.172   3.203  1.00  0.00     0.047 A 
HETATM   22  C   UNL     1      41.674 -17.273   4.340  1.00  0.00     0.031 A 
HETATM   23  C   UNL     1      42.021 -18.081   5.432  1.00  0.00     0.021 A 
HETATM   24  C   UNL     1      43.203 -18.810   5.406  1.00  0.00     0.011 A 
HETATM   25  C   UNL     1      44.039 -18.736   4.300  1.00  0.00     0.021 A 
HETATM   26 BR   UNL     1      43.673 -19.902   6.874  1.00  0.00    -0.051 Br
HETATM   27  C   UNL     1      43.688 -17.924   3.212  1.00  0.00     0.031 A 
ENDBRANCH   1  21
TORSDOF 3
ENDMDL
MODEL 6
REMARK VINA RESULT:      -7.7      5.813      9.178
REMARK  3 active torsions:
REMARK  status: ('A' for Active; 'I' for Inactive)
REMARK    1  A    between atoms: C_2  and  N_3 
REMARK    2  A    between atoms: C_7  and  N_8 
REMARK    3  A    between atoms: N_8  and  C_9 
ROOT
HETATM    1  N   UNL     1      42.230 -15.163   4.624  1.00  0.00    -0.230 N 
HETATM    2  C   UNL     1      41.210 -15.110   5.573  1.00  0.00     0.335 A 
HETATM    3  O   UNL     1      40.623 -16.065   6.085  1.00  0.00    -0.246 OA
HETATM    4  N   UNL     1      40.846 -13.870   6.022  1.00  0.00    -0.294 N 
HETATM    5  C   UNL     1      41.431 -12.688   5.695  1.00  0.00     0.114 A 
HETATM    6  C   UNL     1      42.399 -12.723   4.777  1.00  0.00     0.123 A 
HETATM    7  C   UNL     1      42.828 -13.992   4.157  1.00  0.00     0.259 A 
HETATM    8  O   UNL     1      43.650 -13.894   3.246  1.00  0.00    -0.267 OA
HETATM    9  H   UNL     1      40.127 -13.889   6.731  1.00  0.00     0.172 HD
ENDROOT
BRANCH   5  10
HETATM   10  N   UNL     1      40.958 -11.529   6.271  1.00  0.00    -0.342 N 
HETATM   11  H   UNL     1      40.127 -11.154   5.823  1.00  0.00     0.167 HD
BRANCH  10  12
HETATM   12  C   UNL     1      41.062 -11.109   7.618  1.00  0.00     0.036 A 
HETATM   13  C   UNL     1      42.349 -10.922   8.151  1.00  0.00     0.069 A 
HETATM   14  C   UNL     1      42.473 -10.535   9.470  1.00  0.00     0.107 A 
HETATM   15  C   UNL     1      41.376 -10.344  10.273  1.00  0.00     0.105 A 
HETATM   16  O   UNL     1      43.642 -10.300  10.123  1.00  0.00    -0.323 OA
HETATM   17  O   UNL     1      41.714  -9.960  11.532  1.00  0.00    -0.323 OA
HETATM   18  C   UNL     1      40.099 -10.534   9.802  1.00  0.00     0.042 A 
HETATM   19  C   UNL     1      43.152  -9.927  11.429  1.00  0.00     0.352 A 
HETATM   20  C   UNL     1      39.946 -10.925   8.465  1.00  0.00     0.032 A 
ENDBRANCH  10  12
ENDBRANCH   5  10
BRANCH   1  21
HETATM   21  C   UNL     1      42.662 -16.444   4.100  1.00  0.00     0.047 A 
HETATM   22  C   UNL     1      42.127 -16.976   2.912  1.00  0.00     0.031 A 
HETATM   23  C   UNL     1      42.540 -18.218   2.409  1.00  0.00     0.021 A 
HETATM   24  C   UNL     1      43.503 -18.954   3.089  1.00  0.00     0.011 A 
HETATM   25  C   UNL     1      44.052 -18.459   4.263  1.00  0.00     0.021 A 
HETATM   26 BR   UNL     1      44.063 -20.627   2.414  1.00  0.00    -0.051 Br
HETATM   27  C   UNL     1      43.634 -17.218   4.761  1.00  0.00     0.031 A 
ENDBRANCH   1  21
TORSDOF 3
ENDMDL
MODEL 7
REMARK VINA RESULT:      -7.7      1.043      2.235
REMARK  3 active torsions:
REMARK  status: ('A' for Active; 'I' for Inactive)
REMARK    1  A    between atoms: C_2  and  N_3 
REMARK    2  A    between atoms: C_7  and  N_8 
REMARK    3  A    between atoms: N_8  and  C_9 
ROOT
HETATM    1  N   UNL     1      40.586 -14.506   2.588  1.00  0.00    -0.230 N 
HETATM    2  C   UNL     1      40.578 -14.878   3.932  1.00  0.00     0.335 A 
HETATM    3  O   UNL     1      39.681 -14.678   4.751  1.00  0.00    -0.246 OA
HETATM    4  N   UNL     1      41.661 -15.581   4.385  1.00  0.00    -0.294 N 
HETATM    5  C   UNL     1      42.709 -16.021   3.641  1.00  0.00     0.114 A 
HETATM    6  C   UNL     1      42.736 -15.658   2.356  1.00  0.00     0.123 A 
HETATM    7  C   UNL     1      41.665 -14.832   1.766  1.00  0.00     0.259 A 
HETATM    8  O   UNL     1      41.847 -14.468   0.604  1.00  0.00    -0.267 OA
HETATM    9  H   UNL     1      41.592 -15.854   5.355  1.00  0.00     0.172 HD
ENDROOT
BRANCH   5  10
HETATM   10  N   UNL     1      43.704 -16.750   4.255  1.00  0.00    -0.342 N 
HETATM   11  H   UNL     1      43.962 -16.403   5.174  1.00  0.00     0.167 HD
BRANCH  10  12
HETATM   12  C   UNL     1      44.005 -18.124   4.110  1.00  0.00     0.036 A 
HETATM   13  C   UNL     1      43.757 -18.723   2.862  1.00  0.00     0.069 A 
HETATM   14  C   UNL     1      44.022 -20.069   2.707  1.00  0.00     0.107 A 
HETATM   15  C   UNL     1      44.506 -20.834   3.738  1.00  0.00     0.105 A 
HETATM   16  O   UNL     1      43.850 -20.786   1.564  1.00  0.00    -0.323 OA
HETATM   17  O   UNL     1      44.705 -22.129   3.376  1.00  0.00    -0.323 OA
HETATM   18  C   UNL     1      44.746 -20.298   4.981  1.00  0.00     0.042 A 
HETATM   19  C   UNL     1      44.294 -22.090   1.994  1.00  0.00     0.352 A 
HETATM   20  C   UNL     1      44.486 -18.933   5.164  1.00  0.00     0.032 A 
ENDBRANCH  10  12
ENDBRANCH   5  10
BRANCH   1  21
HETATM   21  C   UNL     1      39.474 -13.753   2.041  1.00  0.00     0.047 A 
HETATM   22  C   UNL     1      39.342 -12.368   2.251  1.00  0.00     0.031 A 
HETATM   23  C   UNL     1      38.262 -11.643   1.728  1.00  0.00     0.021 A 
HETATM   24  C   UNL     1      37.289 -12.294   0.979  1.00  0.00     0.011 A 
HETATM   25  C   UNL     1      37.388 -13.660   0.752  1.00  0.00     0.021 A 
HETATM   26 BR   UNL     1      35.833 -11.320   0.271  1.00  0.00    -0.051 Br
HETATM   27  C   UNL     1      38.469 -14.379   1.279  1.00  0.00     0.031 A 
ENDBRANCH   1  21
TORSDOF 3
ENDMDL
MODEL 8
REMARK VINA RESULT:      -7.7      1.855      2.706
REMARK  3 active torsions:
REMARK  status: ('A' for Active; 'I' for Inactive)
REMARK    1  A    between atoms: C_2  and  N_3 
REMARK    2  A    between atoms: C_7  and  N_8 
REMARK    3  A    between atoms: N_8  and  C_9 
ROOT
HETATM    1  N   UNL     1      41.356 -14.072   4.016  1.00  0.00    -0.230 N 
HETATM    2  C   UNL     1      41.093 -15.051   4.974  1.00  0.00     0.335 A 
HETATM    3  O   UNL     1      40.086 -15.150   5.676  1.00  0.00    -0.246 OA
HETATM    4  N   UNL     1      42.030 -16.036   5.123  1.00  0.00    -0.294 N 
HETATM    5  C   UNL     1      43.155 -16.203   4.380  1.00  0.00     0.114 A 
HETATM    6  C   UNL     1      43.426 -15.264   3.471  1.00  0.00     0.123 A 
HETATM    7  C   UNL     1      42.533 -14.107   3.268  1.00  0.00     0.259 A 
HETATM    8  O   UNL     1      42.935 -13.249   2.481  1.00  0.00    -0.267 OA
HETATM    9  H   UNL     1      41.778 -16.738   5.805  1.00  0.00     0.172 HD
ENDROOT
BRANCH   5  10
HETATM   10  N   UNL     1      43.976 -17.277   4.645  1.00  0.00    -0.342 N 
HETATM   11  H   UNL     1      44.274 -17.341   5.614  1.00  0.00     0.167 HD
BRANCH  10  12
HETATM   12  C   UNL     1      44.012 -18.536   4.002  1.00  0.00     0.036 A 
HETATM   13  C   UNL     1      44.493 -19.636   4.736  1.00  0.00     0.069 A 
HETATM   14  C   UNL     1      44.558 -20.869   4.120  1.00  0.00     0.107 A 
HETATM   15  C   UNL     1      44.181 -21.044   2.812  1.00  0.00     0.105 A 
HETATM   16  O   UNL     1      44.983 -22.024   4.698  1.00  0.00    -0.323 OA
HETATM   17  O   UNL     1      44.316 -22.333   2.401  1.00  0.00    -0.323 OA
HETATM   18  C   UNL     1      43.724 -19.997   2.049  1.00  0.00     0.042 A 
HETATM   19  C   UNL     1      44.818 -22.950   3.603  1.00  0.00     0.352 A 
HETATM   20  C   UNL     1      43.647 -18.734   2.651  1.00  0.00     0.032 A 
ENDBRANCH  10  12
ENDBRANCH   5  10
BRANCH   1  21
HETATM   21  C   UNL     1      40.409 -12.994   3.808  1.00  0.00     0.047 A 
HETATM   22  C   UNL     1      39.445 -13.040   2.783  1.00  0.00     0.031 A 
HETATM   23  C   UNL     1      38.535 -11.994   2.580  1.00  0.00     0.021 A 
HETATM   24  C   UNL     1      38.570 -10.876   3.403  1.00  0.00     0.011 A 
HETATM   25  C   UNL     1      39.506 -10.797   4.425  1.00  0.00     0.021 A 
HETATM   26 BR   UNL     1      37.344  -9.465   3.132  1.00  0.00    -0.051 Br
HETATM   27  C   UNL     1      40.415 -11.845   4.622  1.00  0.00     0.031 A 
ENDBRANCH   1  21
TORSDOF 3
ENDMDL
MODEL 9
REMARK VINA RESULT:      -7.6      5.587      8.970
REMARK  3 active torsions:
REMARK  status: ('A' for Active; 'I' for Inactive)
REMARK    1  A    between atoms: C_2  and  N_3 
REMARK    2  A    between atoms: C_7  and  N_8 
REMARK    3  A    between atoms: N_8  and  C_9 
ROOT
HETATM    1  N   UNL     1      42.227 -15.523   4.456  1.00  0.00    -0.230 N 
HETATM    2  C   UNL     1      42.878 -14.350   4.074  1.00  0.00     0.335 A 
HETATM    3  O   UNL     1      43.800 -14.243   3.265  1.00  0.00    -0.246 OA
HETATM    4  N   UNL     1      42.419 -13.182   4.620  1.00  0.00    -0.294 N 
HETATM    5  C   UNL     1      41.343 -13.039   5.437  1.00  0.00     0.114 A 
HETATM    6  C   UNL     1      40.721 -14.155   5.822  1.00  0.00     0.123 A 
HETATM    7  C   UNL     1      41.169 -15.485   5.365  1.00  0.00     0.259 A 
HETATM    8  O   UNL     1      40.591 -16.448   5.868  1.00  0.00    -0.267 OA
HETATM    9  H   UNL     1      42.902 -12.359   4.287  1.00  0.00     0.172 HD
ENDROOT
BRANCH   5  10
HETATM   10  N   UNL     1      40.997 -11.777   5.869  1.00  0.00    -0.342 N 
HETATM   11  H   UNL     1      40.283 -11.328   5.303  1.00  0.00     0.167 HD
BRANCH  10  12
HETATM   12  C   UNL     1      41.025 -11.258   7.185  1.00  0.00     0.036 A 
HETATM   13  C   UNL     1      42.281 -10.999   7.762  1.00  0.00     0.069 A 
HETATM   14  C   UNL     1      42.331 -10.515   9.054  1.00  0.00     0.107 A 
HETATM   15  C   UNL     1      41.193 -10.294   9.788  1.00  0.00     0.105 A 
HETATM   16  O   UNL     1      43.463 -10.202   9.742  1.00  0.00    -0.323 OA
HETATM   17  O   UNL     1      41.461  -9.811  11.029  1.00  0.00    -0.323 OA
HETATM   18  C   UNL     1      39.945 -10.551   9.273  1.00  0.00     0.042 A 
HETATM   19  C   UNL     1      42.901  -9.749  10.992  1.00  0.00     0.352 A 
HETATM   20  C   UNL     1      39.866 -11.042   7.963  1.00  0.00     0.032 A 
ENDBRANCH  10  12
ENDBRANCH   5  10
BRANCH   1  21
HETATM   21  C   UNL     1      42.665 -16.797   3.922  1.00  0.00     0.047 A 
HETATM   22  C   UNL     1      43.630 -17.583   4.578  1.00  0.00     0.031 A 
HETATM   23  C   UNL     1      44.058 -18.812   4.056  1.00  0.00     0.021 A 
HETATM   24  C   UNL     1      43.523 -19.282   2.863  1.00  0.00     0.011 A 
HETATM   25  C   UNL     1      42.568 -18.532   2.190  1.00  0.00     0.021 A 
HETATM   26 BR   UNL     1      44.095 -20.938   2.158  1.00  0.00    -0.051 Br
HETATM   27  C   UNL     1      42.146 -17.304   2.715  1.00  0.00     0.031 A 
ENDBRANCH   1  21
TORSDOF 3
ENDMDL
MODEL 10
REMARK VINA RESULT:      -7.6      3.195      4.022
REMARK  3 active torsions:
REMARK  status: ('A' for Active; 'I' for Inactive)
REMARK    1  A    between atoms: C_2  and  N_3 
REMARK    2  A    between atoms: C_7  and  N_8 
REMARK    3  A    between atoms: N_8  and  C_9 
ROOT
HETATM    1  N   UNL     1      41.569 -13.829  -0.443  1.00  0.00    -0.230 N 
HETATM    2  C   UNL     1      42.047 -13.543   0.836  1.00  0.00     0.335 A 
HETATM    3  O   UNL     1      42.467 -12.461   1.246  1.00  0.00    -0.246 OA
HETATM    4  N   UNL     1      42.008 -14.559   1.751  1.00  0.00    -0.294 N 
HETATM    5  C   UNL     1      41.479 -15.797   1.565  1.00  0.00     0.114 A 
HETATM    6  C   UNL     1      41.032 -16.087   0.341  1.00  0.00     0.123 A 
HETATM    7  C   UNL     1      41.092 -15.101  -0.756  1.00  0.00     0.259 A 
HETATM    8  O   UNL     1      40.753 -15.512  -1.866  1.00  0.00    -0.267 OA
HETATM    9  H   UNL     1      42.335 -14.293   2.670  1.00  0.00     0.172 HD
ENDROOT
BRANCH   5  10
HETATM   10  N   UNL     1      41.490 -16.692   2.612  1.00  0.00    -0.342 N 
HETATM   11  H   UNL     1      40.566 -16.942   2.952  1.00  0.00     0.167 HD
BRANCH  10  12
HETATM   12  C   UNL     1      42.444 -17.696   2.902  1.00  0.00     0.036 A 
HETATM   13  C   UNL     1      42.452 -18.847   2.095  1.00  0.00     0.069 A 
HETATM   14  C   UNL     1      43.359 -19.849   2.375  1.00  0.00     0.107 A 
HETATM   15  C   UNL     1      44.238 -19.755   3.425  1.00  0.00     0.105 A 
HETATM   16  O   UNL     1      43.501 -21.010   1.681  1.00  0.00    -0.323 OA
HETATM   17  O   UNL     1      45.047 -20.842   3.524  1.00  0.00    -0.323 OA
HETATM   18  C   UNL     1      44.254 -18.658   4.254  1.00  0.00     0.042 A 
HETATM   19  C   UNL     1      44.580 -21.631   2.411  1.00  0.00     0.352 A 
HETATM   20  C   UNL     1      43.343 -17.626   3.989  1.00  0.00     0.032 A 
ENDBRANCH  10  12
ENDBRANCH   5  10
BRANCH   1  21
HETATM   21  C   UNL     1      41.587 -12.801  -1.465  1.00  0.00     0.047 A 
HETATM   22  C   UNL     1      40.509 -11.914  -1.644  1.00  0.00     0.031 A 
HETATM   23  C   UNL     1      40.525 -10.925  -2.637  1.00  0.00     0.021 A 
HETATM   24  C   UNL     1      41.627 -10.803  -3.475  1.00  0.00     0.011 A 
HETATM   25  C   UNL     1      42.708 -11.660  -3.327  1.00  0.00     0.021 A 
HETATM   26 BR   UNL     1      41.652  -9.470  -4.813  1.00  0.00    -0.051 Br
HETATM   27  C   UNL     1      42.686 -12.648  -2.333  1.00  0.00     0.031 A 
ENDBRANCH   1  21
TORSDOF 3
ENDMDL
