MODEL 1
REMARK VINA RESULT:      -9.1      0.000      0.000
REMARK  4 active torsions:
REMARK  status: ('A' for Active; 'I' for Inactive)
REMARK    1  A    between atoms: C_6  and  C_7 
REMARK    2  A    between atoms: C_7  and  N_8 
REMARK    3  A    between atoms: C_12  and  C_13 
REMARK    4  A    between atoms: C_15  and  C_16 
ROOT
HETATM    1  N   UNL     1      42.329 -15.984   1.679  1.00  0.00    -0.067 N 
HETATM    2  H   UNL     1      42.053 -15.313   0.954  1.00  0.00     0.280 HD
HETATM    3  C   UNL     1      41.061 -16.593   2.236  1.00  0.00     0.236 C 
HETATM    4  C   UNL     1      40.203 -15.512   2.883  1.00  0.00     0.040 C 
HETATM    5  C   UNL     1      40.950 -14.705   3.950  1.00  0.00     0.058 C 
HETATM    6  C   UNL     1      42.269 -14.172   3.385  1.00  0.00     0.040 C 
HETATM    7  C   UNL     1      43.123 -15.252   2.732  1.00  0.00     0.236 C 
ENDROOT
BRANCH   1   8
HETATM    8  C   UNL     1      43.201 -17.017   0.985  1.00  0.00     0.273 C 
BRANCH   8   9
HETATM    9  C   UNL     1      43.580 -18.169   1.877  1.00  0.00    -0.032 A 
HETATM   10  C   UNL     1      43.675 -19.465   1.348  1.00  0.00     0.017 A 
HETATM   11  C   UNL     1      44.086 -20.491   2.185  1.00  0.00    -0.035 A 
HETATM   12  C   UNL     1      44.417 -20.274   3.526  1.00  0.00     0.016 A 
HETATM   13  C   UNL     1      44.302 -21.931   1.850  1.00  0.00     0.055 C 
HETATM   14  N   UNL     1      44.873 -21.442   4.154  1.00  0.00    -0.287 NA
HETATM   15  C   UNL     1      44.320 -19.000   4.057  1.00  0.00     0.025 A 
HETATM   16  C   UNL     1      44.653 -21.599   5.581  1.00  0.00     0.116 C 
HETATM   17  C   UNL     1      44.424 -22.529   3.263  1.00  0.00     0.100 C 
HETATM   18  C   UNL     1      43.893 -17.949   3.236  1.00  0.00     0.011 A 
ENDBRANCH   8   9
ENDBRANCH   1   8
BRANCH   5  19
HETATM   19  C   UNL     1      41.183 -15.535   5.176  1.00  0.00     0.108 A 
HETATM   20  N   UNL     1      42.358 -15.892   5.649  1.00  0.00    -0.229 NA
HETATM   21  C   UNL     1      42.111 -16.670   6.777  1.00  0.00     0.157 A 
HETATM   22  C   UNL     1      40.744 -16.760   6.966  1.00  0.00     0.126 A 
HETATM   23  N   UNL     1      40.170 -16.040   5.954  1.00  0.00    -0.352 N 
HETATM   24  H   UNL     1      39.176 -15.912   5.805  1.00  0.00     0.166 HD
BRANCH  21  25
HETATM   25  C   UNL     1      43.212 -17.285   7.599  1.00  0.00     0.436 C 
HETATM   26  F   UNL     1      43.214 -16.824   8.878  1.00  0.00    -0.165 F 
HETATM   27  F   UNL     1      43.094 -18.636   7.666  1.00  0.00    -0.165 F 
HETATM   28  F   UNL     1      44.438 -17.017   7.080  1.00  0.00    -0.165 F 
ENDBRANCH  21  25
ENDBRANCH   5  19
TORSDOF 4
ENDMDL
MODEL 2
REMARK VINA RESULT:      -8.9      2.787      4.362
REMARK  4 active torsions:
REMARK  status: ('A' for Active; 'I' for Inactive)
REMARK    1  A    between atoms: C_6  and  C_7 
REMARK    2  A    between atoms: C_7  and  N_8 
REMARK    3  A    between atoms: C_12  and  C_13 
REMARK    4  A    between atoms: C_15  and  C_16 
ROOT
HETATM    1  N   UNL     1      43.194 -16.383   6.381  1.00  0.00    -0.067 N 
HETATM    2  H   UNL     1      43.119 -16.115   7.369  1.00  0.00     0.280 HD
HETATM    3  C   UNL     1      43.159 -15.109   5.565  1.00  0.00     0.236 C 
HETATM    4  C   UNL     1      41.826 -14.397   5.769  1.00  0.00     0.040 C 
HETATM    5  C   UNL     1      40.614 -15.284   5.471  1.00  0.00     0.058 C 
HETATM    6  C   UNL     1      40.719 -16.602   6.245  1.00  0.00     0.040 C 
HETATM    7  C   UNL     1      42.053 -17.310   6.046  1.00  0.00     0.236 C 
ENDROOT
BRANCH   1   8
HETATM    8  C   UNL     1      44.522 -17.110   6.244  1.00  0.00     0.273 C 
BRANCH   8   9
HETATM    9  C   UNL     1      44.455 -18.299   5.324  1.00  0.00    -0.032 A 
HETATM   10  C   UNL     1      44.700 -19.588   5.823  1.00  0.00     0.017 A 
HETATM   11  C   UNL     1      44.569 -20.666   4.961  1.00  0.00    -0.035 A 
HETATM   12  C   UNL     1      44.193 -20.511   3.623  1.00  0.00     0.016 A 
HETATM   13  C   UNL     1      44.736 -22.119   5.261  1.00  0.00     0.055 C 
HETATM   14  N   UNL     1      44.057 -21.742   2.966  1.00  0.00    -0.287 NA
HETATM   15  C   UNL     1      43.955 -19.243   3.122  1.00  0.00     0.025 A 
HETATM   16  C   UNL     1      44.310 -21.803   1.537  1.00  0.00     0.116 C 
HETATM   17  C   UNL     1      44.773 -22.695   3.834  1.00  0.00     0.100 C 
HETATM   18  C   UNL     1      44.095 -18.137   3.968  1.00  0.00     0.011 A 
ENDBRANCH   8   9
ENDBRANCH   1   8
BRANCH   5  19
HETATM   19  C   UNL     1      40.484 -15.531   3.999  1.00  0.00     0.108 A 
HETATM   20  N   UNL     1      41.210 -16.373   3.295  1.00  0.00    -0.229 NA
HETATM   21  C   UNL     1      40.775 -16.265   1.977  1.00  0.00     0.157 A 
HETATM   22  C   UNL     1      39.756 -15.332   1.919  1.00  0.00     0.126 A 
HETATM   23  N   UNL     1      39.580 -14.879   3.198  1.00  0.00    -0.352 N 
HETATM   24  H   UNL     1      38.908 -14.180   3.493  1.00  0.00     0.166 HD
BRANCH  21  25
HETATM   25  C   UNL     1      41.376 -17.066   0.853  1.00  0.00     0.436 C 
HETATM   26  F   UNL     1      42.730 -17.143   0.947  1.00  0.00    -0.165 F 
HETATM   27  F   UNL     1      40.908 -18.341   0.838  1.00  0.00    -0.165 F 
HETATM   28  F   UNL     1      41.095 -16.523  -0.359  1.00  0.00    -0.165 F 
ENDBRANCH  21  25
ENDBRANCH   5  19
TORSDOF 4
ENDMDL
MODEL 3
REMARK VINA RESULT:      -8.9      4.690      6.050
REMARK  4 active torsions:
REMARK  status: ('A' for Active; 'I' for Inactive)
REMARK    1  A    between atoms: C_6  and  C_7 
REMARK    2  A    between atoms: C_7  and  N_8 
REMARK    3  A    between atoms: C_12  and  C_13 
REMARK    4  A    between atoms: C_15  and  C_16 
ROOT
HETATM    1  N   UNL     1      42.276 -16.101   1.911  1.00  0.00    -0.067 N 
HETATM    2  H   UNL     1      42.320 -16.081   2.935  1.00  0.00     0.280 HD
HETATM    3  C   UNL     1      42.315 -14.667   1.429  1.00  0.00     0.236 C 
HETATM    4  C   UNL     1      41.097 -13.910   1.948  1.00  0.00     0.040 C 
HETATM    5  C   UNL     1      39.768 -14.584   1.589  1.00  0.00     0.058 C 
HETATM    6  C   UNL     1      39.790 -16.056   2.010  1.00  0.00     0.040 C 
HETATM    7  C   UNL     1      41.011 -16.810   1.498  1.00  0.00     0.236 C 
ENDROOT
BRANCH   1   8
HETATM    8  C   UNL     1      43.493 -16.888   1.453  1.00  0.00     0.273 C 
BRANCH   8   9
HETATM    9  C   UNL     1      43.775 -18.095   2.306  1.00  0.00    -0.032 A 
HETATM   10  C   UNL     1      43.925 -19.356   1.711  1.00  0.00     0.017 A 
HETATM   11  C   UNL     1      44.246 -20.435   2.521  1.00  0.00    -0.035 A 
HETATM   12  C   UNL     1      44.432 -20.304   3.900  1.00  0.00     0.016 A 
HETATM   13  C   UNL     1      44.494 -21.853   2.122  1.00  0.00     0.055 C 
HETATM   14  N   UNL     1      44.819 -21.512   4.499  1.00  0.00    -0.287 NA
HETATM   15  C   UNL     1      44.281 -19.064   4.496  1.00  0.00     0.025 A 
HETATM   16  C   UNL     1      44.449 -21.756   5.883  1.00  0.00     0.116 C 
HETATM   17  C   UNL     1      44.466 -22.538   3.500  1.00  0.00     0.100 C 
HETATM   18  C   UNL     1      43.943 -17.962   3.702  1.00  0.00     0.011 A 
ENDBRANCH   8   9
ENDBRANCH   1   8
BRANCH   5  19
HETATM   19  C   UNL     1      39.481 -14.445   0.125  1.00  0.00     0.108 A 
HETATM   20  N   UNL     1      40.351 -14.615  -0.848  1.00  0.00    -0.229 NA
HETATM   21  C   UNL     1      39.670 -14.364  -2.036  1.00  0.00     0.157 A 
HETATM   22  C   UNL     1      38.358 -14.045  -1.739  1.00  0.00     0.126 A 
HETATM   23  N   UNL     1      38.250 -14.101  -0.377  1.00  0.00    -0.352 N 
HETATM   24  H   UNL     1      37.412 -13.913   0.161  1.00  0.00     0.166 HD
BRANCH  21  25
HETATM   25  C   UNL     1      40.332 -14.443  -3.386  1.00  0.00     0.436 C 
HETATM   26  F   UNL     1      41.513 -15.116  -3.338  1.00  0.00    -0.165 F 
HETATM   27  F   UNL     1      39.550 -15.081  -4.293  1.00  0.00    -0.165 F 
HETATM   28  F   UNL     1      40.601 -13.210  -3.887  1.00  0.00    -0.165 F 
ENDBRANCH  21  25
ENDBRANCH   5  19
TORSDOF 4
ENDMDL
MODEL 4
REMARK VINA RESULT:      -8.8      3.290      4.782
REMARK  4 active torsions:
REMARK  status: ('A' for Active; 'I' for Inactive)
REMARK    1  A    between atoms: C_6  and  C_7 
REMARK    2  A    between atoms: C_7  and  N_8 
REMARK    3  A    between atoms: C_12  and  C_13 
REMARK    4  A    between atoms: C_15  and  C_16 
ROOT
HETATM    1  N   UNL     1      42.912 -15.723   6.376  1.00  0.00    -0.067 N 
HETATM    2  H   UNL     1      42.778 -15.194   7.245  1.00  0.00     0.280 HD
HETATM    3  C   UNL     1      43.152 -14.719   5.269  1.00  0.00     0.236 C 
HETATM    4  C   UNL     1      41.929 -13.824   5.103  1.00  0.00     0.040 C 
HETATM    5  C   UNL     1      40.632 -14.608   4.875  1.00  0.00     0.058 C 
HETATM    6  C   UNL     1      40.458 -15.673   5.961  1.00  0.00     0.040 C 
HETATM    7  C   UNL     1      41.683 -16.563   6.132  1.00  0.00     0.236 C 
ENDROOT
BRANCH   1   8
HETATM    8  C   UNL     1      44.121 -16.613   6.609  1.00  0.00     0.273 C 
BRANCH   8   9
HETATM    9  C   UNL     1      44.177 -17.794   5.678  1.00  0.00    -0.032 A 
HETATM   10  C   UNL     1      43.743 -17.663   4.350  1.00  0.00     0.017 A 
HETATM   11  C   UNL     1      43.867 -18.754   3.503  1.00  0.00    -0.035 A 
HETATM   12  C   UNL     1      44.415 -19.968   3.926  1.00  0.00     0.016 A 
HETATM   13  C   UNL     1      43.518 -18.848   2.054  1.00  0.00     0.055 C 
HETATM   14  N   UNL     1      44.504 -20.900   2.882  1.00  0.00    -0.287 NA
HETATM   15  C   UNL     1      44.840 -20.108   5.235  1.00  0.00     0.025 A 
HETATM   16  C   UNL     1      44.421 -22.316   3.199  1.00  0.00     0.116 C 
HETATM   17  C   UNL     1      43.595 -20.371   1.848  1.00  0.00     0.100 C 
HETATM   18  C   UNL     1      44.712 -19.026   6.114  1.00  0.00     0.011 A 
ENDBRANCH   8   9
ENDBRANCH   1   8
BRANCH   5  19
HETATM   19  C   UNL     1      40.616 -15.222   3.508  1.00  0.00     0.108 A 
HETATM   20  N   UNL     1      40.941 -14.611   2.388  1.00  0.00    -0.229 NA
HETATM   21  C   UNL     1      40.760 -15.538   1.365  1.00  0.00     0.157 A 
HETATM   22  C   UNL     1      40.322 -16.729   1.915  1.00  0.00     0.126 A 
HETATM   23  N   UNL     1      40.238 -16.519   3.264  1.00  0.00    -0.352 N 
HETATM   24  H   UNL     1      39.940 -17.199   3.954  1.00  0.00     0.166 HD
BRANCH  21  25
HETATM   25  C   UNL     1      41.016 -15.214  -0.082  1.00  0.00     0.436 C 
HETATM   26  F   UNL     1      39.924 -14.673  -0.686  1.00  0.00    -0.165 F 
HETATM   27  F   UNL     1      42.029 -14.321  -0.226  1.00  0.00    -0.165 F 
HETATM   28  F   UNL     1      41.354 -16.319  -0.794  1.00  0.00    -0.165 F 
ENDBRANCH  21  25
ENDBRANCH   5  19
TORSDOF 4
ENDMDL
MODEL 5
REMARK VINA RESULT:      -8.7      4.093      5.012
REMARK  4 active torsions:
REMARK  status: ('A' for Active; 'I' for Inactive)
REMARK    1  A    between atoms: C_6  and  C_7 
REMARK    2  A    between atoms: C_7  and  N_8 
REMARK    3  A    between atoms: C_12  and  C_13 
REMARK    4  A    between atoms: C_15  and  C_16 
ROOT
HETATM    1  N   UNL     1      42.634 -15.653   3.357  1.00  0.00    -0.067 N 
HETATM    2  H   UNL     1      43.145 -15.843   4.226  1.00  0.00     0.280 HD
HETATM    3  C   UNL     1      42.849 -14.194   3.017  1.00  0.00     0.236 C 
HETATM    4  C   UNL     1      42.272 -13.312   4.119  1.00  0.00     0.040 C 
HETATM    5  C   UNL     1      40.798 -13.603   4.417  1.00  0.00     0.058 C 
HETATM    6  C   UNL     1      40.595 -15.099   4.673  1.00  0.00     0.040 C 
HETATM    7  C   UNL     1      41.178 -15.981   3.576  1.00  0.00     0.236 C 
ENDROOT
BRANCH   1   8
HETATM    8  C   UNL     1      43.230 -16.576   2.308  1.00  0.00     0.273 C 
BRANCH   8   9
HETATM    9  C   UNL     1      43.632 -17.918   2.856  1.00  0.00    -0.032 A 
HETATM   10  C   UNL     1      43.660 -19.042   2.016  1.00  0.00     0.017 A 
HETATM   11  C   UNL     1      44.094 -20.249   2.541  1.00  0.00    -0.035 A 
HETATM   12  C   UNL     1      44.513 -20.378   3.869  1.00  0.00     0.016 A 
HETATM   13  C   UNL     1      44.250 -21.561   1.845  1.00  0.00     0.055 C 
HETATM   14  N   UNL     1      44.976 -21.671   4.154  1.00  0.00    -0.287 NA
HETATM   15  C   UNL     1      44.484 -19.276   4.706  1.00  0.00     0.025 A 
HETATM   16  C   UNL     1      44.841 -22.178   5.509  1.00  0.00     0.116 C 
HETATM   17  C   UNL     1      44.443 -22.495   3.053  1.00  0.00     0.100 C 
HETATM   18  C   UNL     1      44.035 -18.049   4.204  1.00  0.00     0.011 A 
ENDBRANCH   8   9
ENDBRANCH   1   8
BRANCH   5  19
HETATM   19  C   UNL     1      39.924 -13.122   3.298  1.00  0.00     0.108 A 
HETATM   20  N   UNL     1      39.095 -13.867   2.599  1.00  0.00    -0.229 NA
HETATM   21  C   UNL     1      38.511 -13.027   1.654  1.00  0.00     0.157 A 
HETATM   22  C   UNL     1      39.016 -11.751   1.819  1.00  0.00     0.126 A 
HETATM   23  N   UNL     1      39.903 -11.822   2.858  1.00  0.00    -0.352 N 
HETATM   24  H   UNL     1      40.450 -11.053   3.226  1.00  0.00     0.166 HD
BRANCH  21  25
HETATM   25  C   UNL     1      37.504 -13.512   0.646  1.00  0.00     0.436 C 
HETATM   26  F   UNL     1      36.893 -14.660   1.043  1.00  0.00    -0.165 F 
HETATM   27  F   UNL     1      36.524 -12.597   0.433  1.00  0.00    -0.165 F 
HETATM   28  F   UNL     1      38.079 -13.768  -0.557  1.00  0.00    -0.165 F 
ENDBRANCH  21  25
ENDBRANCH   5  19
TORSDOF 4
ENDMDL
MODEL 6
REMARK VINA RESULT:      -8.7      2.585      5.874
REMARK  4 active torsions:
REMARK  status: ('A' for Active; 'I' for Inactive)
REMARK    1  A    between atoms: C_6  and  C_7 
REMARK    2  A    between atoms: C_7  and  N_8 
REMARK    3  A    between atoms: C_12  and  C_13 
REMARK    4  A    between atoms: C_15  and  C_16 
ROOT
HETATM    1  N   UNL     1      41.821 -15.579   6.501  1.00  0.00    -0.067 N 
HETATM    2  H   UNL     1      41.920 -14.965   7.318  1.00  0.00     0.280 HD
HETATM    3  C   UNL     1      41.678 -16.995   7.016  1.00  0.00     0.236 C 
HETATM    4  C   UNL     1      42.935 -17.403   7.775  1.00  0.00     0.040 C 
HETATM    5  C   UNL     1      44.219 -17.235   6.955  1.00  0.00     0.058 C 
HETATM    6  C   UNL     1      44.296 -15.819   6.377  1.00  0.00     0.040 C 
HETATM    7  C   UNL     1      43.036 -15.409   5.624  1.00  0.00     0.236 C 
ENDROOT
BRANCH   1   8
HETATM    8  C   UNL     1      40.574 -15.109   5.771  1.00  0.00     0.273 C 
BRANCH   8   9
HETATM    9  C   UNL     1      40.757 -15.022   4.280  1.00  0.00    -0.032 A 
HETATM   10  C   UNL     1      40.876 -16.193   3.517  1.00  0.00     0.017 A 
HETATM   11  C   UNL     1      40.981 -16.076   2.139  1.00  0.00    -0.035 A 
HETATM   12  C   UNL     1      40.961 -14.837   1.491  1.00  0.00     0.016 A 
HETATM   13  C   UNL     1      41.077 -17.163   1.120  1.00  0.00     0.055 C 
HETATM   14  N   UNL     1      41.009 -14.968   0.096  1.00  0.00    -0.287 NA
HETATM   15  C   UNL     1      40.850 -13.677   2.237  1.00  0.00     0.025 A 
HETATM   16  C   UNL     1      41.622 -13.908  -0.686  1.00  0.00     0.116 C 
HETATM   17  C   UNL     1      41.486 -16.347  -0.119  1.00  0.00     0.100 C 
HETATM   18  C   UNL     1      40.757 -13.767   3.631  1.00  0.00     0.011 A 
ENDBRANCH   8   9
ENDBRANCH   1   8
BRANCH   5  19
HETATM   19  C   UNL     1      44.296 -18.267   5.872  1.00  0.00     0.108 A 
HETATM   20  N   UNL     1      44.056 -18.058   4.595  1.00  0.00    -0.229 NA
HETATM   21  C   UNL     1      44.219 -19.285   3.956  1.00  0.00     0.157 A 
HETATM   22  C   UNL     1      44.572 -20.234   4.897  1.00  0.00     0.126 A 
HETATM   23  N   UNL     1      44.620 -19.582   6.098  1.00  0.00    -0.352 N 
HETATM   24  H   UNL     1      44.846 -20.000   6.993  1.00  0.00     0.166 HD
BRANCH  21  25
HETATM   25  C   UNL     1      44.015 -19.465   2.475  1.00  0.00     0.436 C 
HETATM   26  F   UNL     1      44.665 -20.560   1.999  1.00  0.00    -0.165 F 
HETATM   27  F   UNL     1      42.703 -19.617   2.163  1.00  0.00    -0.165 F 
HETATM   28  F   UNL     1      44.473 -18.398   1.771  1.00  0.00    -0.165 F 
ENDBRANCH  21  25
ENDBRANCH   5  19
TORSDOF 4
ENDMDL
MODEL 7
REMARK VINA RESULT:      -8.2      3.703      4.503
REMARK  4 active torsions:
REMARK  status: ('A' for Active; 'I' for Inactive)
REMARK    1  A    between atoms: C_6  and  C_7 
REMARK    2  A    between atoms: C_7  and  N_8 
REMARK    3  A    between atoms: C_12  and  C_13 
REMARK    4  A    between atoms: C_15  and  C_16 
ROOT
HETATM    1  N   UNL     1      42.401 -15.187   5.202  1.00  0.00    -0.067 N 
HETATM    2  H   UNL     1      42.341 -15.578   4.256  1.00  0.00     0.280 HD
HETATM    3  C   UNL     1      41.046 -15.368   5.851  1.00  0.00     0.236 C 
HETATM    4  C   UNL     1      39.988 -14.591   5.076  1.00  0.00     0.040 C 
HETATM    5  C   UNL     1      40.331 -13.107   4.906  1.00  0.00     0.058 C 
HETATM    6  C   UNL     1      41.741 -12.953   4.327  1.00  0.00     0.040 C 
HETATM    7  C   UNL     1      42.796 -13.735   5.098  1.00  0.00     0.236 C 
ENDROOT
BRANCH   1   8
HETATM    8  C   UNL     1      43.484 -15.978   5.916  1.00  0.00     0.273 C 
BRANCH   8   9
HETATM    9  C   UNL     1      43.749 -17.321   5.291  1.00  0.00    -0.032 A 
HETATM   10  C   UNL     1      43.456 -17.535   3.935  1.00  0.00     0.017 A 
HETATM   11  C   UNL     1      43.770 -18.765   3.377  1.00  0.00    -0.035 A 
HETATM   12  C   UNL     1      44.374 -19.787   4.116  1.00  0.00     0.016 A 
HETATM   13  C   UNL     1      43.595 -19.214   1.964  1.00  0.00     0.055 C 
HETATM   14  N   UNL     1      44.662 -20.910   3.327  1.00  0.00    -0.287 NA
HETATM   15  C   UNL     1      44.661 -19.586   5.454  1.00  0.00     0.025 A 
HETATM   16  C   UNL     1      44.670 -22.221   3.954  1.00  0.00     0.116 C 
HETATM   17  C   UNL     1      43.830 -20.727   2.123  1.00  0.00     0.100 C 
HETATM   18  C   UNL     1      44.340 -18.358   6.045  1.00  0.00     0.011 A 
ENDBRANCH   8   9
ENDBRANCH   1   8
BRANCH   5  19
HETATM   19  C   UNL     1      40.199 -12.379   6.209  1.00  0.00     0.108 A 
HETATM   20  N   UNL     1      40.908 -11.334   6.579  1.00  0.00    -0.229 NA
HETATM   21  C   UNL     1      40.478 -10.998   7.860  1.00  0.00     0.157 A 
HETATM   22  C   UNL     1      39.479 -11.876   8.239  1.00  0.00     0.126 A 
HETATM   23  N   UNL     1      39.311 -12.739   7.192  1.00  0.00    -0.352 N 
HETATM   24  H   UNL     1      38.653 -13.509   7.156  1.00  0.00     0.166 HD
BRANCH  21  25
HETATM   25  C   UNL     1      41.063  -9.851   8.640  1.00  0.00     0.436 C 
HETATM   26  F   UNL     1      41.901 -10.277   9.624  1.00  0.00    -0.165 F 
HETATM   27  F   UNL     1      41.780  -9.015   7.846  1.00  0.00    -0.165 F 
HETATM   28  F   UNL     1      40.100  -9.105   9.239  1.00  0.00    -0.165 F 
ENDBRANCH  21  25
ENDBRANCH   5  19
TORSDOF 4
ENDMDL
MODEL 8
REMARK VINA RESULT:      -8.1      4.142      5.659
REMARK  4 active torsions:
REMARK  status: ('A' for Active; 'I' for Inactive)
REMARK    1  A    between atoms: C_6  and  C_7 
REMARK    2  A    between atoms: C_7  and  N_8 
REMARK    3  A    between atoms: C_12  and  C_13 
REMARK    4  A    between atoms: C_15  and  C_16 
ROOT
HETATM    1  N   UNL     1      41.883 -15.815   3.561  1.00  0.00    -0.067 N 
HETATM    2  H   UNL     1      41.276 -16.025   4.360  1.00  0.00     0.280 HD
HETATM    3  C   UNL     1      41.646 -14.369   3.181  1.00  0.00     0.236 C 
HETATM    4  C   UNL     1      40.197 -14.176   2.747  1.00  0.00     0.040 C 
HETATM    5  C   UNL     1      39.770 -15.125   1.623  1.00  0.00     0.058 C 
HETATM    6  C   UNL     1      40.100 -16.573   1.998  1.00  0.00     0.040 C 
HETATM    7  C   UNL     1      41.547 -16.764   2.439  1.00  0.00     0.236 C 
ENDROOT
BRANCH   1   8
HETATM    8  C   UNL     1      43.306 -16.050   4.041  1.00  0.00     0.273 C 
BRANCH   8   9
HETATM    9  C   UNL     1      43.679 -17.507   4.099  1.00  0.00    -0.032 A 
HETATM   10  C   UNL     1      43.656 -18.286   2.933  1.00  0.00     0.017 A 
HETATM   11  C   UNL     1      44.065 -19.608   3.012  1.00  0.00    -0.035 A 
HETATM   12  C   UNL     1      44.507 -20.182   4.208  1.00  0.00     0.016 A 
HETATM   13  C   UNL     1      44.167 -20.615   1.915  1.00  0.00     0.055 C 
HETATM   14  N   UNL     1      44.936 -21.505   4.033  1.00  0.00    -0.287 NA
HETATM   15  C   UNL     1      44.528 -19.422   5.365  1.00  0.00     0.025 A 
HETATM   16  C   UNL     1      44.814 -22.433   5.144  1.00  0.00     0.116 C 
HETATM   17  C   UNL     1      44.357 -21.903   2.736  1.00  0.00     0.100 C 
HETATM   18  C   UNL     1      44.105 -18.089   5.314  1.00  0.00     0.011 A 
ENDBRANCH   8   9
ENDBRANCH   1   8
BRANCH   5  19
HETATM   19  C   UNL     1      40.419 -14.741   0.328  1.00  0.00     0.108 A 
HETATM   20  N   UNL     1      41.131 -13.654   0.119  1.00  0.00    -0.229 NA
HETATM   21  C   UNL     1      41.516 -13.685  -1.218  1.00  0.00     0.157 A 
HETATM   22  C   UNL     1      41.015 -14.835  -1.801  1.00  0.00     0.126 A 
HETATM   23  N   UNL     1      40.328 -15.493  -0.818  1.00  0.00    -0.352 N 
HETATM   24  H   UNL     1      39.835 -16.372  -0.923  1.00  0.00     0.166 HD
BRANCH  21  25
HETATM   25  C   UNL     1      42.341 -12.597  -1.853  1.00  0.00     0.436 C 
HETATM   26  F   UNL     1      41.571 -11.690  -2.512  1.00  0.00    -0.165 F 
HETATM   27  F   UNL     1      43.061 -11.909  -0.931  1.00  0.00    -0.165 F 
HETATM   28  F   UNL     1      43.223 -13.096  -2.757  1.00  0.00    -0.165 F 
ENDBRANCH  21  25
ENDBRANCH   5  19
TORSDOF 4
ENDMDL
MODEL 9
REMARK VINA RESULT:      -8.0      5.590      7.131
REMARK  4 active torsions:
REMARK  status: ('A' for Active; 'I' for Inactive)
REMARK    1  A    between atoms: C_6  and  C_7 
REMARK    2  A    between atoms: C_7  and  N_8 
REMARK    3  A    between atoms: C_12  and  C_13 
REMARK    4  A    between atoms: C_15  and  C_16 
ROOT
HETATM    1  N   UNL     1      40.555 -15.315   1.848  1.00  0.00    -0.067 N 
HETATM    2  H   UNL     1      40.826 -14.796   2.691  1.00  0.00     0.280 HD
HETATM    3  C   UNL     1      41.652 -15.116   0.825  1.00  0.00     0.236 C 
HETATM    4  C   UNL     1      41.768 -13.638   0.465  1.00  0.00     0.040 C 
HETATM    5  C   UNL     1      40.445 -13.027  -0.009  1.00  0.00     0.058 C 
HETATM    6  C   UNL     1      39.334 -13.316   1.004  1.00  0.00     0.040 C 
HETATM    7  C   UNL     1      39.224 -14.792   1.369  1.00  0.00     0.236 C 
ENDROOT
BRANCH   1   8
HETATM    8  C   UNL     1      40.428 -16.768   2.271  1.00  0.00     0.273 C 
BRANCH   8   9
HETATM    9  C   UNL     1      41.540 -17.222   3.179  1.00  0.00    -0.032 A 
HETATM   10  C   UNL     1      42.328 -18.328   2.826  1.00  0.00     0.017 A 
HETATM   11  C   UNL     1      43.382 -18.679   3.656  1.00  0.00    -0.035 A 
HETATM   12  C   UNL     1      43.687 -17.965   4.818  1.00  0.00     0.016 A 
HETATM   13  C   UNL     1      44.377 -19.778   3.477  1.00  0.00     0.055 C 
HETATM   14  N   UNL     1      44.834 -18.459   5.457  1.00  0.00    -0.287 NA
HETATM   15  C   UNL     1      42.911 -16.877   5.176  1.00  0.00     0.025 A 
HETATM   16  C   UNL     1      44.945 -18.323   6.899  1.00  0.00     0.116 C 
HETATM   17  C   UNL     1      45.020 -19.801   4.875  1.00  0.00     0.100 C 
HETATM   18  C   UNL     1      41.832 -16.510   4.363  1.00  0.00     0.011 A 
ENDBRANCH   8   9
ENDBRANCH   1   8
BRANCH   5  19
HETATM   19  C   UNL     1      40.082 -13.536  -1.371  1.00  0.00     0.108 A 
HETATM   20  N   UNL     1      38.883 -13.926  -1.749  1.00  0.00    -0.229 NA
HETATM   21  C   UNL     1      39.002 -14.342  -3.073  1.00  0.00     0.157 A 
HETATM   22  C   UNL     1      40.316 -14.180  -3.475  1.00  0.00     0.126 A 
HETATM   23  N   UNL     1      40.985 -13.670  -2.396  1.00  0.00    -0.352 N 
HETATM   24  H   UNL     1      41.972 -13.442  -2.363  1.00  0.00     0.166 HD
BRANCH  21  25
HETATM   25  C   UNL     1      37.840 -14.877  -3.866  1.00  0.00     0.436 C 
HETATM   26  F   UNL     1      36.977 -15.589  -3.092  1.00  0.00    -0.165 F 
HETATM   27  F   UNL     1      37.122 -13.879  -4.442  1.00  0.00    -0.165 F 
HETATM   28  F   UNL     1      38.248 -15.702  -4.864  1.00  0.00    -0.165 F 
ENDBRANCH  21  25
ENDBRANCH   5  19
TORSDOF 4
ENDMDL
MODEL 10
REMARK VINA RESULT:      -7.9      4.924      6.464
REMARK  4 active torsions:
REMARK  status: ('A' for Active; 'I' for Inactive)
REMARK    1  A    between atoms: C_6  and  C_7 
REMARK    2  A    between atoms: C_7  and  N_8 
REMARK    3  A    between atoms: C_12  and  C_13 
REMARK    4  A    between atoms: C_15  and  C_16 
ROOT
HETATM    1  N   UNL     1      41.984 -15.489   2.069  1.00  0.00    -0.067 N 
HETATM    2  H   UNL     1      41.947 -15.487   3.094  1.00  0.00     0.280 HD
HETATM    3  C   UNL     1      41.975 -14.045   1.614  1.00  0.00     0.236 C 
HETATM    4  C   UNL     1      40.678 -13.370   2.048  1.00  0.00     0.040 C 
HETATM    5  C   UNL     1      39.423 -14.112   1.576  1.00  0.00     0.058 C 
HETATM    6  C   UNL     1      39.498 -15.588   1.976  1.00  0.00     0.040 C 
HETATM    7  C   UNL     1      40.797 -16.261   1.548  1.00  0.00     0.236 C 
ENDROOT
BRANCH   1   8
HETATM    8  C   UNL     1      43.276 -16.195   1.696  1.00  0.00     0.273 C 
BRANCH   8   9
HETATM    9  C   UNL     1      43.589 -17.370   2.583  1.00  0.00    -0.032 A 
HETATM   10  C   UNL     1      43.422 -17.266   3.972  1.00  0.00     0.017 A 
HETATM   11  C   UNL     1      43.660 -18.387   4.752  1.00  0.00    -0.035 A 
HETATM   12  C   UNL     1      44.048 -19.611   4.200  1.00  0.00     0.016 A 
HETATM   13  C   UNL     1      43.514 -18.537   6.231  1.00  0.00     0.055 C 
HETATM   14  N   UNL     1      44.162 -20.617   5.171  1.00  0.00    -0.287 NA
HETATM   15  C   UNL     1      44.221 -19.721   2.832  1.00  0.00     0.025 A 
HETATM   16  C   UNL     1      45.113 -21.694   4.955  1.00  0.00     0.116 C 
HETATM   17  C   UNL     1      44.233 -19.880   6.446  1.00  0.00     0.100 C 
HETATM   18  C   UNL     1      44.001 -18.599   2.023  1.00  0.00     0.011 A 
ENDBRANCH   8   9
ENDBRANCH   1   8
BRANCH   5  19
HETATM   19  C   UNL     1      39.241 -13.961   0.096  1.00  0.00     0.108 A 
HETATM   20  N   UNL     1      40.164 -13.563  -0.753  1.00  0.00    -0.229 NA
HETATM   21  C   UNL     1      39.563 -13.543  -2.009  1.00  0.00     0.157 A 
HETATM   22  C   UNL     1      38.247 -13.950  -1.880  1.00  0.00     0.126 A 
HETATM   23  N   UNL     1      38.057 -14.213  -0.552  1.00  0.00    -0.352 N 
HETATM   24  H   UNL     1      37.193 -14.528  -0.126  1.00  0.00     0.166 HD
BRANCH  21  25
HETATM   25  C   UNL     1      40.295 -13.124  -3.256  1.00  0.00     0.436 C 
HETATM   26  F   UNL     1      39.538 -12.319  -4.049  1.00  0.00    -0.165 F 
HETATM   27  F   UNL     1      41.430 -12.438  -2.966  1.00  0.00    -0.165 F 
HETATM   28  F   UNL     1      40.657 -14.193  -4.011  1.00  0.00    -0.165 F 
ENDBRANCH  21  25
ENDBRANCH   5  19
TORSDOF 4
ENDMDL
