MODEL 1
REMARK VINA RESULT:      -9.0      0.000      0.000
REMARK  9 active torsions:
REMARK  status: ('A' for Active; 'I' for Inactive)
REMARK    1  A    between atoms: C_7  and  O_8 
REMARK    2  A    between atoms: O_8  and  C_9 
REMARK    3  A    between atoms: C_10  and  N_11 
REMARK    4  A    between atoms: N_11  and  C_12 
REMARK    5  A    between atoms: C_14  and  C_15 
REMARK       I    between atoms: C_15  and  N_16 
REMARK    6  A    between atoms: N_16  and  C_17 
REMARK    7  A    between atoms: C_17  and  C_18 
REMARK    8  A    between atoms: C_18  and  N_19 
REMARK    9  A    between atoms: N_29  and  C_30 
ROOT
HETATM    1  C   UNL     1      40.762 -16.587   1.886  1.00  0.00     0.122 C 
HETATM    2  C   UNL     1      40.178 -15.382   1.999  1.00  0.00     0.119 C 
HETATM    3  C   UNL     1      40.340 -14.384   0.874  1.00  0.00     0.293 C 
HETATM    4  O   UNL     1      39.694 -13.335   0.970  1.00  0.00    -0.264 OA
HETATM    5  N   UNL     1      41.165 -14.755  -0.185  1.00  0.00    -0.195 N 
HETATM    6  N   UNL     1      41.560 -16.058  -0.392  1.00  0.00    -0.174 NA
HETATM    7  C   UNL     1      41.360 -16.892   0.571  1.00  0.00     0.178 C 
ENDROOT
BRANCH   2   8
HETATM    8  N   UNL     1      39.442 -14.902   3.095  1.00  0.00    -0.253 NA
HETATM    9  H   UNL     1      39.056 -15.716   3.595  1.00  0.00     0.134 HD
BRANCH   8  10
HETATM   10  C   UNL     1      39.951 -14.001   4.069  1.00  0.00     0.014 A 
HETATM   11  C   UNL     1      41.259 -14.204   4.536  1.00  0.00     0.040 A 
HETATM   12  C   UNL     1      41.813 -13.348   5.495  1.00  0.00     0.033 A 
HETATM   13  C   UNL     1      41.081 -12.260   5.978  1.00  0.00     0.017 A 
HETATM   14  C   UNL     1      39.789 -12.042   5.509  1.00  0.00     0.003 A 
HETATM   15  C   UNL     1      39.228 -12.910   4.568  1.00  0.00     0.024 A 
BRANCH  12  16
HETATM   16  C   UNL     1      43.193 -13.607   5.972  1.00  0.00     0.251 C 
HETATM   17  N   UNL     1      43.581 -12.938   7.117  1.00  0.00    -0.355 N 
HETATM   18  H   UNL     1      42.826 -12.486   7.628  1.00  0.00     0.162 HD
HETATM   19  O   UNL     1      43.953 -14.346   5.360  1.00  0.00    -0.268 OA
BRANCH  17  20
HETATM   20  C   UNL     1      44.703 -13.387   7.941  1.00  0.00     0.150 C 
BRANCH  20  21
HETATM   21  C   UNL     1      45.119 -12.499   9.134  1.00  0.00     0.253 C 
BRANCH  21  22
HETATM   22  N   UNL     1      43.955 -12.171  10.046  1.00  0.00    -0.077 N 
HETATM   23  H   UNL     1      43.184 -12.751   9.675  1.00  0.00     0.279 HD
HETATM   24  C   UNL     1      44.180 -12.520  11.480  1.00  0.00     0.269 C 
HETATM   25  C   UNL     1      43.493 -10.755   9.872  1.00  0.00     0.269 C 
ENDBRANCH  21  22
ENDBRANCH  20  21
ENDBRANCH  17  20
ENDBRANCH  12  16
ENDBRANCH   8  10
ENDBRANCH   2   8
BRANCH   1  26
HETATM   26  O   UNL     1      40.693 -17.524   2.914  1.00  0.00    -0.307 OA
BRANCH  26  27
HETATM   27  C   UNL     1      41.745 -17.652   3.786  1.00  0.00     0.076 A 
HETATM   28  C   UNL     1      42.961 -18.070   3.254  1.00  0.00     0.039 A 
HETATM   29  C   UNL     1      44.070 -18.209   4.088  1.00  0.00     0.027 A 
HETATM   30  C   UNL     1      43.959 -17.939   5.455  1.00  0.00     0.040 A 
HETATM   31  C   UNL     1      42.728 -17.553   6.011  1.00  0.00    -0.038 A 
HETATM   32 CL   UNL     1      45.381 -18.095   6.422  1.00  0.00    -0.084 Cl
HETATM   33  C   UNL     1      42.584 -17.235   7.473  1.00  0.00     0.050 C 
HETATM   34  C   UNL     1      41.615 -17.427   5.161  1.00  0.00     0.045 A 
ENDBRANCH  26  27
ENDBRANCH   1  26
BRANCH   5  35
HETATM   35  C   UNL     1      41.466 -13.873  -1.274  1.00  0.00     0.084 A 
HETATM   36  C   UNL     1      40.857 -13.956  -2.541  1.00  0.00     0.063 A 
HETATM   37 CL   UNL     1      39.462 -14.936  -2.866  1.00  0.00    -0.082 Cl
HETATM   38  C   UNL     1      41.250 -13.095  -3.577  1.00  0.00     0.026 A 
HETATM   39  C   UNL     1      42.224 -12.122  -3.360  1.00  0.00     0.002 A 
HETATM   40  C   UNL     1      42.793 -11.988  -2.100  1.00  0.00     0.002 A 
HETATM   41  C   UNL     1      42.412 -12.847  -1.067  1.00  0.00     0.033 A 
ENDBRANCH   5  35
TORSDOF 9
ENDMDL
MODEL 2
REMARK VINA RESULT:      -9.0      3.458      5.399
REMARK  9 active torsions:
REMARK  status: ('A' for Active; 'I' for Inactive)
REMARK    1  A    between atoms: C_7  and  O_8 
REMARK    2  A    between atoms: O_8  and  C_9 
REMARK    3  A    between atoms: C_10  and  N_11 
REMARK    4  A    between atoms: N_11  and  C_12 
REMARK    5  A    between atoms: C_14  and  C_15 
REMARK       I    between atoms: C_15  and  N_16 
REMARK    6  A    between atoms: N_16  and  C_17 
REMARK    7  A    between atoms: C_17  and  C_18 
REMARK    8  A    between atoms: C_18  and  N_19 
REMARK    9  A    between atoms: N_29  and  C_30 
ROOT
HETATM    1  C   UNL     1      42.629 -16.065   6.469  1.00  0.00     0.122 C 
HETATM    2  C   UNL     1      43.254 -15.015   5.911  1.00  0.00     0.119 C 
HETATM    3  C   UNL     1      42.449 -14.047   5.072  1.00  0.00     0.293 C 
HETATM    4  O   UNL     1      43.040 -13.038   4.674  1.00  0.00    -0.264 OA
HETATM    5  N   UNL     1      41.108 -14.358   4.862  1.00  0.00    -0.195 N 
HETATM    6  N   UNL     1      40.440 -15.295   5.618  1.00  0.00    -0.174 NA
HETATM    7  C   UNL     1      41.156 -16.070   6.360  1.00  0.00     0.178 C 
ENDROOT
BRANCH   2   8
HETATM    8  N   UNL     1      44.625 -14.717   5.980  1.00  0.00    -0.253 NA
HETATM    9  H   UNL     1      44.938 -14.459   5.033  1.00  0.00     0.134 HD
BRANCH   8  10
HETATM   10  C   UNL     1      45.198 -13.788   6.890  1.00  0.00     0.014 A 
HETATM   11  C   UNL     1      44.500 -13.508   8.075  1.00  0.00     0.040 A 
HETATM   12  C   UNL     1      45.016 -12.602   9.009  1.00  0.00     0.033 A 
HETATM   13  C   UNL     1      46.251 -11.985   8.787  1.00  0.00     0.017 A 
HETATM   14  C   UNL     1      46.957 -12.268   7.622  1.00  0.00     0.003 A 
HETATM   15  C   UNL     1      46.431 -13.156   6.679  1.00  0.00     0.024 A 
BRANCH  12  16
HETATM   16  C   UNL     1      44.240 -12.324  10.241  1.00  0.00     0.251 C 
HETATM   17  N   UNL     1      43.341 -11.277  10.176  1.00  0.00    -0.355 N 
HETATM   18  H   UNL     1      43.160 -10.923   9.239  1.00  0.00     0.162 HD
HETATM   19  O   UNL     1      44.416 -12.969  11.266  1.00  0.00    -0.268 OA
BRANCH  17  20
HETATM   20  C   UNL     1      42.226 -11.145  11.113  1.00  0.00     0.150 C 
BRANCH  20  21
HETATM   21  C   UNL     1      40.833 -10.822  10.532  1.00  0.00     0.253 C 
BRANCH  21  22
HETATM   22  N   UNL     1      39.720 -11.052  11.534  1.00  0.00    -0.077 N 
HETATM   23  H   UNL     1      39.004 -11.564  10.990  1.00  0.00     0.279 HD
HETATM   24  C   UNL     1      40.117 -11.879  12.713  1.00  0.00     0.269 C 
HETATM   25  C   UNL     1      39.059  -9.768  11.936  1.00  0.00     0.269 C 
ENDBRANCH  21  22
ENDBRANCH  20  21
ENDBRANCH  17  20
ENDBRANCH  12  16
ENDBRANCH   8  10
ENDBRANCH   2   8
BRANCH   1  26
HETATM   26  O   UNL     1      43.329 -17.018   7.203  1.00  0.00    -0.307 OA
BRANCH  26  27
HETATM   27  C   UNL     1      43.639 -18.225   6.628  1.00  0.00     0.076 A 
HETATM   28  C   UNL     1      43.681 -19.334   7.467  1.00  0.00     0.039 A 
HETATM   29  C   UNL     1      43.980 -20.590   6.940  1.00  0.00     0.027 A 
HETATM   30  C   UNL     1      44.245 -20.734   5.575  1.00  0.00     0.040 A 
HETATM   31  C   UNL     1      44.244 -19.616   4.724  1.00  0.00    -0.038 A 
HETATM   32 CL   UNL     1      44.570 -22.323   4.983  1.00  0.00    -0.084 Cl
HETATM   33  C   UNL     1      44.504 -19.744   3.248  1.00  0.00     0.050 C 
HETATM   34  C   UNL     1      43.951 -18.354   5.269  1.00  0.00     0.045 A 
ENDBRANCH  26  27
ENDBRANCH   1  26
BRANCH   5  35
HETATM   35  C   UNL     1      40.255 -13.569   4.022  1.00  0.00     0.084 A 
HETATM   36  C   UNL     1      39.580 -12.412   4.458  1.00  0.00     0.063 A 
HETATM   37 CL   UNL     1      39.914 -11.625   5.968  1.00  0.00    -0.082 Cl
HETATM   38  C   UNL     1      38.712 -11.727   3.594  1.00  0.00     0.026 A 
HETATM   39  C   UNL     1      38.530 -12.159   2.281  1.00  0.00     0.002 A 
HETATM   40  C   UNL     1      39.234 -13.263   1.817  1.00  0.00     0.002 A 
HETATM   41  C   UNL     1      40.093 -13.954   2.675  1.00  0.00     0.033 A 
ENDBRANCH   5  35
TORSDOF 9
ENDMDL
MODEL 3
REMARK VINA RESULT:      -9.0      1.742      2.260
REMARK  9 active torsions:
REMARK  status: ('A' for Active; 'I' for Inactive)
REMARK    1  A    between atoms: C_7  and  O_8 
REMARK    2  A    between atoms: O_8  and  C_9 
REMARK    3  A    between atoms: C_10  and  N_11 
REMARK    4  A    between atoms: N_11  and  C_12 
REMARK    5  A    between atoms: C_14  and  C_15 
REMARK       I    between atoms: C_15  and  N_16 
REMARK    6  A    between atoms: N_16  and  C_17 
REMARK    7  A    between atoms: C_17  and  C_18 
REMARK    8  A    between atoms: C_18  and  N_19 
REMARK    9  A    between atoms: N_29  and  C_30 
ROOT
HETATM    1  C   UNL     1      40.715 -16.577   1.850  1.00  0.00     0.122 C 
HETATM    2  C   UNL     1      40.283 -15.317   2.031  1.00  0.00     0.119 C 
HETATM    3  C   UNL     1      40.428 -14.325   0.898  1.00  0.00     0.293 C 
HETATM    4  O   UNL     1      39.917 -13.215   1.068  1.00  0.00    -0.264 OA
HETATM    5  N   UNL     1      41.085 -14.768  -0.248  1.00  0.00    -0.195 N 
HETATM    6  N   UNL     1      41.310 -16.103  -0.501  1.00  0.00    -0.174 NA
HETATM    7  C   UNL     1      41.127 -16.925   0.475  1.00  0.00     0.178 C 
ENDROOT
BRANCH   2   8
HETATM    8  N   UNL     1      39.730 -14.777   3.203  1.00  0.00    -0.253 NA
HETATM    9  H   UNL     1      39.248 -15.537   3.703  1.00  0.00     0.134 HD
BRANCH   8  10
HETATM   10  C   UNL     1      40.464 -14.028   4.164  1.00  0.00     0.014 A 
HETATM   11  C   UNL     1      39.746 -13.224   5.062  1.00  0.00     0.040 A 
HETATM   12  C   UNL     1      40.416 -12.466   6.030  1.00  0.00     0.033 A 
HETATM   13  C   UNL     1      41.809 -12.523   6.133  1.00  0.00     0.017 A 
HETATM   14  C   UNL     1      42.527 -13.330   5.256  1.00  0.00     0.003 A 
HETATM   15  C   UNL     1      41.860 -14.069   4.275  1.00  0.00     0.024 A 
BRANCH  12  16
HETATM   16  C   UNL     1      39.620 -11.618   6.950  1.00  0.00     0.251 C 
HETATM   17  N   UNL     1      39.781 -11.861   8.301  1.00  0.00    -0.355 N 
HETATM   18  H   UNL     1      40.566 -12.463   8.539  1.00  0.00     0.162 HD
HETATM   19  O   UNL     1      38.840 -10.774   6.529  1.00  0.00    -0.268 OA
BRANCH  17  20
HETATM   20  C   UNL     1      39.426 -10.875   9.320  1.00  0.00     0.150 C 
BRANCH  20  21
HETATM   21  C   UNL     1      40.557 -10.336  10.224  1.00  0.00     0.253 C 
BRANCH  21  22
HETATM   22  N   UNL     1      41.145 -11.409  11.117  1.00  0.00    -0.077 N 
HETATM   23  H   UNL     1      40.942 -12.286  10.610  1.00  0.00     0.279 HD
HETATM   24  C   UNL     1      42.620 -11.296  11.322  1.00  0.00     0.269 C 
HETATM   25  C   UNL     1      40.397 -11.526  12.412  1.00  0.00     0.269 C 
ENDBRANCH  21  22
ENDBRANCH  20  21
ENDBRANCH  17  20
ENDBRANCH  12  16
ENDBRANCH   8  10
ENDBRANCH   2   8
BRANCH   1  26
HETATM   26  O   UNL     1      40.658 -17.515   2.877  1.00  0.00    -0.307 OA
BRANCH  26  27
HETATM   27  C   UNL     1      41.717 -17.640   3.741  1.00  0.00     0.076 A 
HETATM   28  C   UNL     1      42.937 -18.030   3.196  1.00  0.00     0.039 A 
HETATM   29  C   UNL     1      44.052 -18.164   4.021  1.00  0.00     0.027 A 
HETATM   30  C   UNL     1      43.945 -17.917   5.393  1.00  0.00     0.040 A 
HETATM   31  C   UNL     1      42.711 -17.561   5.962  1.00  0.00    -0.038 A 
HETATM   32 CL   UNL     1      45.375 -18.065   6.350  1.00  0.00    -0.084 Cl
HETATM   33  C   UNL     1      42.570 -17.268   7.430  1.00  0.00     0.050 C 
HETATM   34  C   UNL     1      41.591 -17.439   5.121  1.00  0.00     0.045 A 
ENDBRANCH  26  27
ENDBRANCH   1  26
BRANCH   5  35
HETATM   35  C   UNL     1      41.359 -13.908  -1.361  1.00  0.00     0.084 A 
HETATM   36  C   UNL     1      40.584 -13.876  -2.536  1.00  0.00     0.063 A 
HETATM   37 CL   UNL     1      39.038 -14.652  -2.679  1.00  0.00    -0.082 Cl
HETATM   38  C   UNL     1      40.952 -13.051  -3.610  1.00  0.00     0.026 A 
HETATM   39  C   UNL     1      42.070 -12.224  -3.518  1.00  0.00     0.002 A 
HETATM   40  C   UNL     1      42.813 -12.199  -2.344  1.00  0.00     0.002 A 
HETATM   41  C   UNL     1      42.456 -13.025  -1.275  1.00  0.00     0.033 A 
ENDBRANCH   5  35
TORSDOF 9
ENDMDL
MODEL 4
REMARK VINA RESULT:      -8.9      2.409      6.557
REMARK  9 active torsions:
REMARK  status: ('A' for Active; 'I' for Inactive)
REMARK    1  A    between atoms: C_7  and  O_8 
REMARK    2  A    between atoms: O_8  and  C_9 
REMARK    3  A    between atoms: C_10  and  N_11 
REMARK    4  A    between atoms: N_11  and  C_12 
REMARK    5  A    between atoms: C_14  and  C_15 
REMARK       I    between atoms: C_15  and  N_16 
REMARK    6  A    between atoms: N_16  and  C_17 
REMARK    7  A    between atoms: C_17  and  C_18 
REMARK    8  A    between atoms: C_18  and  N_19 
REMARK    9  A    between atoms: N_29  and  C_30 
ROOT
HETATM    1  C   UNL     1      41.441 -16.544   0.407  1.00  0.00     0.122 C 
HETATM    2  C   UNL     1      40.793 -16.634   1.581  1.00  0.00     0.119 C 
HETATM    3  C   UNL     1      41.495 -17.280   2.755  1.00  0.00     0.293 C 
HETATM    4  O   UNL     1      40.907 -17.239   3.840  1.00  0.00    -0.264 OA
HETATM    5  N   UNL     1      42.757 -17.820   2.517  1.00  0.00    -0.195 N 
HETATM    6  N   UNL     1      43.489 -17.518   1.390  1.00  0.00    -0.174 NA
HETATM    7  C   UNL     1      42.868 -16.922   0.429  1.00  0.00     0.178 C 
ENDROOT
BRANCH   2   8
HETATM    8  N   UNL     1      39.477 -16.224   1.850  1.00  0.00    -0.253 NA
HETATM    9  H   UNL     1      39.177 -16.683   2.722  1.00  0.00     0.134 HD
BRANCH   8  10
HETATM   10  C   UNL     1      39.057 -14.868   1.911  1.00  0.00     0.014 A 
HETATM   11  C   UNL     1      39.549 -14.071   2.956  1.00  0.00     0.040 A 
HETATM   12  C   UNL     1      39.171 -12.728   3.066  1.00  0.00     0.033 A 
HETATM   13  C   UNL     1      38.319 -12.153   2.118  1.00  0.00     0.017 A 
HETATM   14  C   UNL     1      37.838 -12.932   1.070  1.00  0.00     0.003 A 
HETATM   15  C   UNL     1      38.198 -14.279   0.973  1.00  0.00     0.024 A 
BRANCH  12  16
HETATM   16  C   UNL     1      39.703 -11.925   4.194  1.00  0.00     0.251 C 
HETATM   17  N   UNL     1      39.928 -12.603   5.377  1.00  0.00    -0.355 N 
HETATM   18  H   UNL     1      39.891 -13.617   5.305  1.00  0.00     0.162 HD
HETATM   19  O   UNL     1      39.896 -10.721   4.086  1.00  0.00    -0.268 OA
BRANCH  17  20
HETATM   20  C   UNL     1      40.823 -12.089   6.413  1.00  0.00     0.150 C 
BRANCH  20  21
HETATM   21  C   UNL     1      42.343 -12.231   6.186  1.00  0.00     0.253 C 
BRANCH  21  22
HETATM   22  N   UNL     1      42.790 -13.677   6.145  1.00  0.00    -0.077 N 
HETATM   23  H   UNL     1      42.070 -14.171   6.699  1.00  0.00     0.279 HD
HETATM   24  C   UNL     1      42.839 -14.267   4.774  1.00  0.00     0.269 C 
HETATM   25  C   UNL     1      44.070 -13.886   6.900  1.00  0.00     0.269 C 
ENDBRANCH  21  22
ENDBRANCH  20  21
ENDBRANCH  17  20
ENDBRANCH  12  16
ENDBRANCH   8  10
ENDBRANCH   2   8
BRANCH   1  26
HETATM   26  O   UNL     1      40.823 -16.011  -0.722  1.00  0.00    -0.307 OA
BRANCH  26  27
HETATM   27  C   UNL     1      41.226 -14.791  -1.203  1.00  0.00     0.076 A 
HETATM   28  C   UNL     1      41.367 -14.669  -2.582  1.00  0.00     0.039 A 
HETATM   29  C   UNL     1      41.762 -13.451  -3.133  1.00  0.00     0.027 A 
HETATM   30  C   UNL     1      42.027 -12.358  -2.302  1.00  0.00     0.040 A 
HETATM   31  C   UNL     1      41.926 -12.478  -0.906  1.00  0.00    -0.038 A 
HETATM   32 CL   UNL     1      42.476 -10.869  -3.053  1.00  0.00    -0.084 Cl
HETATM   33  C   UNL     1      42.182 -11.314   0.010  1.00  0.00     0.050 C 
HETATM   34  C   UNL     1      41.535 -13.715  -0.363  1.00  0.00     0.045 A 
ENDBRANCH  26  27
ENDBRANCH   1  26
BRANCH   5  35
HETATM   35  C   UNL     1      43.495 -18.528   3.520  1.00  0.00     0.084 A 
HETATM   36  C   UNL     1      43.878 -19.878   3.404  1.00  0.00     0.063 A 
HETATM   37 CL   UNL     1      43.767 -20.777   1.924  1.00  0.00    -0.082 Cl
HETATM   38  C   UNL     1      44.546 -20.522   4.458  1.00  0.00     0.026 A 
HETATM   39  C   UNL     1      44.872 -19.826   5.621  1.00  0.00     0.002 A 
HETATM   40  C   UNL     1      44.554 -18.478   5.728  1.00  0.00     0.002 A 
HETATM   41  C   UNL     1      43.881 -17.835   4.686  1.00  0.00     0.033 A 
ENDBRANCH   5  35
TORSDOF 9
ENDMDL
MODEL 5
REMARK VINA RESULT:      -8.9      2.408      6.671
REMARK  9 active torsions:
REMARK  status: ('A' for Active; 'I' for Inactive)
REMARK    1  A    between atoms: C_7  and  O_8 
REMARK    2  A    between atoms: O_8  and  C_9 
REMARK    3  A    between atoms: C_10  and  N_11 
REMARK    4  A    between atoms: N_11  and  C_12 
REMARK    5  A    between atoms: C_14  and  C_15 
REMARK       I    between atoms: C_15  and  N_16 
REMARK    6  A    between atoms: N_16  and  C_17 
REMARK    7  A    between atoms: C_17  and  C_18 
REMARK    8  A    between atoms: C_18  and  N_19 
REMARK    9  A    between atoms: N_29  and  C_30 
ROOT
HETATM    1  C   UNL     1      41.493 -16.661   0.911  1.00  0.00     0.122 C 
HETATM    2  C   UNL     1      40.749 -16.485   2.016  1.00  0.00     0.119 C 
HETATM    3  C   UNL     1      41.376 -16.740   3.369  1.00  0.00     0.293 C 
HETATM    4  O   UNL     1      40.692 -16.457   4.357  1.00  0.00    -0.264 OA
HETATM    5  N   UNL     1      42.682 -17.228   3.377  1.00  0.00    -0.195 N 
HETATM    6  N   UNL     1      43.494 -17.183   2.266  1.00  0.00    -0.174 NA
HETATM    7  C   UNL     1      42.931 -16.912   1.137  1.00  0.00     0.178 C 
ENDROOT
BRANCH   2   8
HETATM    8  N   UNL     1      39.394 -16.119   2.069  1.00  0.00    -0.253 NA
HETATM    9  H   UNL     1      39.011 -16.458   2.963  1.00  0.00     0.134 HD
BRANCH   8  10
HETATM   10  C   UNL     1      38.913 -14.796   1.870  1.00  0.00     0.014 A 
HETATM   11  C   UNL     1      39.464 -13.769   2.652  1.00  0.00     0.040 A 
HETATM   12  C   UNL     1      39.030 -12.447   2.499  1.00  0.00     0.033 A 
HETATM   13  C   UNL     1      38.061 -12.127   1.543  1.00  0.00     0.017 A 
HETATM   14  C   UNL     1      37.521 -13.137   0.752  1.00  0.00     0.003 A 
HETATM   15  C   UNL     1      37.939 -14.461   0.921  1.00  0.00     0.024 A 
BRANCH  12  16
HETATM   16  C   UNL     1      39.627 -11.395   3.356  1.00  0.00     0.251 C 
HETATM   17  N   UNL     1      39.169 -11.330   4.658  1.00  0.00    -0.355 N 
HETATM   18  H   UNL     1      38.611 -12.127   4.957  1.00  0.00     0.162 HD
HETATM   19  O   UNL     1      40.454 -10.606   2.917  1.00  0.00    -0.268 OA
BRANCH  17  20
HETATM   20  C   UNL     1      39.926 -10.671   5.721  1.00  0.00     0.150 C 
BRANCH  20  21
HETATM   21  C   UNL     1      41.054 -11.474   6.404  1.00  0.00     0.253 C 
BRANCH  21  22
HETATM   22  N   UNL     1      41.020 -11.352   7.913  1.00  0.00    -0.077 N 
HETATM   23  H   UNL     1      41.210 -12.314   8.240  1.00  0.00     0.279 HD
HETATM   24  C   UNL     1      42.052 -10.433   8.480  1.00  0.00     0.269 C 
HETATM   25  C   UNL     1      39.642 -11.037   8.415  1.00  0.00     0.269 C 
ENDBRANCH  21  22
ENDBRANCH  20  21
ENDBRANCH  17  20
ENDBRANCH  12  16
ENDBRANCH   8  10
ENDBRANCH   2   8
BRANCH   1  26
HETATM   26  O   UNL     1      40.951 -16.496  -0.360  1.00  0.00    -0.307 OA
BRANCH  26  27
HETATM   27  C   UNL     1      41.237 -15.362  -1.077  1.00  0.00     0.076 A 
HETATM   28  C   UNL     1      41.158 -15.452  -2.464  1.00  0.00     0.039 A 
HETATM   29  C   UNL     1      41.427 -14.330  -3.247  1.00  0.00     0.027 A 
HETATM   30  C   UNL     1      41.784 -13.121  -2.643  1.00  0.00     0.040 A 
HETATM   31  C   UNL     1      41.905 -13.027  -1.247  1.00  0.00    -0.038 A 
HETATM   32 CL   UNL     1      42.066 -11.763  -3.671  1.00  0.00    -0.084 Cl
HETATM   33  C   UNL     1      42.265 -11.734  -0.568  1.00  0.00     0.050 C 
HETATM   34  C   UNL     1      41.641 -14.168  -0.469  1.00  0.00     0.045 A 
ENDBRANCH  26  27
ENDBRANCH   1  26
BRANCH   5  35
HETATM   35  C   UNL     1      43.364 -17.586   4.585  1.00  0.00     0.084 A 
HETATM   36  C   UNL     1      43.902 -16.649   5.488  1.00  0.00     0.063 A 
HETATM   37 CL   UNL     1      43.562 -14.949   5.413  1.00  0.00    -0.082 Cl
HETATM   38  C   UNL     1      44.612 -17.078   6.620  1.00  0.00     0.026 A 
HETATM   39  C   UNL     1      44.766 -18.437   6.888  1.00  0.00     0.002 A 
HETATM   40  C   UNL     1      44.191 -19.375   6.040  1.00  0.00     0.002 A 
HETATM   41  C   UNL     1      43.490 -18.954   4.907  1.00  0.00     0.033 A 
ENDBRANCH   5  35
TORSDOF 9
ENDMDL
MODEL 6
REMARK VINA RESULT:      -8.8      2.742      6.531
REMARK  9 active torsions:
REMARK  status: ('A' for Active; 'I' for Inactive)
REMARK    1  A    between atoms: C_7  and  O_8 
REMARK    2  A    between atoms: O_8  and  C_9 
REMARK    3  A    between atoms: C_10  and  N_11 
REMARK    4  A    between atoms: N_11  and  C_12 
REMARK    5  A    between atoms: C_14  and  C_15 
REMARK       I    between atoms: C_15  and  N_16 
REMARK    6  A    between atoms: N_16  and  C_17 
REMARK    7  A    between atoms: C_17  and  C_18 
REMARK    8  A    between atoms: C_18  and  N_19 
REMARK    9  A    between atoms: N_29  and  C_30 
ROOT
HETATM    1  C   UNL     1      41.465 -16.520   0.390  1.00  0.00     0.122 C 
HETATM    2  C   UNL     1      40.846 -16.639   1.576  1.00  0.00     0.119 C 
HETATM    3  C   UNL     1      41.565 -17.339   2.709  1.00  0.00     0.293 C 
HETATM    4  O   UNL     1      41.006 -17.325   3.810  1.00  0.00    -0.264 OA
HETATM    5  N   UNL     1      42.809 -17.895   2.418  1.00  0.00    -0.195 N 
HETATM    6  N   UNL     1      43.517 -17.567   1.283  1.00  0.00    -0.174 NA
HETATM    7  C   UNL     1      42.885 -16.926   0.361  1.00  0.00     0.178 C 
ENDROOT
BRANCH   2   8
HETATM    8  N   UNL     1      39.545 -16.214   1.895  1.00  0.00    -0.253 NA
HETATM    9  H   UNL     1      39.276 -16.663   2.782  1.00  0.00     0.134 HD
BRANCH   8  10
HETATM   10  C   UNL     1      39.142 -14.853   1.961  1.00  0.00     0.014 A 
HETATM   11  C   UNL     1      39.822 -14.006   2.848  1.00  0.00     0.040 A 
HETATM   12  C   UNL     1      39.468 -12.656   2.956  1.00  0.00     0.033 A 
HETATM   13  C   UNL     1      38.450 -12.126   2.158  1.00  0.00     0.017 A 
HETATM   14  C   UNL     1      37.780 -12.956   1.265  1.00  0.00     0.003 A 
HETATM   15  C   UNL     1      38.118 -14.309   1.173  1.00  0.00     0.024 A 
BRANCH  12  16
HETATM   16  C   UNL     1      40.203 -11.798   3.917  1.00  0.00     0.251 C 
HETATM   17  N   UNL     1      40.588 -12.394   5.102  1.00  0.00    -0.355 N 
HETATM   18  H   UNL     1      40.500 -13.408   5.122  1.00  0.00     0.162 HD
HETATM   19  O   UNL     1      40.423 -10.617   3.680  1.00  0.00    -0.268 OA
BRANCH  17  20
HETATM   20  C   UNL     1      41.654 -11.850   5.941  1.00  0.00     0.150 C 
BRANCH  20  21
HETATM   21  C   UNL     1      41.249 -10.933   7.115  1.00  0.00     0.253 C 
BRANCH  21  22
HETATM   22  N   UNL     1      39.747 -10.857   7.298  1.00  0.00    -0.077 N 
HETATM   23  H   UNL     1      39.379 -11.465   6.548  1.00  0.00     0.279 HD
HETATM   24  C   UNL     1      39.263 -11.365   8.617  1.00  0.00     0.269 C 
HETATM   25  C   UNL     1      39.216  -9.490   6.986  1.00  0.00     0.269 C 
ENDBRANCH  21  22
ENDBRANCH  20  21
ENDBRANCH  17  20
ENDBRANCH  12  16
ENDBRANCH   8  10
ENDBRANCH   2   8
BRANCH   1  26
HETATM   26  O   UNL     1      40.829 -15.937  -0.703  1.00  0.00    -0.307 OA
BRANCH  26  27
HETATM   27  C   UNL     1      41.266 -14.724  -1.174  1.00  0.00     0.076 A 
HETATM   28  C   UNL     1      41.461 -14.612  -2.548  1.00  0.00     0.039 A 
HETATM   29  C   UNL     1      41.894 -13.402  -3.088  1.00  0.00     0.027 A 
HETATM   30  C   UNL     1      42.141 -12.308  -2.254  1.00  0.00     0.040 A 
HETATM   31  C   UNL     1      41.986 -12.420  -0.862  1.00  0.00    -0.038 A 
HETATM   32 CL   UNL     1      42.639 -10.829  -2.994  1.00  0.00    -0.084 Cl
HETATM   33  C   UNL     1      42.223 -11.254   0.058  1.00  0.00     0.050 C 
HETATM   34  C   UNL     1      41.558 -13.648  -0.328  1.00  0.00     0.045 A 
ENDBRANCH  26  27
ENDBRANCH   1  26
BRANCH   5  35
HETATM   35  C   UNL     1      43.559 -18.652   3.377  1.00  0.00     0.084 A 
HETATM   36  C   UNL     1      43.885 -20.012   3.218  1.00  0.00     0.063 A 
HETATM   37 CL   UNL     1      43.683 -20.873   1.725  1.00  0.00    -0.082 Cl
HETATM   38  C   UNL     1      44.569 -20.703   4.230  1.00  0.00     0.026 A 
HETATM   39  C   UNL     1      44.967 -20.046   5.394  1.00  0.00     0.002 A 
HETATM   40  C   UNL     1      44.704 -18.690   5.541  1.00  0.00     0.002 A 
HETATM   41  C   UNL     1      44.016 -17.999   4.540  1.00  0.00     0.033 A 
ENDBRANCH   5  35
TORSDOF 9
ENDMDL
MODEL 7
REMARK VINA RESULT:      -8.4      3.465      5.206
REMARK  9 active torsions:
REMARK  status: ('A' for Active; 'I' for Inactive)
REMARK    1  A    between atoms: C_7  and  O_8 
REMARK    2  A    between atoms: O_8  and  C_9 
REMARK    3  A    between atoms: C_10  and  N_11 
REMARK    4  A    between atoms: N_11  and  C_12 
REMARK    5  A    between atoms: C_14  and  C_15 
REMARK       I    between atoms: C_15  and  N_16 
REMARK    6  A    between atoms: N_16  and  C_17 
REMARK    7  A    between atoms: C_17  and  C_18 
REMARK    8  A    between atoms: C_18  and  N_19 
REMARK    9  A    between atoms: N_29  and  C_30 
ROOT
HETATM    1  C   UNL     1      42.532 -16.041   6.041  1.00  0.00     0.122 C 
HETATM    2  C   UNL     1      43.132 -14.889   5.694  1.00  0.00     0.119 C 
HETATM    3  C   UNL     1      42.286 -13.761   5.145  1.00  0.00     0.293 C 
HETATM    4  O   UNL     1      42.861 -12.687   4.947  1.00  0.00    -0.264 OA
HETATM    5  N   UNL     1      40.931 -14.023   4.956  1.00  0.00    -0.195 N 
HETATM    6  N   UNL     1      40.302 -15.109   5.524  1.00  0.00    -0.174 NA
HETATM    7  C   UNL     1      41.056 -16.027   6.027  1.00  0.00     0.178 C 
ENDROOT
BRANCH   2   8
HETATM    8  N   UNL     1      44.507 -14.608   5.741  1.00  0.00    -0.253 NA
HETATM    9  H   UNL     1      44.791 -14.271   4.810  1.00  0.00     0.134 HD
BRANCH   8  10
HETATM   10  C   UNL     1      45.120 -13.766   6.708  1.00  0.00     0.014 A 
HETATM   11  C   UNL     1      44.398 -13.463   7.872  1.00  0.00     0.040 A 
HETATM   12  C   UNL     1      44.952 -12.640   8.860  1.00  0.00     0.033 A 
HETATM   13  C   UNL     1      46.246 -12.131   8.712  1.00  0.00     0.017 A 
HETATM   14  C   UNL     1      46.975 -12.439   7.568  1.00  0.00     0.003 A 
HETATM   15  C   UNL     1      46.413 -13.243   6.572  1.00  0.00     0.024 A 
BRANCH  12  16
HETATM   16  C   UNL     1      44.149 -12.333  10.068  1.00  0.00     0.251 C 
HETATM   17  N   UNL     1      43.254 -11.285   9.960  1.00  0.00    -0.355 N 
HETATM   18  H   UNL     1      43.095 -10.952   9.012  1.00  0.00     0.162 HD
HETATM   19  O   UNL     1      44.301 -12.955  11.111  1.00  0.00    -0.268 OA
BRANCH  17  20
HETATM   20  C   UNL     1      42.120 -11.131  10.869  1.00  0.00     0.150 C 
BRANCH  20  21
HETATM   21  C   UNL     1      42.149  -9.948  11.862  1.00  0.00     0.253 C 
BRANCH  21  22
HETATM   22  N   UNL     1      41.378 -10.239  13.132  1.00  0.00    -0.077 N 
HETATM   23  H   UNL     1      40.773  -9.408  13.246  1.00  0.00     0.279 HD
HETATM   24  C   UNL     1      40.518 -11.459  13.063  1.00  0.00     0.269 C 
HETATM   25  C   UNL     1      42.269 -10.239  14.338  1.00  0.00     0.269 C 
ENDBRANCH  21  22
ENDBRANCH  20  21
ENDBRANCH  17  20
ENDBRANCH  12  16
ENDBRANCH   8  10
ENDBRANCH   2   8
BRANCH   1  26
HETATM   26  O   UNL     1      43.268 -17.131   6.498  1.00  0.00    -0.307 OA
BRANCH  26  27
HETATM   27  C   UNL     1      43.618 -18.127   5.622  1.00  0.00     0.076 A 
HETATM   28  C   UNL     1      43.593 -17.816   4.266  1.00  0.00     0.039 A 
HETATM   29  C   UNL     1      43.948 -18.784   3.327  1.00  0.00     0.027 A 
HETATM   30  C   UNL     1      44.320 -20.065   3.745  1.00  0.00     0.040 A 
HETATM   31  C   UNL     1      44.312 -20.404   5.108  1.00  0.00    -0.038 A 
HETATM   32 CL   UNL     1      44.784 -21.203   2.532  1.00  0.00    -0.084 Cl
HETATM   33  C   UNL     1      44.728 -21.766   5.589  1.00  0.00     0.050 C 
HETATM   34  C   UNL     1      43.942 -19.422   6.044  1.00  0.00     0.045 A 
ENDBRANCH  26  27
ENDBRANCH   1  26
BRANCH   5  35
HETATM   35  C   UNL     1      40.035 -13.070   4.370  1.00  0.00     0.084 A 
HETATM   36  C   UNL     1      39.564 -13.150   3.046  1.00  0.00     0.063 A 
HETATM   37 CL   UNL     1      39.766 -14.552   2.044  1.00  0.00    -0.082 Cl
HETATM   38  C   UNL     1      38.738 -12.143   2.523  1.00  0.00     0.026 A 
HETATM   39  C   UNL     1      38.341 -11.067   3.315  1.00  0.00     0.002 A 
HETATM   40  C   UNL     1      38.749 -11.004   4.642  1.00  0.00     0.002 A 
HETATM   41  C   UNL     1      39.579 -11.999   5.165  1.00  0.00     0.033 A 
ENDBRANCH   5  35
TORSDOF 9
ENDMDL
MODEL 8
REMARK VINA RESULT:      -8.3      3.806     10.309
REMARK  9 active torsions:
REMARK  status: ('A' for Active; 'I' for Inactive)
REMARK    1  A    between atoms: C_7  and  O_8 
REMARK    2  A    between atoms: O_8  and  C_9 
REMARK    3  A    between atoms: C_10  and  N_11 
REMARK    4  A    between atoms: N_11  and  C_12 
REMARK    5  A    between atoms: C_14  and  C_15 
REMARK       I    between atoms: C_15  and  N_16 
REMARK    6  A    between atoms: N_16  and  C_17 
REMARK    7  A    between atoms: C_17  and  C_18 
REMARK    8  A    between atoms: C_18  and  N_19 
REMARK    9  A    between atoms: N_29  and  C_30 
ROOT
HETATM    1  C   UNL     1      41.440 -13.120   1.723  1.00  0.00     0.122 C 
HETATM    2  C   UNL     1      40.709 -14.221   1.481  1.00  0.00     0.119 C 
HETATM    3  C   UNL     1      41.143 -15.536   2.090  1.00  0.00     0.293 C 
HETATM    4  O   UNL     1      40.381 -16.494   1.934  1.00  0.00    -0.264 OA
HETATM    5  N   UNL     1      42.338 -15.535   2.807  1.00  0.00    -0.195 N 
HETATM    6  N   UNL     1      42.942 -14.373   3.234  1.00  0.00    -0.174 NA
HETATM    7  C   UNL     1      42.511 -13.267   2.731  1.00  0.00     0.178 C 
ENDROOT
BRANCH   2   8
HETATM    8  N   UNL     1      39.570 -14.312   0.664  1.00  0.00    -0.253 NA
HETATM    9  H   UNL     1      38.951 -13.522   0.899  1.00  0.00     0.134 HD
BRANCH   8  10
HETATM   10  C   UNL     1      39.606 -14.422  -0.752  1.00  0.00     0.014 A 
HETATM   11  C   UNL     1      38.506 -13.945  -1.481  1.00  0.00     0.040 A 
HETATM   12  C   UNL     1      38.487 -14.027  -2.878  1.00  0.00     0.033 A 
HETATM   13  C   UNL     1      39.580 -14.560  -3.570  1.00  0.00     0.017 A 
HETATM   14  C   UNL     1      40.681 -15.021  -2.856  1.00  0.00     0.003 A 
HETATM   15  C   UNL     1      40.690 -14.960  -1.459  1.00  0.00     0.024 A 
BRANCH  12  16
HETATM   16  C   UNL     1      37.299 -13.524  -3.608  1.00  0.00     0.251 C 
HETATM   17  N   UNL     1      36.825 -14.322  -4.631  1.00  0.00    -0.355 N 
HETATM   18  H   UNL     1      37.215 -15.262  -4.660  1.00  0.00     0.162 HD
HETATM   19  O   UNL     1      36.793 -12.443  -3.337  1.00  0.00    -0.268 OA
BRANCH  17  20
HETATM   20  C   UNL     1      35.462 -14.203  -5.148  1.00  0.00     0.150 C 
BRANCH  20  21
HETATM   21  C   UNL     1      35.268 -13.498  -6.508  1.00  0.00     0.253 C 
BRANCH  21  22
HETATM   22  N   UNL     1      33.997 -12.675  -6.557  1.00  0.00    -0.077 N 
HETATM   23  H   UNL     1      33.274 -13.322  -6.200  1.00  0.00     0.279 HD
HETATM   24  C   UNL     1      34.022 -11.453  -5.699  1.00  0.00     0.269 C 
HETATM   25  C   UNL     1      33.584 -12.372  -7.967  1.00  0.00     0.269 C 
ENDBRANCH  21  22
ENDBRANCH  20  21
ENDBRANCH  17  20
ENDBRANCH  12  16
ENDBRANCH   8  10
ENDBRANCH   2   8
BRANCH   1  26
HETATM   26  O   UNL     1      41.120 -11.895   1.143  1.00  0.00    -0.307 OA
BRANCH  26  27
HETATM   27  C   UNL     1      41.362 -11.694  -0.192  1.00  0.00     0.076 A 
HETATM   28  C   UNL     1      42.601 -12.099  -0.680  1.00  0.00     0.039 A 
HETATM   29  C   UNL     1      42.902 -11.931  -2.031  1.00  0.00     0.027 A 
HETATM   30  C   UNL     1      41.967 -11.348  -2.892  1.00  0.00     0.040 A 
HETATM   31  C   UNL     1      40.728 -10.900  -2.405  1.00  0.00    -0.038 A 
HETATM   32 CL   UNL     1      42.391 -11.205  -4.559  1.00  0.00    -0.084 Cl
HETATM   33  C   UNL     1      39.694 -10.290  -3.310  1.00  0.00     0.050 C 
HETATM   34  C   UNL     1      40.440 -11.066  -1.038  1.00  0.00     0.045 A 
ENDBRANCH  26  27
ENDBRANCH   1  26
BRANCH   5  35
HETATM   35  C   UNL     1      42.902 -16.727   3.367  1.00  0.00     0.084 A 
HETATM   36  C   UNL     1      43.521 -17.735   2.602  1.00  0.00     0.063 A 
HETATM   37 CL   UNL     1      43.943 -17.539   0.930  1.00  0.00    -0.082 Cl
HETATM   38  C   UNL     1      43.995 -18.905   3.215  1.00  0.00     0.026 A 
HETATM   39  C   UNL     1      43.892 -19.073   4.595  1.00  0.00     0.002 A 
HETATM   40  C   UNL     1      43.338 -18.064   5.372  1.00  0.00     0.002 A 
HETATM   41  C   UNL     1      42.857 -16.901   4.765  1.00  0.00     0.033 A 
ENDBRANCH   5  35
TORSDOF 9
ENDMDL
MODEL 9
REMARK VINA RESULT:      -8.2      3.772      8.103
REMARK  9 active torsions:
REMARK  status: ('A' for Active; 'I' for Inactive)
REMARK    1  A    between atoms: C_7  and  O_8 
REMARK    2  A    between atoms: O_8  and  C_9 
REMARK    3  A    between atoms: C_10  and  N_11 
REMARK    4  A    between atoms: N_11  and  C_12 
REMARK    5  A    between atoms: C_14  and  C_15 
REMARK       I    between atoms: C_15  and  N_16 
REMARK    6  A    between atoms: N_16  and  C_17 
REMARK    7  A    between atoms: C_17  and  C_18 
REMARK    8  A    between atoms: C_18  and  N_19 
REMARK    9  A    between atoms: N_29  and  C_30 
ROOT
HETATM    1  C   UNL     1      41.621 -14.178   4.040  1.00  0.00     0.122 C 
HETATM    2  C   UNL     1      40.901 -15.152   3.457  1.00  0.00     0.119 C 
HETATM    3  C   UNL     1      41.483 -16.547   3.383  1.00  0.00     0.293 C 
HETATM    4  O   UNL     1      40.742 -17.431   2.943  1.00  0.00    -0.264 OA
HETATM    5  N   UNL     1      42.781 -16.715   3.859  1.00  0.00    -0.195 N 
HETATM    6  N   UNL     1      43.405 -15.776   4.650  1.00  0.00    -0.174 NA
HETATM    7  C   UNL     1      42.852 -14.613   4.729  1.00  0.00     0.178 C 
ENDROOT
BRANCH   2   8
HETATM    8  N   UNL     1      39.643 -15.019   2.847  1.00  0.00    -0.253 NA
HETATM    9  H   UNL     1      39.025 -14.522   3.504  1.00  0.00     0.134 HD
BRANCH   8  10
HETATM   10  C   UNL     1      39.434 -14.461   1.556  1.00  0.00     0.014 A 
HETATM   11  C   UNL     1      38.379 -13.551   1.393  1.00  0.00     0.040 A 
HETATM   12  C   UNL     1      38.127 -12.970   0.145  1.00  0.00     0.033 A 
HETATM   13  C   UNL     1      38.943 -13.266  -0.951  1.00  0.00     0.017 A 
HETATM   14  C   UNL     1      40.001 -14.156  -0.795  1.00  0.00     0.003 A 
HETATM   15  C   UNL     1      40.239 -14.753   0.447  1.00  0.00     0.024 A 
BRANCH  12  16
HETATM   16  C   UNL     1      36.992 -12.024   0.012  1.00  0.00     0.251 C 
HETATM   17  N   UNL     1      36.377 -11.636   1.187  1.00  0.00    -0.355 N 
HETATM   18  H   UNL     1      36.879 -11.883   2.037  1.00  0.00     0.162 HD
HETATM   19  O   UNL     1      36.605 -11.640  -1.084  1.00  0.00    -0.268 OA
BRANCH  17  20
HETATM   20  C   UNL     1      35.562 -10.425   1.279  1.00  0.00     0.150 C 
BRANCH  20  21
HETATM   21  C   UNL     1      34.031 -10.577   1.148  1.00  0.00     0.253 C 
BRANCH  21  22
HETATM   22  N   UNL     1      33.332 -10.574   2.491  1.00  0.00    -0.077 N 
HETATM   23  H   UNL     1      33.810 -11.324   3.017  1.00  0.00     0.279 HD
HETATM   24  C   UNL     1      33.460  -9.292   3.248  1.00  0.00     0.269 C 
HETATM   25  C   UNL     1      31.907 -11.027   2.378  1.00  0.00     0.269 C 
ENDBRANCH  21  22
ENDBRANCH  20  21
ENDBRANCH  17  20
ENDBRANCH  12  16
ENDBRANCH   8  10
ENDBRANCH   2   8
BRANCH   1  26
HETATM   26  O   UNL     1      41.159 -12.866   4.085  1.00  0.00    -0.307 OA
BRANCH  26  27
HETATM   27  C   UNL     1      40.755 -12.330   5.281  1.00  0.00     0.076 A 
HETATM   28  C   UNL     1      39.635 -12.897   5.883  1.00  0.00     0.039 A 
HETATM   29  C   UNL     1      39.181 -12.403   7.105  1.00  0.00     0.027 A 
HETATM   30  C   UNL     1      39.842 -11.335   7.720  1.00  0.00     0.040 A 
HETATM   31  C   UNL     1      40.950 -10.729   7.105  1.00  0.00    -0.038 A 
HETATM   32 CL   UNL     1      39.249 -10.798   9.251  1.00  0.00    -0.084 Cl
HETATM   33  C   UNL     1      41.694  -9.594   7.753  1.00  0.00     0.050 C 
HETATM   34  C   UNL     1      41.391 -11.230   5.868  1.00  0.00     0.045 A 
ENDBRANCH  26  27
ENDBRANCH   1  26
BRANCH   5  35
HETATM   35  C   UNL     1      43.478 -17.964   3.775  1.00  0.00     0.084 A 
HETATM   36  C   UNL     1      43.894 -18.549   2.564  1.00  0.00     0.063 A 
HETATM   37 CL   UNL     1      43.882 -17.709   1.046  1.00  0.00    -0.082 Cl
HETATM   38  C   UNL     1      44.517 -19.807   2.558  1.00  0.00     0.026 A 
HETATM   39  C   UNL     1      44.765 -20.482   3.752  1.00  0.00     0.002 A 
HETATM   40  C   UNL     1      44.414 -19.892   4.960  1.00  0.00     0.002 A 
HETATM   41  C   UNL     1      43.787 -18.644   4.972  1.00  0.00     0.033 A 
ENDBRANCH   5  35
TORSDOF 9
ENDMDL
MODEL 10
REMARK VINA RESULT:      -8.2      2.331      6.598
REMARK  9 active torsions:
REMARK  status: ('A' for Active; 'I' for Inactive)
REMARK    1  A    between atoms: C_7  and  O_8 
REMARK    2  A    between atoms: O_8  and  C_9 
REMARK    3  A    between atoms: C_10  and  N_11 
REMARK    4  A    between atoms: N_11  and  C_12 
REMARK    5  A    between atoms: C_14  and  C_15 
REMARK       I    between atoms: C_15  and  N_16 
REMARK    6  A    between atoms: N_16  and  C_17 
REMARK    7  A    between atoms: C_17  and  C_18 
REMARK    8  A    between atoms: C_18  and  N_19 
REMARK    9  A    between atoms: N_29  and  C_30 
ROOT
HETATM    1  C   UNL     1      41.700 -13.913   2.540  1.00  0.00     0.122 C 
HETATM    2  C   UNL     1      40.989 -14.240   3.632  1.00  0.00     0.119 C 
HETATM    3  C   UNL     1      41.536 -15.292   4.571  1.00  0.00     0.293 C 
HETATM    4  O   UNL     1      40.907 -15.479   5.617  1.00  0.00    -0.264 OA
HETATM    5  N   UNL     1      42.720 -15.921   4.194  1.00  0.00    -0.195 N 
HETATM    6  N   UNL     1      43.541 -15.420   3.208  1.00  0.00    -0.174 NA
HETATM    7  C   UNL     1      43.058 -14.488   2.459  1.00  0.00     0.178 C 
ENDROOT
BRANCH   2   8
HETATM    8  N   UNL     1      39.731 -13.736   4.000  1.00  0.00    -0.253 NA
HETATM    9  H   UNL     1      39.305 -14.404   4.658  1.00  0.00     0.134 HD
BRANCH   8  10
HETATM   10  C   UNL     1      39.511 -12.428   4.513  1.00  0.00     0.014 A 
HETATM   11  C   UNL     1      39.641 -12.231   5.896  1.00  0.00     0.040 A 
HETATM   12  C   UNL     1      39.437 -10.965   6.457  1.00  0.00     0.033 A 
HETATM   13  C   UNL     1      39.130  -9.871   5.641  1.00  0.00     0.017 A 
HETATM   14  C   UNL     1      39.014 -10.055   4.267  1.00  0.00     0.003 A 
HETATM   15  C   UNL     1      39.196 -11.324   3.709  1.00  0.00     0.024 A 
BRANCH  12  16
HETATM   16  C   UNL     1      39.569 -10.803   7.925  1.00  0.00     0.251 C 
HETATM   17  N   UNL     1      40.808 -11.092   8.464  1.00  0.00    -0.355 N 
HETATM   18  H   UNL     1      41.558 -11.201   7.785  1.00  0.00     0.162 HD
HETATM   19  O   UNL     1      38.619 -10.465   8.619  1.00  0.00    -0.268 OA
BRANCH  17  20
HETATM   20  C   UNL     1      41.227 -10.590   9.772  1.00  0.00     0.150 C 
BRANCH  20  21
HETATM   21  C   UNL     1      42.737 -10.598  10.096  1.00  0.00     0.253 C 
BRANCH  21  22
HETATM   22  N   UNL     1      43.169 -11.863  10.809  1.00  0.00    -0.077 N 
HETATM   23  H   UNL     1      42.411 -12.534  10.596  1.00  0.00     0.279 HD
HETATM   24  C   UNL     1      44.466 -12.427  10.329  1.00  0.00     0.269 C 
HETATM   25  C   UNL     1      43.136 -11.701  12.299  1.00  0.00     0.269 C 
ENDBRANCH  21  22
ENDBRANCH  20  21
ENDBRANCH  17  20
ENDBRANCH  12  16
ENDBRANCH   8  10
ENDBRANCH   2   8
BRANCH   1  26
HETATM   26  O   UNL     1      41.219 -12.993   1.612  1.00  0.00    -0.307 OA
BRANCH  26  27
HETATM   27  C   UNL     1      40.519 -13.437   0.517  1.00  0.00     0.076 A 
HETATM   28  C   UNL     1      39.178 -13.074   0.433  1.00  0.00     0.039 A 
HETATM   29  C   UNL     1      38.418 -13.485  -0.661  1.00  0.00     0.027 A 
HETATM   30  C   UNL     1      38.996 -14.267  -1.664  1.00  0.00     0.040 A 
HETATM   31  C   UNL     1      40.338 -14.673  -1.572  1.00  0.00    -0.038 A 
HETATM   32 CL   UNL     1      38.006 -14.709  -3.009  1.00  0.00    -0.084 Cl
HETATM   33  C   UNL     1      40.993 -15.496  -2.647  1.00  0.00     0.050 C 
HETATM   34  C   UNL     1      41.091 -14.260  -0.459  1.00  0.00     0.045 A 
ENDBRANCH  26  27
ENDBRANCH   1  26
BRANCH   5  35
HETATM   35  C   UNL     1      43.302 -16.989   4.952  1.00  0.00     0.084 A 
HETATM   36  C   UNL     1      44.092 -16.793   6.101  1.00  0.00     0.063 A 
HETATM   37 CL   UNL     1      44.226 -15.268   6.918  1.00  0.00    -0.082 Cl
HETATM   38  C   UNL     1      44.681 -17.887   6.755  1.00  0.00     0.026 A 
HETATM   39  C   UNL     1      44.465 -19.187   6.299  1.00  0.00     0.002 A 
HETATM   40  C   UNL     1      43.640 -19.402   5.202  1.00  0.00     0.002 A 
HETATM   41  C   UNL     1      43.059 -18.316   4.542  1.00  0.00     0.033 A 
ENDBRANCH   5  35
TORSDOF 9
ENDMDL
