MODEL 1
REMARK VINA RESULT:      -8.4      0.000      0.000
REMARK  9 active torsions:
REMARK  status: ('A' for Active; 'I' for Inactive)
REMARK    1  A    between atoms: C_2  and  O_3 
REMARK    2  A    between atoms: O_3  and  C_4 
REMARK    3  A    between atoms: C_5  and  C_6 
REMARK    4  A    between atoms: N_7  and  C_9 
REMARK    5  A    between atoms: C_9  and  C_10 
REMARK       I    between atoms: C_10  and  N_11 
REMARK    6  A    between atoms: N_11  and  C_12 
REMARK    7  A    between atoms: C_20  and  C_21 
REMARK    8  A    between atoms: C_21  and  O_22 
REMARK    9  A    between atoms: C_28  and  O_29 
ROOT
HETATM    1  C   UNL     1      40.847 -13.878  -0.119  1.00  0.00     0.231 C 
HETATM    2  N   UNL     1      40.617 -15.266  -0.740  1.00  0.00    -0.054 N 
HETATM    3  H   UNL     1      39.759 -15.617  -0.276  1.00  0.00     0.281 HD
HETATM    4  C   UNL     1      40.324 -15.295  -2.220  1.00  0.00     0.239 C 
HETATM    5  C   UNL     1      41.351 -14.509  -3.013  1.00  0.00     0.066 C 
HETATM    6  C   UNL     1      41.482 -13.072  -2.507  1.00  0.00     0.065 C 
HETATM    7  C   UNL     1      41.841 -13.077  -1.005  1.00  0.00     0.055 C 
HETATM    8  C   UNL     1      42.554 -12.323  -3.323  1.00  0.00     0.038 C 
HETATM    9  C   UNL     1      42.812 -10.914  -2.789  1.00  0.00     0.003 C 
HETATM   10  C   UNL     1      43.175 -10.940  -1.310  1.00  0.00     0.001 C 
HETATM   11  C   UNL     1      42.109 -11.654  -0.481  1.00  0.00     0.010 C 
ENDROOT
BRANCH   2  12
HETATM   12  C   UNL     1      41.664 -16.318  -0.335  1.00  0.00     0.338 C 
BRANCH  12  13
HETATM   13  C   UNL     1      41.646 -16.488   1.189  1.00  0.00     0.248 C 
HETATM   14  N   UNL     1      42.893 -16.682   1.749  1.00  0.00    -0.319 N 
HETATM   15  H   UNL     1      43.721 -16.687   1.151  1.00  0.00     0.169 HD
HETATM   16  O   UNL     1      40.545 -16.593   1.726  1.00  0.00    -0.271 OA
BRANCH  14  17
HETATM   17  C   UNL     1      43.156 -17.082   3.057  1.00  0.00     0.094 A 
HETATM   18  S   UNL     1      43.148 -15.970   4.335  1.00  0.00    -0.075 SA
HETATM   19  C   UNL     1      43.515 -17.168   5.472  1.00  0.00    -0.008 A 
HETATM   20  C   UNL     1      43.636 -18.425   4.908  1.00  0.00    -0.026 A 
HETATM   21  C   UNL     1      43.639 -16.849   6.932  1.00  0.00     0.047 C 
HETATM   22  C   UNL     1      43.943 -19.629   5.760  1.00  0.00     0.041 C 
HETATM   23  C   UNL     1      43.458 -18.378   3.469  1.00  0.00     0.080 A 
HETATM   24  C   UNL     1      43.734 -19.357   7.258  1.00  0.00     0.005 C 
HETATM   25  C   UNL     1      44.316 -18.004   7.680  1.00  0.00     0.005 C 
BRANCH  23  26
HETATM   26  C   UNL     1      43.521 -19.486   2.509  1.00  0.00     0.296 C 
HETATM   27  O   UNL     1      42.583 -19.744   1.756  1.00  0.00    -0.259 OA
BRANCH  26  28
HETATM   28  O   UNL     1      44.690 -20.178   2.547  1.00  0.00    -0.322 OA
HETATM   29  C   UNL     1      44.553 -21.600   2.513  1.00  0.00     0.213 C 
ENDBRANCH  26  28
ENDBRANCH  23  26
ENDBRANCH  14  17
ENDBRANCH  12  13
ENDBRANCH   2  12
BRANCH   1  30
HETATM   30  C   UNL     1      39.572 -13.187   0.376  1.00  0.00     0.006 A 
HETATM   31  C   UNL     1      39.481 -12.731   1.715  1.00  0.00     0.077 A 
HETATM   32  C   UNL     1      38.305 -12.119   2.178  1.00  0.00     0.037 A 
HETATM   33  C   UNL     1      37.215 -11.936   1.331  1.00  0.00     0.003 A 
HETATM   34  C   UNL     1      37.294 -12.357   0.014  1.00  0.00     0.001 A 
HETATM   35  C   UNL     1      38.459 -12.968  -0.456  1.00  0.00     0.012 A 
BRANCH  31  36
HETATM   36  O   UNL     1      40.589 -12.925   2.506  1.00  0.00    -0.351 OA
BRANCH  36  37
HETATM   37  C   UNL     1      40.392 -12.878   3.924  1.00  0.00     0.171 C 
HETATM   38  C   UNL     1      39.969 -14.257   4.398  1.00  0.00     0.034 C 
ENDBRANCH  36  37
ENDBRANCH  31  36
ENDBRANCH   1  30
BRANCH   6  39
HETATM   39  O   UNL     1      40.217 -12.444  -2.692  1.00  0.00    -0.389 OA
HETATM   40  H   UNL     1      40.339 -11.518  -2.981  1.00  0.00     0.210 HD
ENDBRANCH   6  39
TORSDOF 9
ENDMDL
MODEL 2
REMARK VINA RESULT:      -8.4      2.471      5.373
REMARK  9 active torsions:
REMARK  status: ('A' for Active; 'I' for Inactive)
REMARK    1  A    between atoms: C_2  and  O_3 
REMARK    2  A    between atoms: O_3  and  C_4 
REMARK    3  A    between atoms: C_5  and  C_6 
REMARK    4  A    between atoms: N_7  and  C_9 
REMARK    5  A    between atoms: C_9  and  C_10 
REMARK       I    between atoms: C_10  and  N_11 
REMARK    6  A    between atoms: N_11  and  C_12 
REMARK    7  A    between atoms: C_20  and  C_21 
REMARK    8  A    between atoms: C_21  and  O_22 
REMARK    9  A    between atoms: C_28  and  O_29 
ROOT
HETATM    1  C   UNL     1      39.995 -12.747   3.804  1.00  0.00     0.231 C 
HETATM    2  N   UNL     1      41.009 -13.293   4.824  1.00  0.00    -0.054 N 
HETATM    3  H   UNL     1      41.590 -13.956   4.280  1.00  0.00     0.281 HD
HETATM    4  C   UNL     1      41.971 -12.291   5.411  1.00  0.00     0.239 C 
HETATM    5  C   UNL     1      41.251 -11.073   5.961  1.00  0.00     0.066 C 
HETATM    6  C   UNL     1      40.352 -10.422   4.909  1.00  0.00     0.065 C 
HETATM    7  C   UNL     1      39.341 -11.456   4.371  1.00  0.00     0.055 C 
HETATM    8  C   UNL     1      39.622  -9.209   5.520  1.00  0.00     0.038 C 
HETATM    9  C   UNL     1      38.622  -8.583   4.549  1.00  0.00     0.003 C 
HETATM   10  C   UNL     1      37.626  -9.616   4.037  1.00  0.00     0.001 C 
HETATM   11  C   UNL     1      38.331 -10.813   3.402  1.00  0.00     0.010 C 
ENDROOT
BRANCH   2  12
HETATM   12  C   UNL     1      40.390 -14.204   5.899  1.00  0.00     0.338 C 
BRANCH  12  13
HETATM   13  C   UNL     1      40.952 -15.622   5.745  1.00  0.00     0.248 C 
HETATM   14  N   UNL     1      42.023 -15.712   4.879  1.00  0.00    -0.319 N 
HETATM   15  H   UNL     1      42.376 -14.870   4.420  1.00  0.00     0.169 HD
HETATM   16  O   UNL     1      40.316 -16.535   6.266  1.00  0.00    -0.271 OA
BRANCH  14  17
HETATM   17  C   UNL     1      42.584 -16.886   4.381  1.00  0.00     0.094 A 
HETATM   18  S   UNL     1      43.655 -17.813   5.310  1.00  0.00    -0.075 SA
HETATM   19  C   UNL     1      43.837 -18.962   4.082  1.00  0.00    -0.008 A 
HETATM   20  C   UNL     1      43.085 -18.671   2.958  1.00  0.00    -0.026 A 
HETATM   21  C   UNL     1      44.703 -20.173   4.265  1.00  0.00     0.047 C 
HETATM   22  C   UNL     1      43.098 -19.585   1.760  1.00  0.00     0.041 C 
HETATM   23  C   UNL     1      42.363 -17.423   3.114  1.00  0.00     0.080 A 
HETATM   24  C   UNL     1      43.701 -20.963   2.079  1.00  0.00     0.005 C 
HETATM   25  C   UNL     1      44.979 -20.846   2.916  1.00  0.00     0.005 C 
BRANCH  23  26
HETATM   26  C   UNL     1      41.471 -16.763   2.153  1.00  0.00     0.296 C 
HETATM   27  O   UNL     1      40.252 -16.733   2.317  1.00  0.00    -0.259 OA
BRANCH  26  28
HETATM   28  O   UNL     1      42.118 -16.211   1.093  1.00  0.00    -0.322 OA
HETATM   29  C   UNL     1      41.563 -16.525  -0.186  1.00  0.00     0.213 C 
ENDBRANCH  26  28
ENDBRANCH  23  26
ENDBRANCH  14  17
ENDBRANCH  12  13
ENDBRANCH   2  12
BRANCH   1  30
HETATM   30  C   UNL     1      40.491 -12.751   2.354  1.00  0.00     0.006 A 
HETATM   31  C   UNL     1      39.696 -13.321   1.328  1.00  0.00     0.077 A 
HETATM   32  C   UNL     1      40.158 -13.348   0.003  1.00  0.00     0.037 A 
HETATM   33  C   UNL     1      41.396 -12.806  -0.331  1.00  0.00     0.003 A 
HETATM   34  C   UNL     1      42.178 -12.227   0.655  1.00  0.00     0.001 A 
HETATM   35  C   UNL     1      41.728 -12.196   1.976  1.00  0.00     0.012 A 
BRANCH  31  36
HETATM   36  O   UNL     1      38.478 -13.831   1.711  1.00  0.00    -0.351 OA
BRANCH  36  37
HETATM   37  C   UNL     1      37.450 -13.878   0.713  1.00  0.00     0.171 C 
HETATM   38  C   UNL     1      36.850 -12.491   0.575  1.00  0.00     0.034 C 
ENDBRANCH  36  37
ENDBRANCH  31  36
ENDBRANCH   1  30
BRANCH   6  39
HETATM   39  O   UNL     1      41.197  -9.984   3.847  1.00  0.00    -0.389 OA
HETATM   40  H   UNL     1      42.050 -10.460   3.878  1.00  0.00     0.210 HD
ENDBRANCH   6  39
TORSDOF 9
ENDMDL
MODEL 3
REMARK VINA RESULT:      -8.2      2.321      5.119
REMARK  9 active torsions:
REMARK  status: ('A' for Active; 'I' for Inactive)
REMARK    1  A    between atoms: C_2  and  O_3 
REMARK    2  A    between atoms: O_3  and  C_4 
REMARK    3  A    between atoms: C_5  and  C_6 
REMARK    4  A    between atoms: N_7  and  C_9 
REMARK    5  A    between atoms: C_9  and  C_10 
REMARK       I    between atoms: C_10  and  N_11 
REMARK    6  A    between atoms: N_11  and  C_12 
REMARK    7  A    between atoms: C_20  and  C_21 
REMARK    8  A    between atoms: C_21  and  O_22 
REMARK    9  A    between atoms: C_28  and  O_29 
ROOT
HETATM    1  C   UNL     1      41.049 -12.028   1.739  1.00  0.00     0.231 C 
HETATM    2  N   UNL     1      41.595 -11.501   3.077  1.00  0.00    -0.054 N 
HETATM    3  H   UNL     1      42.591 -11.289   2.883  1.00  0.00     0.281 HD
HETATM    4  C   UNL     1      40.992 -10.215   3.584  1.00  0.00     0.239 C 
HETATM    5  C   UNL     1      39.476 -10.272   3.602  1.00  0.00     0.066 C 
HETATM    6  C   UNL     1      38.905 -10.645   2.233  1.00  0.00     0.065 C 
HETATM    7  C   UNL     1      39.495 -11.993   1.769  1.00  0.00     0.055 C 
HETATM    8  C   UNL     1      37.366 -10.717   2.307  1.00  0.00     0.038 C 
HETATM    9  C   UNL     1      36.743 -11.197   0.997  1.00  0.00     0.003 C 
HETATM   10  C   UNL     1      37.330 -12.533   0.560  1.00  0.00     0.001 C 
HETATM   11  C   UNL     1      38.853 -12.472   0.454  1.00  0.00     0.010 C 
ENDROOT
BRANCH   2  12
HETATM   12  C   UNL     1      41.696 -12.570   4.179  1.00  0.00     0.338 C 
BRANCH  12  13
HETATM   13  C   UNL     1      42.489 -13.770   3.648  1.00  0.00     0.248 C 
HETATM   14  N   UNL     1      41.913 -14.994   3.926  1.00  0.00    -0.319 N 
HETATM   15  H   UNL     1      41.027 -15.032   4.433  1.00  0.00     0.169 HD
HETATM   16  O   UNL     1      43.603 -13.542   3.182  1.00  0.00    -0.271 OA
BRANCH  14  17
HETATM   17  C   UNL     1      42.511 -16.241   3.767  1.00  0.00     0.094 A 
HETATM   18  S   UNL     1      42.586 -16.994   2.250  1.00  0.00    -0.075 SA
HETATM   19  C   UNL     1      43.402 -18.336   2.878  1.00  0.00    -0.008 A 
HETATM   20  C   UNL     1      43.641 -18.232   4.236  1.00  0.00    -0.026 A 
HETATM   21  C   UNL     1      43.836 -19.470   1.997  1.00  0.00     0.047 C 
HETATM   22  C   UNL     1      44.374 -19.320   4.978  1.00  0.00     0.041 C 
HETATM   23  C   UNL     1      43.086 -17.007   4.779  1.00  0.00     0.080 A 
HETATM   24  C   UNL     1      45.098 -20.292   4.033  1.00  0.00     0.005 C 
HETATM   25  C   UNL     1      44.219 -20.691   2.842  1.00  0.00     0.005 C 
BRANCH  23  26
HETATM   26  C   UNL     1      43.115 -16.533   6.167  1.00  0.00     0.296 C 
HETATM   27  O   UNL     1      42.100 -16.504   6.863  1.00  0.00    -0.259 OA
BRANCH  26  28
HETATM   28  O   UNL     1      44.345 -16.134   6.585  1.00  0.00    -0.322 OA
HETATM   29  C   UNL     1      44.496 -14.725   6.765  1.00  0.00     0.213 C 
ENDBRANCH  26  28
ENDBRANCH  23  26
ENDBRANCH  14  17
ENDBRANCH  12  13
ENDBRANCH   2  12
BRANCH   1  30
HETATM   30  C   UNL     1      41.778 -11.493   0.502  1.00  0.00     0.006 A 
HETATM   31  C   UNL     1      42.203 -12.381  -0.518  1.00  0.00     0.077 A 
HETATM   32  C   UNL     1      42.893 -11.896  -1.640  1.00  0.00     0.037 A 
HETATM   33  C   UNL     1      43.160 -10.537  -1.780  1.00  0.00     0.003 A 
HETATM   34  C   UNL     1      42.735  -9.651  -0.803  1.00  0.00     0.001 A 
HETATM   35  C   UNL     1      42.049 -10.124   0.317  1.00  0.00     0.012 A 
BRANCH  31  36
HETATM   36  O   UNL     1      41.903 -13.710  -0.335  1.00  0.00    -0.351 OA
BRANCH  36  37
HETATM   37  C   UNL     1      41.351 -14.412  -1.456  1.00  0.00     0.171 C 
HETATM   38  C   UNL     1      41.058 -15.840  -1.032  1.00  0.00     0.034 C 
ENDBRANCH  36  37
ENDBRANCH  31  36
ENDBRANCH   1  30
BRANCH   6  39
HETATM   39  O   UNL     1      39.290  -9.617   1.324  1.00  0.00    -0.389 OA
HETATM   40  H   UNL     1      39.868  -9.984   0.627  1.00  0.00     0.210 HD
ENDBRANCH   6  39
TORSDOF 9
ENDMDL
MODEL 4
REMARK VINA RESULT:      -8.1      4.995      7.746
REMARK  9 active torsions:
REMARK  status: ('A' for Active; 'I' for Inactive)
REMARK    1  A    between atoms: C_2  and  O_3 
REMARK    2  A    between atoms: O_3  and  C_4 
REMARK    3  A    between atoms: C_5  and  C_6 
REMARK    4  A    between atoms: N_7  and  C_9 
REMARK    5  A    between atoms: C_9  and  C_10 
REMARK       I    between atoms: C_10  and  N_11 
REMARK    6  A    between atoms: N_11  and  C_12 
REMARK    7  A    between atoms: C_20  and  C_21 
REMARK    8  A    between atoms: C_21  and  O_22 
REMARK    9  A    between atoms: C_28  and  O_29 
ROOT
HETATM    1  C   UNL     1      42.040 -14.623   3.225  1.00  0.00     0.231 C 
HETATM    2  N   UNL     1      41.803 -14.318   4.714  1.00  0.00    -0.054 N 
HETATM    3  H   UNL     1      41.058 -13.598   4.714  1.00  0.00     0.281 HD
HETATM    4  C   UNL     1      41.276 -15.455   5.553  1.00  0.00     0.239 C 
HETATM    5  C   UNL     1      42.106 -16.714   5.383  1.00  0.00     0.066 C 
HETATM    6  C   UNL     1      42.223 -17.123   3.914  1.00  0.00     0.065 C 
HETATM    7  C   UNL     1      42.821 -15.960   3.093  1.00  0.00     0.055 C 
HETATM    8  C   UNL     1      43.096 -18.387   3.789  1.00  0.00     0.038 C 
HETATM    9  C   UNL     1      43.345 -18.780   2.333  1.00  0.00     0.003 C 
HETATM   10  C   UNL     1      43.944 -17.625   1.542  1.00  0.00     0.001 C 
HETATM   11  C   UNL     1      43.078 -16.371   1.631  1.00  0.00     0.010 C 
ENDROOT
BRANCH   2  12
HETATM   12  C   UNL     1      42.970 -13.584   5.398  1.00  0.00     0.338 C 
BRANCH  12  13
HETATM   13  C   UNL     1      42.410 -12.516   6.346  1.00  0.00     0.248 C 
HETATM   14  N   UNL     1      43.289 -12.124   7.335  1.00  0.00    -0.319 N 
HETATM   15  H   UNL     1      44.224 -12.535   7.374  1.00  0.00     0.169 HD
HETATM   16  O   UNL     1      41.217 -12.240   6.233  1.00  0.00    -0.271 OA
BRANCH  14  17
HETATM   17  C   UNL     1      42.981 -11.351   8.451  1.00  0.00     0.094 A 
HETATM   18  S   UNL     1      41.482 -10.574   8.598  1.00  0.00    -0.075 SA
HETATM   19  C   UNL     1      41.888  -9.923  10.106  1.00  0.00    -0.008 A 
HETATM   20  C   UNL     1      43.153 -10.290  10.527  1.00  0.00    -0.026 A 
HETATM   21  C   UNL     1      40.919  -9.079  10.880  1.00  0.00     0.047 C 
HETATM   22  C   UNL     1      43.692  -9.825  11.855  1.00  0.00     0.041 C 
HETATM   23  C   UNL     1      43.823 -11.110   9.536  1.00  0.00     0.080 A 
HETATM   24  C   UNL     1      42.593  -9.260  12.770  1.00  0.00     0.005 C 
HETATM   25  C   UNL     1      41.639  -8.333  12.010  1.00  0.00     0.005 C 
BRANCH  23  26
HETATM   26  C   UNL     1      45.171 -11.688   9.595  1.00  0.00     0.296 C 
HETATM   27  O   UNL     1      45.431 -12.652  10.313  1.00  0.00    -0.259 OA
BRANCH  26  28
HETATM   28  O   UNL     1      46.074 -11.057   8.799  1.00  0.00    -0.322 OA
HETATM   29  C   UNL     1      46.922 -11.922   8.042  1.00  0.00     0.213 C 
ENDBRANCH  26  28
ENDBRANCH  23  26
ENDBRANCH  14  17
ENDBRANCH  12  13
ENDBRANCH   2  12
BRANCH   1  30
HETATM   30  C   UNL     1      40.821 -14.386   2.328  1.00  0.00     0.006 A 
HETATM   31  C   UNL     1      40.909 -13.506   1.220  1.00  0.00     0.077 A 
HETATM   32  C   UNL     1      39.786 -13.267   0.412  1.00  0.00     0.037 A 
HETATM   33  C   UNL     1      38.573 -13.899   0.672  1.00  0.00     0.003 A 
HETATM   34  C   UNL     1      38.474 -14.777   1.739  1.00  0.00     0.001 A 
HETATM   35  C   UNL     1      39.584 -15.020   2.549  1.00  0.00     0.012 A 
BRANCH  31  36
HETATM   36  O   UNL     1      42.132 -12.918   1.001  1.00  0.00    -0.351 OA
BRANCH  36  37
HETATM   37  C   UNL     1      42.128 -11.580   0.488  1.00  0.00     0.171 C 
HETATM   38  C   UNL     1      42.788 -11.587  -0.879  1.00  0.00     0.034 C 
ENDBRANCH  36  37
ENDBRANCH  31  36
ENDBRANCH   1  30
BRANCH   6  39
HETATM   39  O   UNL     1      40.906 -17.405   3.450  1.00  0.00    -0.389 OA
HETATM   40  H   UNL     1      40.823 -17.168   2.506  1.00  0.00     0.210 HD
ENDBRANCH   6  39
TORSDOF 9
ENDMDL
MODEL 5
REMARK VINA RESULT:      -8.1      2.132      5.064
REMARK  9 active torsions:
REMARK  status: ('A' for Active; 'I' for Inactive)
REMARK    1  A    between atoms: C_2  and  O_3 
REMARK    2  A    between atoms: O_3  and  C_4 
REMARK    3  A    between atoms: C_5  and  C_6 
REMARK    4  A    between atoms: N_7  and  C_9 
REMARK    5  A    between atoms: C_9  and  C_10 
REMARK       I    between atoms: C_10  and  N_11 
REMARK    6  A    between atoms: N_11  and  C_12 
REMARK    7  A    between atoms: C_20  and  C_21 
REMARK    8  A    between atoms: C_21  and  O_22 
REMARK    9  A    between atoms: C_28  and  O_29 
ROOT
HETATM    1  C   UNL     1      40.982 -12.135   1.863  1.00  0.00     0.231 C 
HETATM    2  N   UNL     1      41.661 -11.813   3.205  1.00  0.00    -0.054 N 
HETATM    3  H   UNL     1      42.665 -11.719   2.970  1.00  0.00     0.281 HD
HETATM    4  C   UNL     1      41.267 -10.512   3.857  1.00  0.00     0.239 C 
HETATM    5  C   UNL     1      39.761 -10.366   3.962  1.00  0.00     0.066 C 
HETATM    6  C   UNL     1      39.078 -10.529   2.604  1.00  0.00     0.065 C 
HETATM    7  C   UNL     1      39.452 -11.895   1.991  1.00  0.00     0.055 C 
HETATM    8  C   UNL     1      37.549 -10.402   2.765  1.00  0.00     0.038 C 
HETATM    9  C   UNL     1      36.803 -10.669   1.459  1.00  0.00     0.003 C 
HETATM   10  C   UNL     1      37.177 -12.024   0.874  1.00  0.00     0.001 C 
HETATM   11  C   UNL     1      38.685 -12.158   0.681  1.00  0.00     0.010 C 
ENDROOT
BRANCH   2  12
HETATM   12  C   UNL     1      41.666 -12.985   4.203  1.00  0.00     0.338 C 
BRANCH  12  13
HETATM   13  C   UNL     1      42.403 -14.177   3.580  1.00  0.00     0.248 C 
HETATM   14  N   UNL     1      41.906 -15.407   3.960  1.00  0.00    -0.319 N 
HETATM   15  H   UNL     1      41.106 -15.456   4.593  1.00  0.00     0.169 HD
HETATM   16  O   UNL     1      43.430 -13.931   2.951  1.00  0.00    -0.271 OA
BRANCH  14  17
HETATM   17  C   UNL     1      42.506 -16.643   3.735  1.00  0.00     0.094 A 
HETATM   18  S   UNL     1      43.651 -17.275   4.813  1.00  0.00    -0.075 SA
HETATM   19  C   UNL     1      43.849 -18.679   3.890  1.00  0.00    -0.008 A 
HETATM   20  C   UNL     1      43.046 -18.699   2.763  1.00  0.00    -0.026 A 
HETATM   21  C   UNL     1      44.777 -19.775   4.321  1.00  0.00     0.047 C 
HETATM   22  C   UNL     1      43.064 -19.875   1.821  1.00  0.00     0.041 C 
HETATM   23  C   UNL     1      42.271 -17.479   2.645  1.00  0.00     0.080 A 
HETATM   24  C   UNL     1      43.744 -21.109   2.435  1.00  0.00     0.005 C 
HETATM   25  C   UNL     1      45.042 -20.744   3.163  1.00  0.00     0.005 C 
BRANCH  23  26
HETATM   26  C   UNL     1      41.316 -17.107   1.594  1.00  0.00     0.296 C 
HETATM   27  O   UNL     1      41.666 -16.966   0.423  1.00  0.00    -0.259 OA
BRANCH  26  28
HETATM   28  O   UNL     1      40.045 -16.934   2.043  1.00  0.00    -0.322 OA
HETATM   29  C   UNL     1      39.475 -15.654   1.767  1.00  0.00     0.213 C 
ENDBRANCH  26  28
ENDBRANCH  23  26
ENDBRANCH  14  17
ENDBRANCH  12  13
ENDBRANCH   2  12
BRANCH   1  30
HETATM   30  C   UNL     1      41.718 -11.589   0.634  1.00  0.00     0.006 A 
HETATM   31  C   UNL     1      42.028 -12.445  -0.452  1.00  0.00     0.077 A 
HETATM   32  C   UNL     1      42.724 -11.952  -1.568  1.00  0.00     0.037 A 
HETATM   33  C   UNL     1      43.108 -10.616  -1.635  1.00  0.00     0.003 A 
HETATM   34  C   UNL     1      42.796  -9.760  -0.592  1.00  0.00     0.001 A 
HETATM   35  C   UNL     1      42.105 -10.241   0.523  1.00  0.00     0.012 A 
BRANCH  31  36
HETATM   36  O   UNL     1      41.616 -13.751  -0.339  1.00  0.00    -0.351 OA
BRANCH  36  37
HETATM   37  C   UNL     1      41.273 -14.433  -1.552  1.00  0.00     0.171 C 
HETATM   38  C   UNL     1      39.793 -14.226  -1.819  1.00  0.00     0.034 C 
ENDBRANCH  36  37
ENDBRANCH  31  36
ENDBRANCH   1  30
BRANCH   6  39
HETATM   39  O   UNL     1      39.557  -9.482   1.764  1.00  0.00    -0.389 OA
HETATM   40  H   UNL     1      40.492  -9.288   1.969  1.00  0.00     0.210 HD
ENDBRANCH   6  39
TORSDOF 9
ENDMDL
MODEL 6
REMARK VINA RESULT:      -8.0      4.757      7.448
REMARK  9 active torsions:
REMARK  status: ('A' for Active; 'I' for Inactive)
REMARK    1  A    between atoms: C_2  and  O_3 
REMARK    2  A    between atoms: O_3  and  C_4 
REMARK    3  A    between atoms: C_5  and  C_6 
REMARK    4  A    between atoms: N_7  and  C_9 
REMARK    5  A    between atoms: C_9  and  C_10 
REMARK       I    between atoms: C_10  and  N_11 
REMARK    6  A    between atoms: N_11  and  C_12 
REMARK    7  A    between atoms: C_20  and  C_21 
REMARK    8  A    between atoms: C_21  and  O_22 
REMARK    9  A    between atoms: C_28  and  O_29 
ROOT
HETATM    1  C   UNL     1      41.673 -10.945   7.334  1.00  0.00     0.231 C 
HETATM    2  N   UNL     1      41.311 -12.277   6.657  1.00  0.00    -0.054 N 
HETATM    3  H   UNL     1      41.581 -13.000   7.349  1.00  0.00     0.281 HD
HETATM    4  C   UNL     1      39.848 -12.506   6.373  1.00  0.00     0.239 C 
HETATM    5  C   UNL     1      39.227 -11.336   5.633  1.00  0.00     0.066 C 
HETATM    6  C   UNL     1      39.443 -10.016   6.375  1.00  0.00     0.065 C 
HETATM    7  C   UNL     1      40.953  -9.782   6.597  1.00  0.00     0.055 C 
HETATM    8  C   UNL     1      38.821  -8.855   5.574  1.00  0.00     0.038 C 
HETATM    9  C   UNL     1      39.104  -7.493   6.208  1.00  0.00     0.003 C 
HETATM   10  C   UNL     1      40.598  -7.276   6.409  1.00  0.00     0.001 C 
HETATM   11  C   UNL     1      41.227  -8.403   7.226  1.00  0.00     0.010 C 
ENDROOT
BRANCH   2  12
HETATM   12  C   UNL     1      42.199 -12.631   5.450  1.00  0.00     0.338 C 
BRANCH  12  13
HETATM   13  C   UNL     1      42.061 -14.126   5.142  1.00  0.00     0.248 C 
HETATM   14  N   UNL     1      43.250 -14.744   4.809  1.00  0.00    -0.319 N 
HETATM   15  H   UNL     1      44.116 -14.203   4.799  1.00  0.00     0.169 HD
HETATM   16  O   UNL     1      40.921 -14.579   5.068  1.00  0.00    -0.271 OA
BRANCH  14  17
HETATM   17  C   UNL     1      43.392 -16.021   4.272  1.00  0.00     0.094 A 
HETATM   18  S   UNL     1      43.104 -16.322   2.629  1.00  0.00    -0.075 SA
HETATM   19  C   UNL     1      43.480 -17.964   2.791  1.00  0.00    -0.008 A 
HETATM   20  C   UNL     1      43.841 -18.307   4.082  1.00  0.00    -0.026 A 
HETATM   21  C   UNL     1      43.452 -18.893   1.614  1.00  0.00     0.047 C 
HETATM   22  C   UNL     1      44.230 -19.722   4.426  1.00  0.00     0.041 C 
HETATM   23  C   UNL     1      43.759 -17.167   4.975  1.00  0.00     0.080 A 
HETATM   24  C   UNL     1      44.523 -20.570   3.179  1.00  0.00     0.005 C 
HETATM   25  C   UNL     1      43.476 -20.353   2.081  1.00  0.00     0.005 C 
BRANCH  23  26
HETATM   26  C   UNL     1      44.045 -17.117   6.413  1.00  0.00     0.296 C 
HETATM   27  O   UNL     1      44.854 -16.319   6.885  1.00  0.00    -0.259 OA
BRANCH  26  28
HETATM   28  O   UNL     1      43.345 -18.025   7.144  1.00  0.00    -0.322 OA
HETATM   29  C   UNL     1      44.058 -18.599   8.241  1.00  0.00     0.213 C 
ENDBRANCH  26  28
ENDBRANCH  23  26
ENDBRANCH  14  17
ENDBRANCH  12  13
ENDBRANCH   2  12
BRANCH   1  30
HETATM   30  C   UNL     1      41.642 -10.984   8.865  1.00  0.00     0.006 A 
HETATM   31  C   UNL     1      42.850 -11.039   9.604  1.00  0.00     0.077 A 
HETATM   32  C   UNL     1      42.823 -11.099  11.007  1.00  0.00     0.037 A 
HETATM   33  C   UNL     1      41.615 -11.092  11.697  1.00  0.00     0.003 A 
HETATM   34  C   UNL     1      40.424 -11.019  10.993  1.00  0.00     0.001 A 
HETATM   35  C   UNL     1      40.440 -10.959   9.598  1.00  0.00     0.012 A 
BRANCH  31  36
HETATM   36  O   UNL     1      44.015 -11.032   8.874  1.00  0.00    -0.351 OA
BRANCH  36  37
HETATM   37  C   UNL     1      45.013 -11.997   9.231  1.00  0.00     0.171 C 
HETATM   38  C   UNL     1      45.229 -12.925   8.049  1.00  0.00     0.034 C 
ENDBRANCH  36  37
ENDBRANCH  31  36
ENDBRANCH   1  30
BRANCH   6  39
HETATM   39  O   UNL     1      38.788 -10.130   7.636  1.00  0.00    -0.389 OA
HETATM   40  H   UNL     1      39.425  -9.978   8.361  1.00  0.00     0.210 HD
ENDBRANCH   6  39
TORSDOF 9
ENDMDL
MODEL 7
REMARK VINA RESULT:      -7.9      2.242      4.781
REMARK  9 active torsions:
REMARK  status: ('A' for Active; 'I' for Inactive)
REMARK    1  A    between atoms: C_2  and  O_3 
REMARK    2  A    between atoms: O_3  and  C_4 
REMARK    3  A    between atoms: C_5  and  C_6 
REMARK    4  A    between atoms: N_7  and  C_9 
REMARK    5  A    between atoms: C_9  and  C_10 
REMARK       I    between atoms: C_10  and  N_11 
REMARK    6  A    between atoms: N_11  and  C_12 
REMARK    7  A    between atoms: C_20  and  C_21 
REMARK    8  A    between atoms: C_21  and  O_22 
REMARK    9  A    between atoms: C_28  and  O_29 
ROOT
HETATM    1  C   UNL     1      39.830 -12.638   0.092  1.00  0.00     0.231 C 
HETATM    2  N   UNL     1      39.646 -12.649   1.619  1.00  0.00    -0.054 N 
HETATM    3  H   UNL     1      40.597 -12.483   1.995  1.00  0.00     0.281 HD
HETATM    4  C   UNL     1      38.780 -11.556   2.195  1.00  0.00     0.239 C 
HETATM    5  C   UNL     1      37.441 -11.466   1.488  1.00  0.00     0.066 C 
HETATM    6  C   UNL     1      37.607 -11.297  -0.023  1.00  0.00     0.065 C 
HETATM    7  C   UNL     1      38.446 -12.462  -0.591  1.00  0.00     0.055 C 
HETATM    8  C   UNL     1      36.223 -11.239  -0.700  1.00  0.00     0.038 C 
HETATM    9  C   UNL     1      36.324 -11.185  -2.225  1.00  0.00     0.003 C 
HETATM   10  C   UNL     1      37.146 -12.347  -2.767  1.00  0.00     0.001 C 
HETATM   11  C   UNL     1      38.531 -12.404  -2.127  1.00  0.00     0.010 C 
ENDROOT
BRANCH   2  12
HETATM   12  C   UNL     1      39.300 -14.031   2.200  1.00  0.00     0.338 C 
BRANCH  12  13
HETATM   13  C   UNL     1      40.582 -14.864   2.322  1.00  0.00     0.248 C 
HETATM   14  N   UNL     1      40.369 -16.172   2.708  1.00  0.00    -0.319 N 
HETATM   15  H   UNL     1      39.416 -16.504   2.871  1.00  0.00     0.169 HD
HETATM   16  O   UNL     1      41.650 -14.264   2.222  1.00  0.00    -0.271 OA
BRANCH  14  17
HETATM   17  C   UNL     1      41.344 -17.082   3.109  1.00  0.00     0.094 A 
HETATM   18  S   UNL     1      42.177 -18.033   1.981  1.00  0.00    -0.075 SA
HETATM   19  C   UNL     1      43.099 -18.781   3.187  1.00  0.00    -0.008 A 
HETATM   20  C   UNL     1      42.802 -18.316   4.456  1.00  0.00    -0.026 A 
HETATM   21  C   UNL     1      44.146 -19.800   2.852  1.00  0.00     0.047 C 
HETATM   22  C   UNL     1      43.530 -18.846   5.664  1.00  0.00     0.041 C 
HETATM   23  C   UNL     1      41.737 -17.332   4.422  1.00  0.00     0.080 A 
HETATM   24  C   UNL     1      44.805 -19.618   5.289  1.00  0.00     0.005 C 
HETATM   25  C   UNL     1      44.571 -20.568   4.109  1.00  0.00     0.005 C 
BRANCH  23  26
HETATM   26  C   UNL     1      41.128 -16.614   5.548  1.00  0.00     0.296 C 
HETATM   27  O   UNL     1      40.416 -17.187   6.372  1.00  0.00    -0.259 OA
BRANCH  26  28
HETATM   28  O   UNL     1      41.421 -15.287   5.576  1.00  0.00    -0.322 OA
HETATM   29  C   UNL     1      42.756 -14.970   5.971  1.00  0.00     0.213 C 
ENDBRANCH  26  28
ENDBRANCH  23  26
ENDBRANCH  14  17
ENDBRANCH  12  13
ENDBRANCH   2  12
BRANCH   1  30
HETATM   30  C   UNL     1      41.011 -11.792  -0.397  1.00  0.00     0.006 A 
HETATM   31  C   UNL     1      42.008 -12.367  -1.223  1.00  0.00     0.077 A 
HETATM   32  C   UNL     1      43.104 -11.601  -1.653  1.00  0.00     0.037 A 
HETATM   33  C   UNL     1      43.224 -10.263  -1.287  1.00  0.00     0.003 A 
HETATM   34  C   UNL     1      42.249  -9.679  -0.496  1.00  0.00     0.001 A 
HETATM   35  C   UNL     1      41.156 -10.432  -0.064  1.00  0.00     0.012 A 
BRANCH  31  36
HETATM   36  O   UNL     1      41.835 -13.688  -1.564  1.00  0.00    -0.351 OA
BRANCH  36  37
HETATM   37  C   UNL     1      41.657 -13.983  -2.954  1.00  0.00     0.171 C 
HETATM   38  C   UNL     1      40.862 -15.270  -3.075  1.00  0.00     0.034 C 
ENDBRANCH  36  37
ENDBRANCH  31  36
ENDBRANCH   1  30
BRANCH   6  39
HETATM   39  O   UNL     1      38.294 -10.067  -0.236  1.00  0.00    -0.389 OA
HETATM   40  H   UNL     1      39.094 -10.217  -0.776  1.00  0.00     0.210 HD
ENDBRANCH   6  39
TORSDOF 9
ENDMDL
MODEL 8
REMARK VINA RESULT:      -7.9      1.553      2.460
REMARK  9 active torsions:
REMARK  status: ('A' for Active; 'I' for Inactive)
REMARK    1  A    between atoms: C_2  and  O_3 
REMARK    2  A    between atoms: O_3  and  C_4 
REMARK    3  A    between atoms: C_5  and  C_6 
REMARK    4  A    between atoms: N_7  and  C_9 
REMARK    5  A    between atoms: C_9  and  C_10 
REMARK       I    between atoms: C_10  and  N_11 
REMARK    6  A    between atoms: N_11  and  C_12 
REMARK    7  A    between atoms: C_20  and  C_21 
REMARK    8  A    between atoms: C_21  and  O_22 
REMARK    9  A    between atoms: C_28  and  O_29 
ROOT
HETATM    1  C   UNL     1      40.790 -13.717  -0.561  1.00  0.00     0.231 C 
HETATM    2  N   UNL     1      40.507 -15.060  -1.255  1.00  0.00    -0.054 N 
HETATM    3  H   UNL     1      39.717 -15.465  -0.722  1.00  0.00     0.281 HD
HETATM    4  C   UNL     1      40.041 -14.986  -2.688  1.00  0.00     0.239 C 
HETATM    5  C   UNL     1      40.955 -14.119  -3.534  1.00  0.00     0.066 C 
HETATM    6  C   UNL     1      41.124 -12.721  -2.938  1.00  0.00     0.065 C 
HETATM    7  C   UNL     1      41.659 -12.829  -1.494  1.00  0.00     0.055 C 
HETATM    8  C   UNL     1      42.081 -11.888  -3.815  1.00  0.00     0.038 C 
HETATM    9  C   UNL     1      42.380 -10.517  -3.208  1.00  0.00     0.003 C 
HETATM   10  C   UNL     1      42.916 -10.645  -1.788  1.00  0.00     0.001 C 
HETATM   11  C   UNL     1      41.967 -11.443  -0.897  1.00  0.00     0.010 C 
ENDROOT
BRANCH   2  12
HETATM   12  C   UNL     1      41.611 -16.114  -1.057  1.00  0.00     0.338 C 
BRANCH  12  13
HETATM   13  C   UNL     1      41.680 -16.502   0.425  1.00  0.00     0.248 C 
HETATM   14  N   UNL     1      42.954 -16.789   0.872  1.00  0.00    -0.319 N 
HETATM   15  H   UNL     1      43.745 -16.719   0.229  1.00  0.00     0.169 HD
HETATM   16  O   UNL     1      40.612 -16.668   1.009  1.00  0.00    -0.271 OA
BRANCH  14  17
HETATM   17  C   UNL     1      43.287 -17.376   2.090  1.00  0.00     0.094 A 
HETATM   18  S   UNL     1      43.780 -18.995   2.181  1.00  0.00    -0.075 SA
HETATM   19  C   UNL     1      43.985 -18.912   3.859  1.00  0.00    -0.008 A 
HETATM   20  C   UNL     1      43.696 -17.661   4.374  1.00  0.00    -0.026 A 
HETATM   21  C   UNL     1      44.473 -20.091   4.646  1.00  0.00     0.047 C 
HETATM   22  C   UNL     1      43.834 -17.381   5.848  1.00  0.00     0.041 C 
HETATM   23  C   UNL     1      43.248 -16.753   3.336  1.00  0.00     0.080 A 
HETATM   24  C   UNL     1      44.643 -18.465   6.578  1.00  0.00     0.005 C 
HETATM   25  C   UNL     1      44.230 -19.875   6.145  1.00  0.00     0.005 C 
BRANCH  23  26
HETATM   26  C   UNL     1      42.838 -15.350   3.471  1.00  0.00     0.296 C 
HETATM   27  O   UNL     1      43.606 -14.423   3.216  1.00  0.00    -0.259 OA
BRANCH  26  28
HETATM   28  O   UNL     1      41.559 -15.192   3.901  1.00  0.00    -0.322 OA
HETATM   29  C   UNL     1      41.418 -14.919   5.297  1.00  0.00     0.213 C 
ENDBRANCH  26  28
ENDBRANCH  23  26
ENDBRANCH  14  17
ENDBRANCH  12  13
ENDBRANCH   2  12
BRANCH   1  30
HETATM   30  C   UNL     1      39.573 -13.095   0.133  1.00  0.00     0.006 A 
HETATM   31  C   UNL     1      39.675 -12.617   1.463  1.00  0.00     0.077 A 
HETATM   32  C   UNL     1      38.556 -12.068   2.109  1.00  0.00     0.037 A 
HETATM   33  C   UNL     1      37.332 -11.971   1.453  1.00  0.00     0.003 A 
HETATM   34  C   UNL     1      37.218 -12.415   0.146  1.00  0.00     0.001 A 
HETATM   35  C   UNL     1      38.325 -12.962  -0.505  1.00  0.00     0.012 A 
BRANCH  31  36
HETATM   36  O   UNL     1      40.909 -12.727   2.060  1.00  0.00    -0.351 OA
BRANCH  36  37
HETATM   37  C   UNL     1      41.466 -11.534   2.627  1.00  0.00     0.171 C 
HETATM   38  C   UNL     1      41.428 -11.658   4.139  1.00  0.00     0.034 C 
ENDBRANCH  36  37
ENDBRANCH  31  36
ENDBRANCH   1  30
BRANCH   6  39
HETATM   39  O   UNL     1      39.837 -12.111  -2.924  1.00  0.00    -0.389 OA
HETATM   40  H   UNL     1      39.666 -11.703  -2.053  1.00  0.00     0.210 HD
ENDBRANCH   6  39
TORSDOF 9
ENDMDL
MODEL 9
REMARK VINA RESULT:      -7.8      4.960      8.546
REMARK  9 active torsions:
REMARK  status: ('A' for Active; 'I' for Inactive)
REMARK    1  A    between atoms: C_2  and  O_3 
REMARK    2  A    between atoms: O_3  and  C_4 
REMARK    3  A    between atoms: C_5  and  C_6 
REMARK    4  A    between atoms: N_7  and  C_9 
REMARK    5  A    between atoms: C_9  and  C_10 
REMARK       I    between atoms: C_10  and  N_11 
REMARK    6  A    between atoms: N_11  and  C_12 
REMARK    7  A    between atoms: C_20  and  C_21 
REMARK    8  A    between atoms: C_21  and  O_22 
REMARK    9  A    between atoms: C_28  and  O_29 
ROOT
HETATM    1  C   UNL     1      42.049 -10.524   8.127  1.00  0.00     0.231 C 
HETATM    2  N   UNL     1      41.534 -11.650   7.214  1.00  0.00    -0.054 N 
HETATM    3  H   UNL     1      42.219 -12.417   7.339  1.00  0.00     0.281 HD
HETATM    4  C   UNL     1      40.191 -12.236   7.569  1.00  0.00     0.239 C 
HETATM    5  C   UNL     1      39.136 -11.160   7.751  1.00  0.00     0.066 C 
HETATM    6  C   UNL     1      39.567 -10.111   8.776  1.00  0.00     0.065 C 
HETATM    7  C   UNL     1      40.914  -9.487   8.353  1.00  0.00     0.055 C 
HETATM    8  C   UNL     1      38.478  -9.026   8.906  1.00  0.00     0.038 C 
HETATM    9  C   UNL     1      38.901  -7.887   9.833  1.00  0.00     0.003 C 
HETATM   10  C   UNL     1      40.226  -7.278   9.394  1.00  0.00     0.001 C 
HETATM   11  C   UNL     1      41.324  -8.334   9.287  1.00  0.00     0.010 C 
ENDROOT
BRANCH   2  12
HETATM   12  C   UNL     1      41.655 -11.344   5.710  1.00  0.00     0.338 C 
BRANCH  12  13
HETATM   13  C   UNL     1      41.526 -12.650   4.917  1.00  0.00     0.248 C 
HETATM   14  N   UNL     1      42.488 -13.592   5.223  1.00  0.00    -0.319 N 
HETATM   15  H   UNL     1      43.191 -13.385   5.935  1.00  0.00     0.169 HD
HETATM   16  O   UNL     1      40.705 -12.670   4.003  1.00  0.00    -0.271 OA
BRANCH  14  17
HETATM   17  C   UNL     1      42.750 -14.762   4.514  1.00  0.00     0.094 A 
HETATM   18  S   UNL     1      43.604 -14.732   3.051  1.00  0.00    -0.075 SA
HETATM   19  C   UNL     1      43.504 -16.412   2.877  1.00  0.00    -0.008 A 
HETATM   20  C   UNL     1      42.838 -17.022   3.924  1.00  0.00    -0.026 A 
HETATM   21  C   UNL     1      44.131 -17.116   1.711  1.00  0.00     0.047 C 
HETATM   22  C   UNL     1      42.660 -18.517   3.962  1.00  0.00     0.041 C 
HETATM   23  C   UNL     1      42.357 -16.047   4.884  1.00  0.00     0.080 A 
HETATM   24  C   UNL     1      43.579 -19.244   2.966  1.00  0.00     0.005 C 
HETATM   25  C   UNL     1      43.601 -18.550   1.600  1.00  0.00     0.005 C 
BRANCH  23  26
HETATM   26  C   UNL     1      41.599 -16.283   6.119  1.00  0.00     0.296 C 
HETATM   27  O   UNL     1      40.572 -15.658   6.378  1.00  0.00    -0.259 OA
BRANCH  26  28
HETATM   28  O   UNL     1      42.143 -17.235   6.922  1.00  0.00    -0.322 OA
HETATM   29  C   UNL     1      43.206 -16.782   7.763  1.00  0.00     0.213 C 
ENDBRANCH  26  28
ENDBRANCH  23  26
ENDBRANCH  14  17
ENDBRANCH  12  13
ENDBRANCH   2  12
BRANCH   1  30
HETATM   30  C   UNL     1      42.862 -11.008   9.332  1.00  0.00     0.006 A 
HETATM   31  C   UNL     1      43.896 -11.961   9.161  1.00  0.00     0.077 A 
HETATM   32  C   UNL     1      44.626 -12.425  10.267  1.00  0.00     0.037 A 
HETATM   33  C   UNL     1      44.359 -11.948  11.547  1.00  0.00     0.003 A 
HETATM   34  C   UNL     1      43.365 -11.001  11.731  1.00  0.00     0.001 A 
HETATM   35  C   UNL     1      42.633 -10.534  10.638  1.00  0.00     0.012 A 
BRANCH  31  36
HETATM   36  O   UNL     1      44.126 -12.390   7.875  1.00  0.00    -0.351 OA
BRANCH  36  37
HETATM   37  C   UNL     1      45.157 -13.368   7.690  1.00  0.00     0.171 C 
HETATM   38  C   UNL     1      46.475 -12.644   7.480  1.00  0.00     0.034 C 
ENDBRANCH  36  37
ENDBRANCH  31  36
ENDBRANCH   1  30
BRANCH   6  39
HETATM   39  O   UNL     1      39.723 -10.781  10.024  1.00  0.00    -0.389 OA
HETATM   40  H   UNL     1      39.275 -10.280  10.734  1.00  0.00     0.210 HD
ENDBRANCH   6  39
TORSDOF 9
ENDMDL
MODEL 10
REMARK VINA RESULT:      -7.7      4.750      8.323
REMARK  9 active torsions:
REMARK  status: ('A' for Active; 'I' for Inactive)
REMARK    1  A    between atoms: C_2  and  O_3 
REMARK    2  A    between atoms: O_3  and  C_4 
REMARK    3  A    between atoms: C_5  and  C_6 
REMARK    4  A    between atoms: N_7  and  C_9 
REMARK    5  A    between atoms: C_9  and  C_10 
REMARK       I    between atoms: C_10  and  N_11 
REMARK    6  A    between atoms: N_11  and  C_12 
REMARK    7  A    between atoms: C_20  and  C_21 
REMARK    8  A    between atoms: C_21  and  O_22 
REMARK    9  A    between atoms: C_28  and  O_29 
ROOT
HETATM    1  C   UNL     1      42.872 -15.483   4.024  1.00  0.00     0.231 C 
HETATM    2  N   UNL     1      42.876 -14.927   5.458  1.00  0.00    -0.054 N 
HETATM    3  H   UNL     1      42.150 -14.187   5.449  1.00  0.00     0.281 HD
HETATM    4  C   UNL     1      42.471 -15.888   6.547  1.00  0.00     0.239 C 
HETATM    5  C   UNL     1      43.246 -17.190   6.468  1.00  0.00     0.066 C 
HETATM    6  C   UNL     1      43.125 -17.840   5.089  1.00  0.00     0.065 C 
HETATM    7  C   UNL     1      43.604 -16.854   4.003  1.00  0.00     0.055 C 
HETATM    8  C   UNL     1      43.950 -19.142   5.049  1.00  0.00     0.038 C 
HETATM    9  C   UNL     1      43.962 -19.779   3.659  1.00  0.00     0.003 C 
HETATM   10  C   UNL     1      44.446 -18.795   2.602  1.00  0.00     0.001 C 
HETATM   11  C   UNL     1      43.622 -17.510   2.609  1.00  0.00     0.010 C 
ENDROOT
BRANCH   2  12
HETATM   12  C   UNL     1      44.146 -14.137   5.822  1.00  0.00     0.338 C 
BRANCH  12  13
HETATM   13  C   UNL     1      44.046 -13.662   7.277  1.00  0.00     0.248 C 
HETATM   14  N   UNL     1      43.312 -12.504   7.442  1.00  0.00    -0.319 N 
HETATM   15  H   UNL     1      42.885 -12.056   6.629  1.00  0.00     0.169 HD
HETATM   16  O   UNL     1      44.738 -14.249   8.105  1.00  0.00    -0.271 OA
BRANCH  14  17
HETATM   17  C   UNL     1      43.241 -11.732   8.598  1.00  0.00     0.094 A 
HETATM   18  S   UNL     1      44.188 -12.092   9.957  1.00  0.00    -0.075 SA
HETATM   19  C   UNL     1      43.561 -10.784  10.827  1.00  0.00    -0.008 A 
HETATM   20  C   UNL     1      42.640 -10.049  10.104  1.00  0.00    -0.026 A 
HETATM   21  C   UNL     1      44.028 -10.476  12.219  1.00  0.00     0.047 C 
HETATM   22  C   UNL     1      41.981  -8.832  10.700  1.00  0.00     0.041 C 
HETATM   23  C   UNL     1      42.419 -10.624   8.791  1.00  0.00     0.080 A 
HETATM   24  C   UNL     1      42.699  -8.336  11.965  1.00  0.00     0.005 C 
HETATM   25  C   UNL     1      43.071  -9.491  12.901  1.00  0.00     0.005 C 
BRANCH  23  26
HETATM   26  C   UNL     1      41.516 -10.154   7.733  1.00  0.00     0.296 C 
HETATM   27  O   UNL     1      41.828  -9.235   6.976  1.00  0.00    -0.259 OA
BRANCH  26  28
HETATM   28  O   UNL     1      40.332 -10.819   7.687  1.00  0.00    -0.322 OA
HETATM   29  C   UNL     1      39.174 -10.010   7.907  1.00  0.00     0.213 C 
ENDBRANCH  26  28
ENDBRANCH  23  26
ENDBRANCH  14  17
ENDBRANCH  12  13
ENDBRANCH   2  12
BRANCH   1  30
HETATM   30  C   UNL     1      41.531 -15.348   3.295  1.00  0.00     0.006 A 
HETATM   31  C   UNL     1      40.734 -14.189   3.474  1.00  0.00     0.077 A 
HETATM   32  C   UNL     1      39.493 -14.074   2.827  1.00  0.00     0.037 A 
HETATM   33  C   UNL     1      39.029 -15.084   1.990  1.00  0.00     0.003 A 
HETATM   34  C   UNL     1      39.803 -16.215   1.788  1.00  0.00     0.001 A 
HETATM   35  C   UNL     1      41.038 -16.340   2.427  1.00  0.00     0.012 A 
BRANCH  31  36
HETATM   36  O   UNL     1      41.244 -13.217   4.302  1.00  0.00    -0.351 OA
BRANCH  36  37
HETATM   37  C   UNL     1      41.584 -11.962   3.699  1.00  0.00     0.171 C 
HETATM   38  C   UNL     1      40.562 -10.927   4.133  1.00  0.00     0.034 C 
ENDBRANCH  36  37
ENDBRANCH  31  36
ENDBRANCH   1  30
BRANCH   6  39
HETATM   39  O   UNL     1      41.748 -18.142   4.886  1.00  0.00    -0.389 OA
HETATM   40  H   UNL     1      41.572 -19.077   5.107  1.00  0.00     0.210 HD
ENDBRANCH   6  39
TORSDOF 9
ENDMDL
