MODEL 1
REMARK VINA RESULT:      -7.4      0.000      0.000
REMARK  6 active torsions:
REMARK  status: ('A' for Active; 'I' for Inactive)
REMARK    1  A    between atoms: C_6  and  C_7 
REMARK       I    between atoms: C_7  and  N_8 
REMARK    2  A    between atoms: N_8  and  C_9 
REMARK    3  A    between atoms: C_9  and  C_10 
REMARK    4  A    between atoms: C_10  and  O_11 
REMARK    5  A    between atoms: C_10  and  C_12 
REMARK    6  A    between atoms: C_15  and  O_16 
ROOT
HETATM    1  C   UNL     1      43.643 -17.858   2.579  1.00  0.00     0.258 C 
HETATM    2  N   UNL     1      42.317 -17.487   2.573  1.00  0.00    -0.350 N 
HETATM    3  O   UNL     1      44.456 -17.431   1.767  1.00  0.00    -0.267 OA
HETATM    4  H   UNL     1      41.714 -17.905   3.281  1.00  0.00     0.163 HD
ENDROOT
BRANCH   2   5
HETATM    5  C   UNL     1      41.716 -16.574   1.590  1.00  0.00     0.114 C 
HETATM    6  C   UNL     1      40.837 -17.332   0.593  1.00  0.00     0.035 C 
BRANCH   5   7
HETATM    7  C   UNL     1      40.985 -15.395   2.292  1.00  0.00     0.173 C 
BRANCH   7   8
HETATM    8  O   UNL     1      39.714 -15.867   2.772  1.00  0.00    -0.389 OA
HETATM    9  H   UNL     1      39.567 -15.400   3.613  1.00  0.00     0.210 HD
ENDBRANCH   7   8
BRANCH   7  10
HETATM   10  C   UNL     1      41.741 -14.811   3.467  1.00  0.00    -0.028 A 
HETATM   11  C   UNL     1      41.161 -14.819   4.742  1.00  0.00     0.012 A 
HETATM   12  C   UNL     1      41.844 -14.280   5.836  1.00  0.00     0.037 A 
HETATM   13  C   UNL     1      43.117 -13.731   5.680  1.00  0.00     0.068 A 
HETATM   14  C   UNL     1      43.698 -13.707   4.412  1.00  0.00     0.037 A 
HETATM   15  C   UNL     1      43.014 -14.242   3.314  1.00  0.00     0.012 A 
BRANCH  13  16
HETATM   16  O   UNL     1      43.678 -13.251   6.831  1.00  0.00    -0.356 OA
HETATM   17  C   UNL     1      44.809 -13.954   7.330  1.00  0.00     0.210 C 
ENDBRANCH  13  16
ENDBRANCH   7  10
ENDBRANCH   5   7
ENDBRANCH   2   5
BRANCH   1  18
HETATM   18  C   UNL     1      44.007 -18.817   3.608  1.00  0.00     0.105 A 
HETATM   19  C   UNL     1      44.239 -18.570   4.988  1.00  0.00     0.071 A 
HETATM   20  C   UNL     1      44.147 -17.273   5.708  1.00  0.00     0.073 C 
HETATM   21  N   UNL     1      44.573 -19.679   5.656  1.00  0.00    -0.170 NA
HETATM   22  N   UNL     1      44.574 -20.658   4.724  1.00  0.00    -0.225 N 
HETATM   23  C   UNL     1      44.226 -20.176   3.459  1.00  0.00     0.168 A 
HETATM   24  C   UNL     1      44.876 -22.002   4.911  1.00  0.00     0.122 A 
HETATM   25  N   UNL     1      44.164 -21.000   2.359  1.00  0.00    -0.240 NA
HETATM   26  C   UNL     1      44.455 -22.251   2.574  1.00  0.00     0.120 A 
HETATM   27  C   UNL     1      44.839 -22.855   3.879  1.00  0.00     0.038 A 
ENDBRANCH   1  18
TORSDOF 6
ENDMDL
MODEL 2
REMARK VINA RESULT:      -7.4      4.071      8.106
REMARK  6 active torsions:
REMARK  status: ('A' for Active; 'I' for Inactive)
REMARK    1  A    between atoms: C_6  and  C_7 
REMARK       I    between atoms: C_7  and  N_8 
REMARK    2  A    between atoms: N_8  and  C_9 
REMARK    3  A    between atoms: C_9  and  C_10 
REMARK    4  A    between atoms: C_10  and  O_11 
REMARK    5  A    between atoms: C_10  and  C_12 
REMARK    6  A    between atoms: C_15  and  O_16 
ROOT
HETATM    1  C   UNL     1      41.227 -15.179  -0.319  1.00  0.00     0.258 C 
HETATM    2  N   UNL     1      42.213 -16.128  -0.158  1.00  0.00    -0.350 N 
HETATM    3  O   UNL     1      40.371 -14.961   0.530  1.00  0.00    -0.267 OA
HETATM    4  H   UNL     1      42.873 -16.246  -0.926  1.00  0.00     0.163 HD
ENDROOT
BRANCH   2   5
HETATM    5  C   UNL     1      42.339 -17.000   1.018  1.00  0.00     0.114 C 
HETATM    6  C   UNL     1      41.147 -17.952   1.133  1.00  0.00     0.035 C 
BRANCH   5   7
HETATM    7  C   UNL     1      43.716 -17.723   1.036  1.00  0.00     0.173 C 
BRANCH   7   8
HETATM    8  O   UNL     1      44.753 -16.727   1.066  1.00  0.00    -0.389 OA
HETATM    9  H   UNL     1      44.421 -15.993   0.520  1.00  0.00     0.210 HD
ENDBRANCH   7   8
BRANCH   7  10
HETATM   10  C   UNL     1      43.915 -18.642   2.222  1.00  0.00    -0.028 A 
HETATM   11  C   UNL     1      43.867 -18.123   3.523  1.00  0.00     0.012 A 
HETATM   12  C   UNL     1      44.054 -18.957   4.627  1.00  0.00     0.037 A 
HETATM   13  C   UNL     1      44.284 -20.323   4.457  1.00  0.00     0.068 A 
HETATM   14  C   UNL     1      44.346 -20.847   3.166  1.00  0.00     0.037 A 
HETATM   15  C   UNL     1      44.164 -20.012   2.058  1.00  0.00     0.012 A 
BRANCH  13  16
HETATM   16  O   UNL     1      44.436 -21.027   5.620  1.00  0.00    -0.356 OA
HETATM   17  C   UNL     1      44.942 -22.351   5.502  1.00  0.00     0.210 C 
ENDBRANCH  13  16
ENDBRANCH   7  10
ENDBRANCH   5   7
ENDBRANCH   2   5
BRANCH   1  18
HETATM   18  C   UNL     1      41.258 -14.471  -1.587  1.00  0.00     0.105 A 
HETATM   19  C   UNL     1      40.777 -14.918  -2.848  1.00  0.00     0.071 A 
HETATM   20  C   UNL     1      40.114 -16.211  -3.162  1.00  0.00     0.073 C 
HETATM   21  N   UNL     1      40.977 -14.020  -3.818  1.00  0.00    -0.170 NA
HETATM   22  N   UNL     1      41.596 -12.984  -3.210  1.00  0.00    -0.225 N 
HETATM   23  C   UNL     1      41.781 -13.215  -1.844  1.00  0.00     0.168 A 
HETATM   24  C   UNL     1      42.035 -11.801  -3.794  1.00  0.00     0.122 A 
HETATM   25  N   UNL     1      42.393 -12.292  -1.027  1.00  0.00    -0.240 NA
HETATM   26  C   UNL     1      42.790 -11.199  -1.611  1.00  0.00     0.120 A 
HETATM   27  C   UNL     1      42.642 -10.865  -3.054  1.00  0.00     0.038 A 
ENDBRANCH   1  18
TORSDOF 6
ENDMDL
MODEL 3
REMARK VINA RESULT:      -7.1      1.904      4.218
REMARK  6 active torsions:
REMARK  status: ('A' for Active; 'I' for Inactive)
REMARK    1  A    between atoms: C_6  and  C_7 
REMARK       I    between atoms: C_7  and  N_8 
REMARK    2  A    between atoms: N_8  and  C_9 
REMARK    3  A    between atoms: C_9  and  C_10 
REMARK    4  A    between atoms: C_10  and  O_11 
REMARK    5  A    between atoms: C_10  and  C_12 
REMARK    6  A    between atoms: C_15  and  O_16 
ROOT
HETATM    1  C   UNL     1      42.723 -17.092   4.513  1.00  0.00     0.258 C 
HETATM    2  N   UNL     1      43.521 -16.004   4.785  1.00  0.00    -0.350 N 
HETATM    3  O   UNL     1      41.512 -17.093   4.704  1.00  0.00    -0.267 OA
HETATM    4  H   UNL     1      44.519 -16.104   4.606  1.00  0.00     0.163 HD
ENDROOT
BRANCH   2   5
HETATM    5  C   UNL     1      43.032 -14.740   5.355  1.00  0.00     0.114 C 
HETATM    6  C   UNL     1      43.839 -14.342   6.593  1.00  0.00     0.035 C 
BRANCH   5   7
HETATM    7  C   UNL     1      42.963 -13.625   4.274  1.00  0.00     0.173 C 
BRANCH   7   8
HETATM    8  O   UNL     1      44.240 -13.549   3.616  1.00  0.00    -0.389 OA
HETATM    9  H   UNL     1      44.545 -14.470   3.539  1.00  0.00     0.210 HD
ENDBRANCH   7   8
BRANCH   7  10
HETATM   10  C   UNL     1      41.905 -13.856   3.216  1.00  0.00    -0.028 A 
HETATM   11  C   UNL     1      40.550 -13.860   3.573  1.00  0.00     0.012 A 
HETATM   12  C   UNL     1      39.563 -14.076   2.609  1.00  0.00     0.037 A 
HETATM   13  C   UNL     1      39.906 -14.285   1.272  1.00  0.00     0.068 A 
HETATM   14  C   UNL     1      41.252 -14.295   0.909  1.00  0.00     0.037 A 
HETATM   15  C   UNL     1      42.244 -14.083   1.874  1.00  0.00     0.012 A 
BRANCH  13  16
HETATM   16  O   UNL     1      38.843 -14.470   0.431  1.00  0.00    -0.356 OA
HETATM   17  C   UNL     1      37.583 -13.992   0.882  1.00  0.00     0.210 C 
ENDBRANCH  13  16
ENDBRANCH   7  10
ENDBRANCH   5   7
ENDBRANCH   2   5
BRANCH   1  18
HETATM   18  C   UNL     1      43.426 -18.258   4.007  1.00  0.00     0.105 A 
HETATM   19  C   UNL     1      43.885 -18.492   2.682  1.00  0.00     0.071 A 
HETATM   20  C   UNL     1      43.768 -17.591   1.506  1.00  0.00     0.073 C 
HETATM   21  N   UNL     1      44.484 -19.681   2.552  1.00  0.00    -0.170 NA
HETATM   22  N   UNL     1      44.416 -20.239   3.780  1.00  0.00    -0.225 N 
HETATM   23  C   UNL     1      43.783 -19.401   4.702  1.00  0.00     0.168 A 
HETATM   24  C   UNL     1      44.885 -21.490   4.167  1.00  0.00     0.122 A 
HETATM   25  N   UNL     1      43.604 -19.768   6.016  1.00  0.00    -0.240 NA
HETATM   26  C   UNL     1      44.055 -20.946   6.338  1.00  0.00     0.120 A 
HETATM   27  C   UNL     1      44.736 -21.909   5.430  1.00  0.00     0.038 A 
ENDBRANCH   1  18
TORSDOF 6
ENDMDL
MODEL 4
REMARK VINA RESULT:      -7.1      1.003      2.686
REMARK  6 active torsions:
REMARK  status: ('A' for Active; 'I' for Inactive)
REMARK    1  A    between atoms: C_6  and  C_7 
REMARK       I    between atoms: C_7  and  N_8 
REMARK    2  A    between atoms: N_8  and  C_9 
REMARK    3  A    between atoms: C_9  and  C_10 
REMARK    4  A    between atoms: C_10  and  O_11 
REMARK    5  A    between atoms: C_10  and  C_12 
REMARK    6  A    between atoms: C_15  and  O_16 
ROOT
HETATM    1  C   UNL     1      43.570 -17.900   2.658  1.00  0.00     0.258 C 
HETATM    2  N   UNL     1      42.288 -17.395   2.652  1.00  0.00    -0.350 N 
HETATM    3  O   UNL     1      44.375 -17.678   1.761  1.00  0.00    -0.267 OA
HETATM    4  H   UNL     1      41.687 -17.646   3.436  1.00  0.00     0.163 HD
ENDROOT
BRANCH   2   5
HETATM    5  C   UNL     1      41.729 -16.566   1.575  1.00  0.00     0.114 C 
HETATM    6  C   UNL     1      40.854 -17.397   0.633  1.00  0.00     0.035 C 
BRANCH   5   7
HETATM    7  C   UNL     1      41.010 -15.312   2.147  1.00  0.00     0.173 C 
BRANCH   7   8
HETATM    8  O   UNL     1      39.653 -15.670   2.463  1.00  0.00    -0.389 OA
HETATM    9  H   UNL     1      39.306 -16.098   1.661  1.00  0.00     0.210 HD
ENDBRANCH   7   8
BRANCH   7  10
HETATM   10  C   UNL     1      41.649 -14.750   3.398  1.00  0.00    -0.028 A 
HETATM   11  C   UNL     1      42.967 -14.275   3.355  1.00  0.00     0.012 A 
HETATM   12  C   UNL     1      43.573 -13.758   4.503  1.00  0.00     0.037 A 
HETATM   13  C   UNL     1      42.876 -13.697   5.711  1.00  0.00     0.068 A 
HETATM   14  C   UNL     1      41.569 -14.179   5.766  1.00  0.00     0.037 A 
HETATM   15  C   UNL     1      40.961 -14.702   4.619  1.00  0.00     0.012 A 
BRANCH  13  16
HETATM   16  O   UNL     1      43.580 -13.157   6.751  1.00  0.00    -0.356 OA
HETATM   17  C   UNL     1      44.730 -13.873   7.183  1.00  0.00     0.210 C 
ENDBRANCH  13  16
ENDBRANCH   7  10
ENDBRANCH   5   7
ENDBRANCH   2   5
BRANCH   1  18
HETATM   18  C   UNL     1      43.892 -18.743   3.796  1.00  0.00     0.105 A 
HETATM   19  C   UNL     1      44.372 -20.081   3.781  1.00  0.00     0.071 A 
HETATM   20  C   UNL     1      44.671 -20.927   2.596  1.00  0.00     0.073 C 
HETATM   21  N   UNL     1      44.553 -20.572   5.012  1.00  0.00    -0.170 NA
HETATM   22  N   UNL     1      44.187 -19.571   5.841  1.00  0.00    -0.225 N 
HETATM   23  C   UNL     1      43.783 -18.431   5.140  1.00  0.00     0.168 A 
HETATM   24  C   UNL     1      44.176 -19.587   7.232  1.00  0.00     0.122 A 
HETATM   25  N   UNL     1      43.368 -17.289   5.785  1.00  0.00    -0.240 NA
HETATM   26  C   UNL     1      43.370 -17.344   7.086  1.00  0.00     0.120 A 
HETATM   27  C   UNL     1      43.777 -18.508   7.919  1.00  0.00     0.038 A 
ENDBRANCH   1  18
TORSDOF 6
ENDMDL
MODEL 5
REMARK VINA RESULT:      -7.1      1.495      3.154
REMARK  6 active torsions:
REMARK  status: ('A' for Active; 'I' for Inactive)
REMARK    1  A    between atoms: C_6  and  C_7 
REMARK       I    between atoms: C_7  and  N_8 
REMARK    2  A    between atoms: N_8  and  C_9 
REMARK    3  A    between atoms: C_9  and  C_10 
REMARK    4  A    between atoms: C_10  and  O_11 
REMARK    5  A    between atoms: C_10  and  C_12 
REMARK    6  A    between atoms: C_15  and  O_16 
ROOT
HETATM    1  C   UNL     1      43.433 -17.577   2.942  1.00  0.00     0.258 C 
HETATM    2  N   UNL     1      42.134 -17.125   2.871  1.00  0.00    -0.350 N 
HETATM    3  O   UNL     1      44.233 -17.450   2.021  1.00  0.00    -0.267 OA
HETATM    4  H   UNL     1      41.541 -17.289   3.683  1.00  0.00     0.163 HD
ENDROOT
BRANCH   2   5
HETATM    5  C   UNL     1      41.548 -16.472   1.692  1.00  0.00     0.114 C 
HETATM    6  C   UNL     1      40.957 -17.500   0.725  1.00  0.00     0.035 C 
BRANCH   5   7
HETATM    7  C   UNL     1      40.543 -15.361   2.107  1.00  0.00     0.173 C 
BRANCH   7   8
HETATM    8  O   UNL     1      39.278 -15.978   2.403  1.00  0.00    -0.389 OA
HETATM    9  H   UNL     1      39.081 -16.541   1.634  1.00  0.00     0.210 HD
ENDBRANCH   7   8
BRANCH   7  10
HETATM   10  C   UNL     1      40.970 -14.564   3.321  1.00  0.00    -0.028 A 
HETATM   11  C   UNL     1      42.124 -13.770   3.265  1.00  0.00     0.012 A 
HETATM   12  C   UNL     1      42.533 -13.033   4.378  1.00  0.00     0.037 A 
HETATM   13  C   UNL     1      41.799 -13.067   5.565  1.00  0.00     0.068 A 
HETATM   14  C   UNL     1      40.656 -13.863   5.635  1.00  0.00     0.037 A 
HETATM   15  C   UNL     1      40.246 -14.607   4.522  1.00  0.00     0.012 A 
BRANCH  13  16
HETATM   16  O   UNL     1      42.301 -12.290   6.571  1.00  0.00    -0.356 OA
HETATM   17  C   UNL     1      41.516 -11.172   6.967  1.00  0.00     0.210 C 
ENDBRANCH  13  16
ENDBRANCH   7  10
ENDBRANCH   5   7
ENDBRANCH   2   5
BRANCH   1  18
HETATM   18  C   UNL     1      43.784 -18.245   4.183  1.00  0.00     0.105 A 
HETATM   19  C   UNL     1      44.377 -19.527   4.346  1.00  0.00     0.071 A 
HETATM   20  C   UNL     1      44.794 -20.478   3.284  1.00  0.00     0.073 C 
HETATM   21  N   UNL     1      44.553 -19.848   5.633  1.00  0.00    -0.170 NA
HETATM   22  N   UNL     1      44.070 -18.791   6.323  1.00  0.00    -0.225 N 
HETATM   23  C   UNL     1      43.596 -17.785   5.476  1.00  0.00     0.168 A 
HETATM   24  C   UNL     1      44.007 -18.641   7.704  1.00  0.00     0.122 A 
HETATM   25  N   UNL     1      43.059 -16.617   5.964  1.00  0.00    -0.240 NA
HETATM   26  C   UNL     1      43.016 -16.515   7.261  1.00  0.00     0.120 A 
HETATM   27  C   UNL     1      43.490 -17.529   8.242  1.00  0.00     0.038 A 
ENDBRANCH   1  18
TORSDOF 6
ENDMDL
MODEL 6
REMARK VINA RESULT:      -7.0      1.167      1.633
REMARK  6 active torsions:
REMARK  status: ('A' for Active; 'I' for Inactive)
REMARK    1  A    between atoms: C_6  and  C_7 
REMARK       I    between atoms: C_7  and  N_8 
REMARK    2  A    between atoms: N_8  and  C_9 
REMARK    3  A    between atoms: C_9  and  C_10 
REMARK    4  A    between atoms: C_10  and  O_11 
REMARK    5  A    between atoms: C_10  and  C_12 
REMARK    6  A    between atoms: C_15  and  O_16 
ROOT
HETATM    1  C   UNL     1      43.604 -17.495   2.484  1.00  0.00     0.258 C 
HETATM    2  N   UNL     1      42.302 -17.048   2.507  1.00  0.00    -0.350 N 
HETATM    3  O   UNL     1      44.431 -17.090   1.675  1.00  0.00    -0.267 OA
HETATM    4  H   UNL     1      41.684 -17.454   3.209  1.00  0.00     0.163 HD
ENDROOT
BRANCH   2   5
HETATM    5  C   UNL     1      41.745 -16.069   1.563  1.00  0.00     0.114 C 
HETATM    6  C   UNL     1      41.457 -16.712   0.204  1.00  0.00     0.035 C 
BRANCH   5   7
HETATM    7  C   UNL     1      40.519 -15.333   2.174  1.00  0.00     0.173 C 
BRANCH   7   8
HETATM    8  O   UNL     1      39.559 -16.319   2.594  1.00  0.00    -0.389 OA
HETATM    9  H   UNL     1      39.728 -17.097   2.034  1.00  0.00     0.210 HD
ENDBRANCH   7   8
BRANCH   7  10
HETATM   10  C   UNL     1      40.852 -14.465   3.368  1.00  0.00    -0.028 A 
HETATM   11  C   UNL     1      41.887 -13.525   3.280  1.00  0.00     0.012 A 
HETATM   12  C   UNL     1      42.209 -12.719   4.375  1.00  0.00     0.037 A 
HETATM   13  C   UNL     1      41.503 -12.831   5.574  1.00  0.00     0.068 A 
HETATM   14  C   UNL     1      40.480 -13.772   5.675  1.00  0.00     0.037 A 
HETATM   15  C   UNL     1      40.158 -14.584   4.581  1.00  0.00     0.012 A 
BRANCH  13  16
HETATM   16  O   UNL     1      41.911 -11.975   6.560  1.00  0.00    -0.356 OA
HETATM   17  C   UNL     1      40.909 -11.155   7.146  1.00  0.00     0.210 C 
ENDBRANCH  13  16
ENDBRANCH   7  10
ENDBRANCH   5   7
ENDBRANCH   2   5
BRANCH   1  18
HETATM   18  C   UNL     1      43.923 -18.508   3.475  1.00  0.00     0.105 A 
HETATM   19  C   UNL     1      44.117 -18.330   4.872  1.00  0.00     0.071 A 
HETATM   20  C   UNL     1      44.023 -17.067   5.650  1.00  0.00     0.073 C 
HETATM   21  N   UNL     1      44.415 -19.475   5.496  1.00  0.00    -0.170 NA
HETATM   22  N   UNL     1      44.429 -20.408   4.519  1.00  0.00    -0.225 N 
HETATM   23  C   UNL     1      44.126 -19.862   3.269  1.00  0.00     0.168 A 
HETATM   24  C   UNL     1      44.706 -21.764   4.651  1.00  0.00     0.122 A 
HETATM   25  N   UNL     1      44.085 -20.632   2.130  1.00  0.00    -0.240 NA
HETATM   26  C   UNL     1      44.351 -21.895   2.294  1.00  0.00     0.120 A 
HETATM   27  C   UNL     1      44.687 -22.567   3.579  1.00  0.00     0.038 A 
ENDBRANCH   1  18
TORSDOF 6
ENDMDL
MODEL 7
REMARK VINA RESULT:      -6.9      2.039      4.188
REMARK  6 active torsions:
REMARK  status: ('A' for Active; 'I' for Inactive)
REMARK    1  A    between atoms: C_6  and  C_7 
REMARK       I    between atoms: C_7  and  N_8 
REMARK    2  A    between atoms: N_8  and  C_9 
REMARK    3  A    between atoms: C_9  and  C_10 
REMARK    4  A    between atoms: C_10  and  O_11 
REMARK    5  A    between atoms: C_10  and  C_12 
REMARK    6  A    between atoms: C_15  and  O_16 
ROOT
HETATM    1  C   UNL     1      42.773 -16.905   5.219  1.00  0.00     0.258 C 
HETATM    2  N   UNL     1      43.490 -15.738   5.081  1.00  0.00    -0.350 N 
HETATM    3  O   UNL     1      41.594 -16.925   5.556  1.00  0.00    -0.267 OA
HETATM    4  H   UNL     1      44.468 -15.823   4.809  1.00  0.00     0.163 HD
ENDROOT
BRANCH   2   5
HETATM    5  C   UNL     1      42.948 -14.397   5.344  1.00  0.00     0.114 C 
HETATM    6  C   UNL     1      43.768 -13.667   6.411  1.00  0.00     0.035 C 
BRANCH   5   7
HETATM    7  C   UNL     1      42.784 -13.589   4.026  1.00  0.00     0.173 C 
BRANCH   7   8
HETATM    8  O   UNL     1      43.900 -13.886   3.167  1.00  0.00    -0.389 OA
HETATM    9  H   UNL     1      44.299 -13.023   2.958  1.00  0.00     0.210 HD
ENDBRANCH   7   8
BRANCH   7  10
HETATM   10  C   UNL     1      41.513 -13.900   3.265  1.00  0.00    -0.028 A 
HETATM   11  C   UNL     1      40.408 -13.044   3.373  1.00  0.00     0.012 A 
HETATM   12  C   UNL     1      39.226 -13.320   2.681  1.00  0.00     0.037 A 
HETATM   13  C   UNL     1      39.126 -14.447   1.864  1.00  0.00     0.068 A 
HETATM   14  C   UNL     1      40.215 -15.311   1.759  1.00  0.00     0.037 A 
HETATM   15  C   UNL     1      41.399 -15.039   2.456  1.00  0.00     0.012 A 
BRANCH  13  16
HETATM   16  O   UNL     1      37.920 -14.591   1.234  1.00  0.00    -0.356 OA
HETATM   17  C   UNL     1      37.577 -13.595   0.280  1.00  0.00     0.210 C 
ENDBRANCH  13  16
ENDBRANCH   7  10
ENDBRANCH   5   7
ENDBRANCH   2   5
BRANCH   1  18
HETATM   18  C   UNL     1      43.525 -18.122   4.963  1.00  0.00     0.105 A 
HETATM   19  C   UNL     1      44.485 -18.746   5.804  1.00  0.00     0.071 A 
HETATM   20  C   UNL     1      44.934 -18.310   7.152  1.00  0.00     0.073 C 
HETATM   21  N   UNL     1      45.003 -19.850   5.255  1.00  0.00    -0.170 NA
HETATM   22  N   UNL     1      44.399 -19.955   4.051  1.00  0.00    -0.225 N 
HETATM   23  C   UNL     1      43.482 -18.923   3.834  1.00  0.00     0.168 A 
HETATM   24  C   UNL     1      44.607 -20.932   3.084  1.00  0.00     0.122 A 
HETATM   25  N   UNL     1      42.751 -18.831   2.673  1.00  0.00    -0.240 NA
HETATM   26  C   UNL     1      42.975 -19.763   1.791  1.00  0.00     0.120 A 
HETATM   27  C   UNL     1      43.930 -20.896   1.928  1.00  0.00     0.038 A 
ENDBRANCH   1  18
TORSDOF 6
ENDMDL
MODEL 8
REMARK VINA RESULT:      -6.9      2.662      4.041
REMARK  6 active torsions:
REMARK  status: ('A' for Active; 'I' for Inactive)
REMARK    1  A    between atoms: C_6  and  C_7 
REMARK       I    between atoms: C_7  and  N_8 
REMARK    2  A    between atoms: N_8  and  C_9 
REMARK    3  A    between atoms: C_9  and  C_10 
REMARK    4  A    between atoms: C_10  and  O_11 
REMARK    5  A    between atoms: C_10  and  C_12 
REMARK    6  A    between atoms: C_15  and  O_16 
ROOT
HETATM    1  C   UNL     1      43.098 -16.925   3.772  1.00  0.00     0.258 C 
HETATM    2  N   UNL     1      42.274 -16.986   2.670  1.00  0.00    -0.350 N 
HETATM    3  O   UNL     1      43.299 -15.888   4.395  1.00  0.00    -0.267 OA
HETATM    4  H   UNL     1      42.179 -17.890   2.211  1.00  0.00     0.163 HD
ENDROOT
BRANCH   2   5
HETATM    5  C   UNL     1      41.569 -15.830   2.098  1.00  0.00     0.114 C 
HETATM    6  C   UNL     1      41.651 -15.831   0.570  1.00  0.00     0.035 C 
BRANCH   5   7
HETATM    7  C   UNL     1      40.116 -15.732   2.642  1.00  0.00     0.173 C 
BRANCH   7   8
HETATM    8  O   UNL     1      40.166 -15.735   4.080  1.00  0.00    -0.389 OA
HETATM    9  H   UNL     1      40.216 -16.673   4.333  1.00  0.00     0.210 HD
ENDBRANCH   7   8
BRANCH   7  10
HETATM   10  C   UNL     1      39.374 -14.487   2.203  1.00  0.00    -0.028 A 
HETATM   11  C   UNL     1      38.311 -14.593   1.296  1.00  0.00     0.012 A 
HETATM   12  C   UNL     1      37.620 -13.453   0.878  1.00  0.00     0.037 A 
HETATM   13  C   UNL     1      37.970 -12.190   1.359  1.00  0.00     0.068 A 
HETATM   14  C   UNL     1      39.035 -12.074   2.252  1.00  0.00     0.037 A 
HETATM   15  C   UNL     1      39.732 -13.214   2.669  1.00  0.00     0.012 A 
BRANCH  13  16
HETATM   16  O   UNL     1      37.205 -11.163   0.880  1.00  0.00    -0.356 OA
HETATM   17  C   UNL     1      35.868 -11.480   0.516  1.00  0.00     0.210 C 
ENDBRANCH  13  16
ENDBRANCH   7  10
ENDBRANCH   5   7
ENDBRANCH   2   5
BRANCH   1  18
HETATM   18  C   UNL     1      43.739 -18.179   4.129  1.00  0.00     0.105 A 
HETATM   19  C   UNL     1      44.476 -18.476   5.308  1.00  0.00     0.071 A 
HETATM   20  C   UNL     1      44.752 -17.577   6.459  1.00  0.00     0.073 C 
HETATM   21  N   UNL     1      44.946 -19.728   5.313  1.00  0.00    -0.170 NA
HETATM   22  N   UNL     1      44.532 -20.258   4.142  1.00  0.00    -0.225 N 
HETATM   23  C   UNL     1      43.784 -19.348   3.390  1.00  0.00     0.168 A 
HETATM   24  C   UNL     1      44.779 -21.539   3.660  1.00  0.00     0.122 A 
HETATM   25  N   UNL     1      43.262 -19.676   2.160  1.00  0.00    -0.240 NA
HETATM   26  C   UNL     1      43.516 -20.883   1.744  1.00  0.00     0.120 A 
HETATM   27  C   UNL     1      44.303 -21.918   2.467  1.00  0.00     0.038 A 
ENDBRANCH   1  18
TORSDOF 6
ENDMDL
MODEL 9
REMARK VINA RESULT:      -6.9      3.856      8.192
REMARK  6 active torsions:
REMARK  status: ('A' for Active; 'I' for Inactive)
REMARK    1  A    between atoms: C_6  and  C_7 
REMARK       I    between atoms: C_7  and  N_8 
REMARK    2  A    between atoms: N_8  and  C_9 
REMARK    3  A    between atoms: C_9  and  C_10 
REMARK    4  A    between atoms: C_10  and  O_11 
REMARK    5  A    between atoms: C_10  and  C_12 
REMARK    6  A    between atoms: C_15  and  O_16 
ROOT
HETATM    1  C   UNL     1      44.302 -14.151   7.086  1.00  0.00     0.258 C 
HETATM    2  N   UNL     1      43.450 -15.228   7.188  1.00  0.00    -0.350 N 
HETATM    3  O   UNL     1      45.395 -14.218   6.535  1.00  0.00    -0.267 OA
HETATM    4  H   UNL     1      42.568 -15.078   7.676  1.00  0.00     0.163 HD
ENDROOT
BRANCH   2   5
HETATM    5  C   UNL     1      43.754 -16.575   6.684  1.00  0.00     0.114 C 
HETATM    6  C   UNL     1      43.388 -17.648   7.713  1.00  0.00     0.035 C 
BRANCH   5   7
HETATM    7  C   UNL     1      43.114 -16.810   5.287  1.00  0.00     0.173 C 
BRANCH   7   8
HETATM    8  O   UNL     1      43.407 -15.674   4.454  1.00  0.00    -0.389 OA
HETATM    9  H   UNL     1      42.660 -15.063   4.581  1.00  0.00     0.210 HD
ENDBRANCH   7   8
BRANCH   7  10
HETATM   10  C   UNL     1      43.614 -18.051   4.579  1.00  0.00    -0.028 A 
HETATM   11  C   UNL     1      43.066 -18.417   3.342  1.00  0.00     0.012 A 
HETATM   12  C   UNL     1      43.514 -19.562   2.679  1.00  0.00     0.037 A 
HETATM   13  C   UNL     1      44.520 -20.358   3.230  1.00  0.00     0.068 A 
HETATM   14  C   UNL     1      45.063 -20.008   4.466  1.00  0.00     0.037 A 
HETATM   15  C   UNL     1      44.612 -18.864   5.135  1.00  0.00     0.012 A 
BRANCH  13  16
HETATM   16  O   UNL     1      44.874 -21.439   2.472  1.00  0.00    -0.356 OA
HETATM   17  C   UNL     1      43.915 -21.897   1.527  1.00  0.00     0.210 C 
ENDBRANCH  13  16
ENDBRANCH   7  10
ENDBRANCH   5   7
ENDBRANCH   2   5
BRANCH   1  18
HETATM   18  C   UNL     1      43.822 -12.928   7.705  1.00  0.00     0.105 A 
HETATM   19  C   UNL     1      42.807 -12.052   7.233  1.00  0.00     0.071 A 
HETATM   20  C   UNL     1      41.987 -12.189   6.001  1.00  0.00     0.073 C 
HETATM   21  N   UNL     1      42.622 -11.003   8.042  1.00  0.00    -0.170 NA
HETATM   22  N   UNL     1      43.514 -11.174   9.042  1.00  0.00    -0.225 N 
HETATM   23  C   UNL     1      44.264 -12.343   8.880  1.00  0.00     0.168 A 
HETATM   24  C   UNL     1      43.731 -10.339  10.132  1.00  0.00     0.122 A 
HETATM   25  N   UNL     1      45.233 -12.716   9.782  1.00  0.00    -0.240 NA
HETATM   26  C   UNL     1      45.407 -11.908  10.788  1.00  0.00     0.120 A 
HETATM   27  C   UNL     1      44.664 -10.644  11.044  1.00  0.00     0.038 A 
ENDBRANCH   1  18
TORSDOF 6
ENDMDL
MODEL 10
REMARK VINA RESULT:      -6.8      2.426      4.536
REMARK  6 active torsions:
REMARK  status: ('A' for Active; 'I' for Inactive)
REMARK    1  A    between atoms: C_6  and  C_7 
REMARK       I    between atoms: C_7  and  N_8 
REMARK    2  A    between atoms: N_8  and  C_9 
REMARK    3  A    between atoms: C_9  and  C_10 
REMARK    4  A    between atoms: C_10  and  O_11 
REMARK    5  A    between atoms: C_10  and  C_12 
REMARK    6  A    between atoms: C_15  and  O_16 
ROOT
HETATM    1  C   UNL     1      43.274 -16.868   4.478  1.00  0.00     0.258 C 
HETATM    2  N   UNL     1      42.394 -16.647   3.442  1.00  0.00    -0.350 N 
HETATM    3  O   UNL     1      43.537 -16.017   5.320  1.00  0.00    -0.267 OA
HETATM    4  H   UNL     1      42.250 -17.411   2.784  1.00  0.00     0.163 HD
ENDROOT
BRANCH   2   5
HETATM    5  C   UNL     1      41.694 -15.376   3.207  1.00  0.00     0.114 C 
HETATM    6  C   UNL     1      42.592 -14.376   2.474  1.00  0.00     0.035 C 
BRANCH   5   7
HETATM    7  C   UNL     1      40.325 -15.609   2.508  1.00  0.00     0.173 C 
BRANCH   7   8
HETATM    8  O   UNL     1      39.320 -14.861   3.215  1.00  0.00    -0.389 OA
HETATM    9  H   UNL     1      39.437 -15.095   4.152  1.00  0.00     0.210 HD
ENDBRANCH   7   8
BRANCH   7  10
HETATM   10  C   UNL     1      40.292 -15.181   1.056  1.00  0.00    -0.028 A 
HETATM   11  C   UNL     1      41.089 -15.846   0.115  1.00  0.00     0.012 A 
HETATM   12  C   UNL     1      41.073 -15.460  -1.228  1.00  0.00     0.037 A 
HETATM   13  C   UNL     1      40.258 -14.412  -1.658  1.00  0.00     0.068 A 
HETATM   14  C   UNL     1      39.470 -13.736  -0.726  1.00  0.00     0.037 A 
HETATM   15  C   UNL     1      39.488 -14.118   0.620  1.00  0.00     0.012 A 
BRANCH  13  16
HETATM   16  O   UNL     1      40.327 -14.146  -2.998  1.00  0.00    -0.356 OA
HETATM   17  C   UNL     1      41.502 -13.490  -3.458  1.00  0.00     0.210 C 
ENDBRANCH  13  16
ENDBRANCH   7  10
ENDBRANCH   5   7
ENDBRANCH   2   5
BRANCH   1  18
HETATM   18  C   UNL     1      43.896 -18.181   4.485  1.00  0.00     0.105 A 
HETATM   19  C   UNL     1      44.788 -18.718   5.453  1.00  0.00     0.071 A 
HETATM   20  C   UNL     1      45.283 -18.067   6.694  1.00  0.00     0.073 C 
HETATM   21  N   UNL     1      45.188 -19.957   5.147  1.00  0.00    -0.170 NA
HETATM   22  N   UNL     1      44.573 -20.240   3.978  1.00  0.00    -0.225 N 
HETATM   23  C   UNL     1      43.767 -19.185   3.540  1.00  0.00     0.168 A 
HETATM   24  C   UNL     1      44.677 -21.408   3.230  1.00  0.00     0.122 A 
HETATM   25  N   UNL     1      43.047 -19.256   2.371  1.00  0.00    -0.240 NA
HETATM   26  C   UNL     1      43.172 -20.364   1.699  1.00  0.00     0.120 A 
HETATM   27  C   UNL     1      44.005 -21.537   2.079  1.00  0.00     0.038 A 
ENDBRANCH   1  18
TORSDOF 6
ENDMDL
