MODEL 1
REMARK VINA RESULT:      -8.3      0.000      0.000
REMARK  11 active torsions:
REMARK  status: ('A' for Active; 'I' for Inactive)
REMARK    1  A    between atoms: C_2  and  O_3 
REMARK    2  A    between atoms: O_3  and  C_4 
REMARK    3  A    between atoms: C_7  and  N_8 
REMARK       I    between atoms: N_8  and  C_9 
REMARK    4  A    between atoms: C_9  and  C_10 
REMARK    5  A    between atoms: C_10  and  C_11 
REMARK    6  A    between atoms: N_12  and  C_13 
REMARK    7  A    between atoms: C_13  and  C_14 
REMARK    8  A    between atoms: C_14  and  C_15 
REMARK    9  A    between atoms: C_15  and  N_16 
REMARK   10  A    between atoms: C_20  and  C_21 
REMARK       I    between atoms: C_21  and  N_22 
REMARK   11  A    between atoms: N_28  and  C_29 
ROOT
HETATM    1  C   UNL     1      40.321 -13.229   3.447  1.00  0.00     0.188 C 
HETATM    2  N   UNL     1      39.328 -12.175   3.252  1.00  0.00    -0.344 N 
HETATM    3  C   UNL     1      39.354 -11.271   4.350  1.00  0.00     0.184 C 
HETATM    4  S   UNL     1      38.594  -9.782   4.291  1.00  0.00    -0.040 SA
HETATM    5  N   UNL     1      40.082 -11.875   5.376  1.00  0.00    -0.257 N 
HETATM    6  C   UNL     1      40.480 -13.134   4.956  1.00  0.00     0.254 C 
HETATM    7  O   UNL     1      40.857 -14.074   5.643  1.00  0.00    -0.270 OA
ENDROOT
BRANCH   2   8
HETATM    8  C   UNL     1      38.747 -11.926   1.923  1.00  0.00     0.128 C 
BRANCH   8   9
HETATM    9  C   UNL     1      39.772 -11.486   0.870  1.00  0.00     0.048 C 
BRANCH   9  10
HETATM   10  C   UNL     1      39.473 -11.873  -0.578  1.00  0.00     0.236 C 
BRANCH  10  11
HETATM   11  N   UNL     1      40.404 -12.926  -1.146  1.00  0.00    -0.071 N 
HETATM   12  H   UNL     1      41.356 -12.750  -0.788  1.00  0.00     0.279 HD
HETATM   13  C   UNL     1      39.989 -14.326  -0.752  1.00  0.00     0.235 C 
HETATM   14  C   UNL     1      40.937 -15.355  -1.354  1.00  0.00     0.042 C 
HETATM   15  C   UNL     1      41.013 -15.245  -2.876  1.00  0.00     0.081 C 
HETATM   16  C   UNL     1      41.382 -13.816  -3.280  1.00  0.00     0.042 C 
HETATM   17  C   UNL     1      40.483 -12.756  -2.655  1.00  0.00     0.235 C 
BRANCH  15  18
HETATM   18  C   UNL     1      39.690 -15.677  -3.497  1.00  0.00     0.219 C 
HETATM   19  N   UNL     1      39.425 -17.010  -3.446  1.00  0.00    -0.370 N 
HETATM   20  H   UNL     1      40.156 -17.705  -3.344  1.00  0.00     0.159 HD
HETATM   21  H   UNL     1      38.579 -17.321  -3.913  1.00  0.00     0.159 HD
HETATM   22  O   UNL     1      38.862 -14.880  -3.918  1.00  0.00    -0.273 OA
ENDBRANCH  15  18
ENDBRANCH  10  11
ENDBRANCH   9  10
ENDBRANCH   8   9
ENDBRANCH   2   8
BRANCH   1  23
HETATM   23  C   UNL     1      39.922 -14.627   3.005  1.00  0.00     0.138 C 
BRANCH  23  24
HETATM   24  C   UNL     1      41.163 -15.448   2.701  1.00  0.00     0.224 C 
HETATM   25  N   UNL     1      41.102 -16.721   3.226  1.00  0.00    -0.327 N 
HETATM   26  H   UNL     1      40.321 -16.936   3.831  1.00  0.00     0.169 HD
HETATM   27  O   UNL     1      42.073 -14.951   2.048  1.00  0.00    -0.273 OA
BRANCH  25  28
HETATM   28  C   UNL     1      42.085 -17.729   3.173  1.00  0.00     0.034 A 
HETATM   29  C   UNL     1      42.485 -18.384   2.009  1.00  0.00     0.032 A 
HETATM   30  C   UNL     1      43.489 -19.364   2.054  1.00  0.00     0.039 A 
HETATM   31  C   UNL     1      44.095 -19.698   3.263  1.00  0.00     0.068 A 
HETATM   32  C   UNL     1      43.690 -19.048   4.428  1.00  0.00     0.039 A 
HETATM   33  C   UNL     1      42.696 -18.071   4.386  1.00  0.00     0.032 A 
BRANCH  31  34
HETATM   34  O   UNL     1      45.079 -20.626   3.451  1.00  0.00    -0.352 OA
BRANCH  34  35
HETATM   35  C   UNL     1      45.115 -21.298   4.706  1.00  0.00     0.171 C 
HETATM   36  C   UNL     1      44.675 -22.732   4.471  1.00  0.00     0.034 C 
ENDBRANCH  34  35
ENDBRANCH  31  34
ENDBRANCH  25  28
ENDBRANCH  23  24
ENDBRANCH   1  23
BRANCH   5  37
HETATM   37  C   UNL     1      40.346 -11.420   6.718  1.00  0.00     0.045 A 
HETATM   38  C   UNL     1      39.360 -11.567   7.717  1.00  0.00     0.032 A 
HETATM   39  C   UNL     1      39.557 -11.133   9.036  1.00  0.00     0.026 A 
HETATM   40  C   UNL     1      40.762 -10.552   9.395  1.00  0.00     0.034 A 
HETATM   41 CL   UNL     1      41.016 -10.017  11.006  1.00  0.00    -0.084 Cl
HETATM   42  C   UNL     1      41.760 -10.399   8.442  1.00  0.00     0.026 A 
HETATM   43  C   UNL     1      41.549 -10.822   7.120  1.00  0.00     0.032 A 
ENDBRANCH   5  37
TORSDOF 11
ENDMDL
MODEL 2
REMARK VINA RESULT:      -8.3      3.766      8.613
REMARK  11 active torsions:
REMARK  status: ('A' for Active; 'I' for Inactive)
REMARK    1  A    between atoms: C_2  and  O_3 
REMARK    2  A    between atoms: O_3  and  C_4 
REMARK    3  A    between atoms: C_7  and  N_8 
REMARK       I    between atoms: N_8  and  C_9 
REMARK    4  A    between atoms: C_9  and  C_10 
REMARK    5  A    between atoms: C_10  and  C_11 
REMARK    6  A    between atoms: N_12  and  C_13 
REMARK    7  A    between atoms: C_13  and  C_14 
REMARK    8  A    between atoms: C_14  and  C_15 
REMARK    9  A    between atoms: C_15  and  N_16 
REMARK   10  A    between atoms: C_20  and  C_21 
REMARK       I    between atoms: C_21  and  N_22 
REMARK   11  A    between atoms: N_28  and  C_29 
ROOT
HETATM    1  C   UNL     1      42.339 -13.541   4.998  1.00  0.00     0.188 C 
HETATM    2  N   UNL     1      41.364 -12.452   4.965  1.00  0.00    -0.344 N 
HETATM    3  C   UNL     1      40.933 -12.223   3.629  1.00  0.00     0.184 C 
HETATM    4  S   UNL     1      39.590 -11.290   3.278  1.00  0.00    -0.040 SA
HETATM    5  N   UNL     1      41.820 -12.887   2.780  1.00  0.00    -0.257 N 
HETATM    6  C   UNL     1      42.800 -13.495   3.550  1.00  0.00     0.254 C 
HETATM    7  O   UNL     1      43.898 -13.900   3.191  1.00  0.00    -0.270 OA
ENDROOT
BRANCH   2   8
HETATM    8  C   UNL     1      40.682 -12.017   6.195  1.00  0.00     0.128 C 
BRANCH   8   9
HETATM    9  C   UNL     1      41.256 -10.730   6.800  1.00  0.00     0.048 C 
BRANCH   9  10
HETATM   10  C   UNL     1      40.979 -10.489   8.284  1.00  0.00     0.236 C 
BRANCH  10  11
HETATM   11  N   UNL     1      42.209 -10.135   9.096  1.00  0.00    -0.071 N 
HETATM   12  H   UNL     1      42.541  -9.203   8.799  1.00  0.00     0.279 HD
HETATM   13  C   UNL     1      41.920 -10.097  10.580  1.00  0.00     0.235 C 
HETATM   14  C   UNL     1      43.182  -9.754  11.362  1.00  0.00     0.042 C 
HETATM   15  C   UNL     1      44.318 -10.736  11.079  1.00  0.00     0.081 C 
HETATM   16  C   UNL     1      44.578 -10.816   9.574  1.00  0.00     0.042 C 
HETATM   17  C   UNL     1      43.326 -11.109   8.756  1.00  0.00     0.235 C 
BRANCH  15  18
HETATM   18  C   UNL     1      43.983 -12.103  11.662  1.00  0.00     0.219 C 
HETATM   19  N   UNL     1      42.991 -12.118  12.592  1.00  0.00    -0.370 N 
HETATM   20  H   UNL     1      42.734 -11.295  13.124  1.00  0.00     0.159 HD
HETATM   21  H   UNL     1      42.801 -13.011  13.037  1.00  0.00     0.159 HD
HETATM   22  O   UNL     1      44.486 -13.142  11.252  1.00  0.00    -0.273 OA
ENDBRANCH  15  18
ENDBRANCH  10  11
ENDBRANCH   9  10
ENDBRANCH   8   9
ENDBRANCH   2   8
BRANCH   1  23
HETATM   23  C   UNL     1      43.498 -13.384   5.969  1.00  0.00     0.138 C 
BRANCH  23  24
HETATM   24  C   UNL     1      44.076 -14.747   6.308  1.00  0.00     0.224 C 
HETATM   25  N   UNL     1      43.327 -15.786   5.801  1.00  0.00    -0.327 N 
HETATM   26  H   UNL     1      42.443 -15.552   5.367  1.00  0.00     0.169 HD
HETATM   27  O   UNL     1      45.107 -14.820   6.968  1.00  0.00    -0.273 OA
BRANCH  25  28
HETATM   28  C   UNL     1      43.544 -17.169   5.956  1.00  0.00     0.034 A 
HETATM   29  C   UNL     1      43.459 -17.852   7.168  1.00  0.00     0.032 A 
HETATM   30  C   UNL     1      43.674 -19.238   7.220  1.00  0.00     0.039 A 
HETATM   31  C   UNL     1      43.982 -19.948   6.061  1.00  0.00     0.068 A 
HETATM   32  C   UNL     1      44.074 -19.264   4.851  1.00  0.00     0.039 A 
HETATM   33  C   UNL     1      43.856 -17.887   4.795  1.00  0.00     0.032 A 
BRANCH  31  34
HETATM   34  O   UNL     1      44.213 -21.290   5.966  1.00  0.00    -0.352 OA
BRANCH  34  35
HETATM   35  C   UNL     1      45.204 -21.721   5.038  1.00  0.00     0.171 C 
HETATM   36  C   UNL     1      44.562 -22.751   4.126  1.00  0.00     0.034 C 
ENDBRANCH  34  35
ENDBRANCH  31  34
ENDBRANCH  25  28
ENDBRANCH  23  24
ENDBRANCH   1  23
BRANCH   5  37
HETATM   37  C   UNL     1      41.878 -12.920   1.341  1.00  0.00     0.045 A 
HETATM   38  C   UNL     1      42.251 -11.760   0.627  1.00  0.00     0.032 A 
HETATM   39  C   UNL     1      42.313 -11.729  -0.774  1.00  0.00     0.026 A 
HETATM   40  C   UNL     1      42.019 -12.872  -1.500  1.00  0.00     0.034 A 
HETATM   41 CL   UNL     1      42.094 -12.848  -3.215  1.00  0.00    -0.084 Cl
HETATM   42  C   UNL     1      41.658 -14.034  -0.833  1.00  0.00     0.026 A 
HETATM   43  C   UNL     1      41.583 -14.053   0.570  1.00  0.00     0.032 A 
ENDBRANCH   5  37
TORSDOF 11
ENDMDL
MODEL 3
REMARK VINA RESULT:      -8.3      1.342      1.625
REMARK  11 active torsions:
REMARK  status: ('A' for Active; 'I' for Inactive)
REMARK    1  A    between atoms: C_2  and  O_3 
REMARK    2  A    between atoms: O_3  and  C_4 
REMARK    3  A    between atoms: C_7  and  N_8 
REMARK       I    between atoms: N_8  and  C_9 
REMARK    4  A    between atoms: C_9  and  C_10 
REMARK    5  A    between atoms: C_10  and  C_11 
REMARK    6  A    between atoms: N_12  and  C_13 
REMARK    7  A    between atoms: C_13  and  C_14 
REMARK    8  A    between atoms: C_14  and  C_15 
REMARK    9  A    between atoms: C_15  and  N_16 
REMARK   10  A    between atoms: C_20  and  C_21 
REMARK       I    between atoms: C_21  and  N_22 
REMARK   11  A    between atoms: N_28  and  C_29 
ROOT
HETATM    1  C   UNL     1      40.468 -13.256   3.616  1.00  0.00     0.188 C 
HETATM    2  N   UNL     1      40.381 -11.864   3.179  1.00  0.00    -0.344 N 
HETATM    3  C   UNL     1      40.670 -10.993   4.265  1.00  0.00     0.184 C 
HETATM    4  S   UNL     1      40.987  -9.366   4.038  1.00  0.00    -0.040 SA
HETATM    5  N   UNL     1      40.618 -11.749   5.438  1.00  0.00    -0.257 N 
HETATM    6  C   UNL     1      40.278 -13.052   5.110  1.00  0.00     0.254 C 
HETATM    7  O   UNL     1      39.839 -13.925   5.849  1.00  0.00    -0.270 OA
ENDROOT
BRANCH   2   8
HETATM    8  C   UNL     1      40.409 -11.523   1.748  1.00  0.00     0.128 C 
BRANCH   8   9
HETATM    9  C   UNL     1      41.721 -11.896   1.046  1.00  0.00     0.048 C 
BRANCH   9  10
HETATM   10  C   UNL     1      41.698 -13.152   0.175  1.00  0.00     0.236 C 
BRANCH  10  11
HETATM   11  N   UNL     1      40.765 -13.066  -1.017  1.00  0.00    -0.071 N 
HETATM   12  H   UNL     1      40.345 -12.122  -1.037  1.00  0.00     0.279 HD
HETATM   13  C   UNL     1      41.488 -13.304  -2.324  1.00  0.00     0.235 C 
HETATM   14  C   UNL     1      40.516 -13.226  -3.494  1.00  0.00     0.042 C 
HETATM   15  C   UNL     1      39.362 -14.218  -3.350  1.00  0.00     0.081 C 
HETATM   16  C   UNL     1      38.661 -14.013  -2.005  1.00  0.00     0.042 C 
HETATM   17  C   UNL     1      39.612 -14.037  -0.815  1.00  0.00     0.235 C 
BRANCH  15  18
HETATM   18  C   UNL     1      39.878 -15.643  -3.501  1.00  0.00     0.219 C 
HETATM   19  N   UNL     1      38.933 -16.584  -3.772  1.00  0.00    -0.370 N 
HETATM   20  H   UNL     1      37.954 -16.450  -3.547  1.00  0.00     0.159 HD
HETATM   21  H   UNL     1      39.252 -17.547  -3.810  1.00  0.00     0.159 HD
HETATM   22  O   UNL     1      41.069 -15.923  -3.491  1.00  0.00    -0.273 OA
ENDBRANCH  15  18
ENDBRANCH  10  11
ENDBRANCH   9  10
ENDBRANCH   8   9
ENDBRANCH   2   8
BRANCH   1  23
HETATM   23  C   UNL     1      39.439 -14.214   3.038  1.00  0.00     0.138 C 
BRANCH  23  24
HETATM   24  C   UNL     1      40.121 -15.490   2.576  1.00  0.00     0.224 C 
HETATM   25  N   UNL     1      41.402 -15.618   3.068  1.00  0.00    -0.327 N 
HETATM   26  H   UNL     1      41.786 -14.831   3.575  1.00  0.00     0.169 HD
HETATM   27  O   UNL     1      39.520 -16.267   1.844  1.00  0.00    -0.273 OA
BRANCH  25  28
HETATM   28  C   UNL     1      42.331 -16.646   2.813  1.00  0.00     0.034 A 
HETATM   29  C   UNL     1      43.242 -16.645   1.758  1.00  0.00     0.032 A 
HETATM   30  C   UNL     1      44.144 -17.709   1.597  1.00  0.00     0.039 A 
HETATM   31  C   UNL     1      44.135 -18.782   2.486  1.00  0.00     0.068 A 
HETATM   32  C   UNL     1      43.219 -18.786   3.535  1.00  0.00     0.039 A 
HETATM   33  C   UNL     1      42.324 -17.729   3.701  1.00  0.00     0.032 A 
BRANCH  31  34
HETATM   34  O   UNL     1      44.951 -19.876   2.448  1.00  0.00    -0.352 OA
BRANCH  34  35
HETATM   35  C   UNL     1      44.410 -21.114   2.901  1.00  0.00     0.171 C 
HETATM   36  C   UNL     1      44.280 -22.026   1.694  1.00  0.00     0.034 C 
ENDBRANCH  34  35
ENDBRANCH  31  34
ENDBRANCH  25  28
ENDBRANCH  23  24
ENDBRANCH   1  23
BRANCH   5  37
HETATM   37  C   UNL     1      40.763 -11.340   6.812  1.00  0.00     0.045 A 
HETATM   38  C   UNL     1      39.629 -11.285   7.652  1.00  0.00     0.032 A 
HETATM   39  C   UNL     1      39.709 -10.885   8.994  1.00  0.00     0.026 A 
HETATM   40  C   UNL     1      40.936 -10.542   9.537  1.00  0.00     0.034 A 
HETATM   41 CL   UNL     1      41.047 -10.051  11.179  1.00  0.00    -0.084 Cl
HETATM   42  C   UNL     1      42.075 -10.593   8.745  1.00  0.00     0.026 A 
HETATM   43  C   UNL     1      41.985 -10.981   7.398  1.00  0.00     0.032 A 
ENDBRANCH   5  37
TORSDOF 11
ENDMDL
MODEL 4
REMARK VINA RESULT:      -8.2      4.035      8.477
REMARK  11 active torsions:
REMARK  status: ('A' for Active; 'I' for Inactive)
REMARK    1  A    between atoms: C_2  and  O_3 
REMARK    2  A    between atoms: O_3  and  C_4 
REMARK    3  A    between atoms: C_7  and  N_8 
REMARK       I    between atoms: N_8  and  C_9 
REMARK    4  A    between atoms: C_9  and  C_10 
REMARK    5  A    between atoms: C_10  and  C_11 
REMARK    6  A    between atoms: N_12  and  C_13 
REMARK    7  A    between atoms: C_13  and  C_14 
REMARK    8  A    between atoms: C_14  and  C_15 
REMARK    9  A    between atoms: C_15  and  N_16 
REMARK   10  A    between atoms: C_20  and  C_21 
REMARK       I    between atoms: C_21  and  N_22 
REMARK   11  A    between atoms: N_28  and  C_29 
ROOT
HETATM    1  C   UNL     1      43.163 -14.926   6.181  1.00  0.00     0.188 C 
HETATM    2  N   UNL     1      42.373 -15.086   4.961  1.00  0.00    -0.344 N 
HETATM    3  C   UNL     1      42.329 -16.457   4.585  1.00  0.00     0.184 C 
HETATM    4  S   UNL     1      41.246 -17.029   3.445  1.00  0.00    -0.040 SA
HETATM    5  N   UNL     1      43.312 -17.127   5.316  1.00  0.00    -0.257 N 
HETATM    6  C   UNL     1      43.979 -16.207   6.108  1.00  0.00     0.254 C 
HETATM    7  O   UNL     1      45.073 -16.327   6.645  1.00  0.00    -0.270 OA
ENDROOT
BRANCH   2   8
HETATM    8  C   UNL     1      41.462 -14.022   4.512  1.00  0.00     0.128 C 
BRANCH   8   9
HETATM    9  C   UNL     1      41.836 -13.417   3.153  1.00  0.00     0.048 C 
BRANCH   9  10
HETATM   10  C   UNL     1      40.685 -12.880   2.303  1.00  0.00     0.236 C 
BRANCH  10  11
HETATM   11  N   UNL     1      40.346 -13.740   1.100  1.00  0.00    -0.071 N 
HETATM   12  H   UNL     1      39.778 -14.541   1.420  1.00  0.00     0.279 HD
HETATM   13  C   UNL     1      39.563 -12.976   0.056  1.00  0.00     0.235 C 
HETATM   14  C   UNL     1      39.257 -13.867  -1.141  1.00  0.00     0.042 C 
HETATM   15  C   UNL     1      40.526 -14.447  -1.764  1.00  0.00     0.081 C 
HETATM   16  C   UNL     1      41.346 -15.176  -0.699  1.00  0.00     0.042 C 
HETATM   17  C   UNL     1      41.629 -14.329   0.535  1.00  0.00     0.235 C 
BRANCH  15  18
HETATM   18  C   UNL     1      41.333 -13.340  -2.431  1.00  0.00     0.219 C 
HETATM   19  N   UNL     1      42.615 -13.659  -2.750  1.00  0.00    -0.370 N 
HETATM   20  H   UNL     1      43.119 -14.407  -2.289  1.00  0.00     0.159 HD
HETATM   21  H   UNL     1      43.185 -12.912  -3.135  1.00  0.00     0.159 HD
HETATM   22  O   UNL     1      40.843 -12.268  -2.762  1.00  0.00    -0.273 OA
ENDBRANCH  15  18
ENDBRANCH  10  11
ENDBRANCH   9  10
ENDBRANCH   8   9
ENDBRANCH   2   8
BRANCH   1  23
HETATM   23  C   UNL     1      44.048 -13.693   6.259  1.00  0.00     0.138 C 
BRANCH  23  24
HETATM   24  C   UNL     1      44.144 -13.214   7.697  1.00  0.00     0.224 C 
HETATM   25  N   UNL     1      43.520 -12.002   7.899  1.00  0.00    -0.327 N 
HETATM   26  H   UNL     1      43.173 -11.517   7.082  1.00  0.00     0.169 HD
HETATM   27  O   UNL     1      44.731 -13.901   8.525  1.00  0.00    -0.273 OA
BRANCH  25  28
HETATM   28  C   UNL     1      43.449 -11.250   9.088  1.00  0.00     0.034 A 
HETATM   29  C   UNL     1      44.513 -11.061   9.968  1.00  0.00     0.032 A 
HETATM   30  C   UNL     1      44.351 -10.277  11.121  1.00  0.00     0.039 A 
HETATM   31  C   UNL     1      43.122  -9.682  11.403  1.00  0.00     0.068 A 
HETATM   32  C   UNL     1      42.057  -9.878  10.526  1.00  0.00     0.039 A 
HETATM   33  C   UNL     1      42.216 -10.653   9.377  1.00  0.00     0.032 A 
BRANCH  31  34
HETATM   34  O   UNL     1      42.825  -8.899  12.481  1.00  0.00    -0.352 OA
BRANCH  34  35
HETATM   35  C   UNL     1      43.226  -9.371  13.765  1.00  0.00     0.171 C 
HETATM   36  C   UNL     1      42.337 -10.550  14.118  1.00  0.00     0.034 C 
ENDBRANCH  34  35
ENDBRANCH  31  34
ENDBRANCH  25  28
ENDBRANCH  23  24
ENDBRANCH   1  23
BRANCH   5  37
HETATM   37  C   UNL     1      43.729 -18.505   5.262  1.00  0.00     0.045 A 
HETATM   38  C   UNL     1      44.347 -19.007   4.097  1.00  0.00     0.032 A 
HETATM   39  C   UNL     1      44.763 -20.342   3.984  1.00  0.00     0.026 A 
HETATM   40  C   UNL     1      44.586 -21.209   5.049  1.00  0.00     0.034 A 
HETATM   41 CL   UNL     1      45.092 -22.845   4.924  1.00  0.00    -0.084 Cl
HETATM   42  C   UNL     1      43.990 -20.750   6.215  1.00  0.00     0.026 A 
HETATM   43  C   UNL     1      43.562 -19.416   6.315  1.00  0.00     0.032 A 
ENDBRANCH   5  37
TORSDOF 11
ENDMDL
MODEL 5
REMARK VINA RESULT:      -8.2      3.508      7.654
REMARK  11 active torsions:
REMARK  status: ('A' for Active; 'I' for Inactive)
REMARK    1  A    between atoms: C_2  and  O_3 
REMARK    2  A    between atoms: O_3  and  C_4 
REMARK    3  A    between atoms: C_7  and  N_8 
REMARK       I    between atoms: N_8  and  C_9 
REMARK    4  A    between atoms: C_9  and  C_10 
REMARK    5  A    between atoms: C_10  and  C_11 
REMARK    6  A    between atoms: N_12  and  C_13 
REMARK    7  A    between atoms: C_13  and  C_14 
REMARK    8  A    between atoms: C_14  and  C_15 
REMARK    9  A    between atoms: C_15  and  N_16 
REMARK   10  A    between atoms: C_20  and  C_21 
REMARK       I    between atoms: C_21  and  N_22 
REMARK   11  A    between atoms: N_28  and  C_29 
ROOT
HETATM    1  C   UNL     1      41.549 -14.275   4.883  1.00  0.00     0.188 C 
HETATM    2  N   UNL     1      41.030 -14.736   3.597  1.00  0.00    -0.344 N 
HETATM    3  C   UNL     1      41.336 -16.113   3.413  1.00  0.00     0.184 C 
HETATM    4  S   UNL     1      40.607 -17.032   2.220  1.00  0.00    -0.040 SA
HETATM    5  N   UNL     1      42.297 -16.463   4.363  1.00  0.00    -0.257 N 
HETATM    6  C   UNL     1      42.613 -15.337   5.108  1.00  0.00     0.254 C 
HETATM    7  O   UNL     1      43.600 -15.150   5.808  1.00  0.00    -0.270 OA
ENDROOT
BRANCH   2   8
HETATM    8  C   UNL     1      40.008 -13.960   2.877  1.00  0.00     0.128 C 
BRANCH   8   9
HETATM    9  C   UNL     1      40.441 -13.511   1.477  1.00  0.00     0.048 C 
BRANCH   9  10
HETATM   10  C   UNL     1      39.416 -13.683   0.356  1.00  0.00     0.236 C 
BRANCH  10  11
HETATM   11  N   UNL     1      40.023 -13.808  -1.028  1.00  0.00    -0.071 N 
HETATM   12  H   UNL     1      40.833 -13.171  -1.090  1.00  0.00     0.279 HD
HETATM   13  C   UNL     1      40.490 -15.216  -1.321  1.00  0.00     0.235 C 
HETATM   14  C   UNL     1      41.077 -15.305  -2.724  1.00  0.00     0.042 C 
HETATM   15  C   UNL     1      40.081 -14.855  -3.792  1.00  0.00     0.081 C 
HETATM   16  C   UNL     1      39.568 -13.450  -3.470  1.00  0.00     0.042 C 
HETATM   17  C   UNL     1      39.018 -13.313  -2.056  1.00  0.00     0.235 C 
BRANCH  15  18
HETATM   18  C   UNL     1      38.939 -15.858  -3.896  1.00  0.00     0.219 C 
HETATM   19  N   UNL     1      39.245 -17.134  -3.541  1.00  0.00    -0.370 N 
HETATM   20  H   UNL     1      40.194 -17.488  -3.551  1.00  0.00     0.159 HD
HETATM   21  H   UNL     1      38.513 -17.827  -3.668  1.00  0.00     0.159 HD
HETATM   22  O   UNL     1      37.792 -15.532  -4.173  1.00  0.00    -0.273 OA
ENDBRANCH  15  18
ENDBRANCH  10  11
ENDBRANCH   9  10
ENDBRANCH   8   9
ENDBRANCH   2   8
BRANCH   1  23
HETATM   23  C   UNL     1      42.132 -12.872   4.915  1.00  0.00     0.138 C 
BRANCH  23  24
HETATM   24  C   UNL     1      41.899 -12.246   6.279  1.00  0.00     0.224 C 
HETATM   25  N   UNL     1      43.061 -12.107   7.008  1.00  0.00    -0.327 N 
HETATM   26  H   UNL     1      43.901 -12.521   6.625  1.00  0.00     0.169 HD
HETATM   27  O   UNL     1      40.764 -11.926   6.612  1.00  0.00    -0.273 OA
BRANCH  25  28
HETATM   28  C   UNL     1      43.209 -11.608   8.317  1.00  0.00     0.034 A 
HETATM   29  C   UNL     1      42.381 -10.648   8.896  1.00  0.00     0.032 A 
HETATM   30  C   UNL     1      42.597 -10.227  10.217  1.00  0.00     0.039 A 
HETATM   31  C   UNL     1      43.646 -10.759  10.965  1.00  0.00     0.068 A 
HETATM   32  C   UNL     1      44.478 -11.713  10.383  1.00  0.00     0.039 A 
HETATM   33  C   UNL     1      44.263 -12.137   9.072  1.00  0.00     0.032 A 
BRANCH  31  34
HETATM   34  O   UNL     1      43.969 -10.443  12.254  1.00  0.00    -0.352 OA
BRANCH  34  35
HETATM   35  C   UNL     1      42.900 -10.333  13.189  1.00  0.00     0.171 C 
HETATM   36  C   UNL     1      43.199  -9.148  14.090  1.00  0.00     0.034 C 
ENDBRANCH  34  35
ENDBRANCH  31  34
ENDBRANCH  25  28
ENDBRANCH  23  24
ENDBRANCH   1  23
BRANCH   5  37
HETATM   37  C   UNL     1      42.994 -17.708   4.563  1.00  0.00     0.045 A 
HETATM   38  C   UNL     1      43.734 -18.277   3.503  1.00  0.00     0.032 A 
HETATM   39  C   UNL     1      44.422 -19.491   3.636  1.00  0.00     0.026 A 
HETATM   40  C   UNL     1      44.402 -20.163   4.847  1.00  0.00     0.034 A 
HETATM   41 CL   UNL     1      45.242 -21.650   5.023  1.00  0.00    -0.084 Cl
HETATM   42  C   UNL     1      43.693 -19.631   5.915  1.00  0.00     0.026 A 
HETATM   43  C   UNL     1      42.993 -18.422   5.770  1.00  0.00     0.032 A 
ENDBRANCH   5  37
TORSDOF 11
ENDMDL
MODEL 6
REMARK VINA RESULT:      -8.1      3.303      7.877
REMARK  11 active torsions:
REMARK  status: ('A' for Active; 'I' for Inactive)
REMARK    1  A    between atoms: C_2  and  O_3 
REMARK    2  A    between atoms: O_3  and  C_4 
REMARK    3  A    between atoms: C_7  and  N_8 
REMARK       I    between atoms: N_8  and  C_9 
REMARK    4  A    between atoms: C_9  and  C_10 
REMARK    5  A    between atoms: C_10  and  C_11 
REMARK    6  A    between atoms: N_12  and  C_13 
REMARK    7  A    between atoms: C_13  and  C_14 
REMARK    8  A    between atoms: C_14  and  C_15 
REMARK    9  A    between atoms: C_15  and  N_16 
REMARK   10  A    between atoms: C_20  and  C_21 
REMARK       I    between atoms: C_21  and  N_22 
REMARK   11  A    between atoms: N_28  and  C_29 
ROOT
HETATM    1  C   UNL     1      41.514 -14.092   4.553  1.00  0.00     0.188 C 
HETATM    2  N   UNL     1      40.825 -14.601   3.368  1.00  0.00    -0.344 N 
HETATM    3  C   UNL     1      41.105 -15.985   3.199  1.00  0.00     0.184 C 
HETATM    4  S   UNL     1      40.221 -16.947   2.153  1.00  0.00    -0.040 SA
HETATM    5  N   UNL     1      42.186 -16.301   4.023  1.00  0.00    -0.257 N 
HETATM    6  C   UNL     1      42.600 -15.149   4.673  1.00  0.00     0.254 C 
HETATM    7  O   UNL     1      43.672 -14.939   5.225  1.00  0.00    -0.270 OA
ENDROOT
BRANCH   2   8
HETATM    8  C   UNL     1      39.715 -13.848   2.764  1.00  0.00     0.128 C 
BRANCH   8   9
HETATM    9  C   UNL     1      39.931 -13.503   1.285  1.00  0.00     0.048 C 
BRANCH   9  10
HETATM   10  C   UNL     1      38.742 -13.727   0.350  1.00  0.00     0.236 C 
BRANCH  10  11
HETATM   11  N   UNL     1      39.100 -14.401  -0.960  1.00  0.00    -0.071 N 
HETATM   12  H   UNL     1      38.537 -15.263  -1.050  1.00  0.00     0.279 HD
HETATM   13  C   UNL     1      38.820 -13.513  -2.152  1.00  0.00     0.235 C 
HETATM   14  C   UNL     1      39.207 -14.218  -3.446  1.00  0.00     0.042 C 
HETATM   15  C   UNL     1      40.674 -14.647  -3.450  1.00  0.00     0.081 C 
HETATM   16  C   UNL     1      40.971 -15.503  -2.218  1.00  0.00     0.042 C 
HETATM   17  C   UNL     1      40.552 -14.849  -0.908  1.00  0.00     0.235 C 
BRANCH  15  18
HETATM   18  C   UNL     1      41.576 -13.422  -3.511  1.00  0.00     0.219 C 
HETATM   19  N   UNL     1      42.867 -13.624  -3.135  1.00  0.00    -0.370 N 
HETATM   20  H   UNL     1      43.144 -14.393  -2.535  1.00  0.00     0.159 HD
HETATM   21  H   UNL     1      43.465 -12.803  -3.108  1.00  0.00     0.159 HD
HETATM   22  O   UNL     1      41.208 -12.348  -3.969  1.00  0.00    -0.273 OA
ENDBRANCH  15  18
ENDBRANCH  10  11
ENDBRANCH   9  10
ENDBRANCH   8   9
ENDBRANCH   2   8
BRANCH   1  23
HETATM   23  C   UNL     1      42.095 -12.691   4.450  1.00  0.00     0.138 C 
BRANCH  23  24
HETATM   24  C   UNL     1      41.270 -11.726   5.284  1.00  0.00     0.224 C 
HETATM   25  N   UNL     1      41.539 -11.821   6.632  1.00  0.00    -0.327 N 
HETATM   26  H   UNL     1      42.151 -12.568   6.932  1.00  0.00     0.169 HD
HETATM   27  O   UNL     1      40.473 -10.977   4.730  1.00  0.00    -0.273 OA
BRANCH  25  28
HETATM   28  C   UNL     1      40.935 -11.113   7.689  1.00  0.00     0.034 A 
HETATM   29  C   UNL     1      39.641 -11.339   8.155  1.00  0.00     0.032 A 
HETATM   30  C   UNL     1      39.131 -10.594   9.230  1.00  0.00     0.039 A 
HETATM   31  C   UNL     1      39.911  -9.613   9.841  1.00  0.00     0.068 A 
HETATM   32  C   UNL     1      41.201  -9.381   9.369  1.00  0.00     0.039 A 
HETATM   33  C   UNL     1      41.712 -10.124   8.304  1.00  0.00     0.032 A 
BRANCH  31  34
HETATM   34  O   UNL     1      39.545  -8.819  10.889  1.00  0.00    -0.352 OA
BRANCH  34  35
HETATM   35  C   UNL     1      39.096  -9.466  12.076  1.00  0.00     0.171 C 
HETATM   36  C   UNL     1      40.297  -9.634  12.989  1.00  0.00     0.034 C 
ENDBRANCH  34  35
ENDBRANCH  31  34
ENDBRANCH  25  28
ENDBRANCH  23  24
ENDBRANCH   1  23
BRANCH   5  37
HETATM   37  C   UNL     1      42.904 -17.541   4.175  1.00  0.00     0.045 A 
HETATM   38  C   UNL     1      42.919 -18.195   5.427  1.00  0.00     0.032 A 
HETATM   39  C   UNL     1      43.611 -19.397   5.637  1.00  0.00     0.026 A 
HETATM   40  C   UNL     1      44.296 -19.988   4.587  1.00  0.00     0.034 A 
HETATM   41 CL   UNL     1      45.145 -21.460   4.831  1.00  0.00    -0.084 Cl
HETATM   42  C   UNL     1      44.297 -19.379   3.340  1.00  0.00     0.026 A 
HETATM   43  C   UNL     1      43.615 -18.167   3.141  1.00  0.00     0.032 A 
ENDBRANCH   5  37
TORSDOF 11
ENDMDL
MODEL 7
REMARK VINA RESULT:      -8.0      3.519      7.768
REMARK  11 active torsions:
REMARK  status: ('A' for Active; 'I' for Inactive)
REMARK    1  A    between atoms: C_2  and  O_3 
REMARK    2  A    between atoms: O_3  and  C_4 
REMARK    3  A    between atoms: C_7  and  N_8 
REMARK       I    between atoms: N_8  and  C_9 
REMARK    4  A    between atoms: C_9  and  C_10 
REMARK    5  A    between atoms: C_10  and  C_11 
REMARK    6  A    between atoms: N_12  and  C_13 
REMARK    7  A    between atoms: C_13  and  C_14 
REMARK    8  A    between atoms: C_14  and  C_15 
REMARK    9  A    between atoms: C_15  and  N_16 
REMARK   10  A    between atoms: C_20  and  C_21 
REMARK       I    between atoms: C_21  and  N_22 
REMARK   11  A    between atoms: N_28  and  C_29 
ROOT
HETATM    1  C   UNL     1      40.789 -12.940   5.357  1.00  0.00     0.188 C 
HETATM    2  N   UNL     1      40.151 -13.085   4.050  1.00  0.00    -0.344 N 
HETATM    3  C   UNL     1      40.442 -14.365   3.505  1.00  0.00     0.184 C 
HETATM    4  S   UNL     1      39.605 -14.982   2.193  1.00  0.00    -0.040 SA
HETATM    5  N   UNL     1      41.490 -14.913   4.247  1.00  0.00    -0.257 N 
HETATM    6  C   UNL     1      41.873 -13.997   5.214  1.00  0.00     0.254 C 
HETATM    7  O   UNL     1      42.921 -13.962   5.846  1.00  0.00    -0.270 OA
ENDROOT
BRANCH   2   8
HETATM    8  C   UNL     1      39.064 -12.182   3.641  1.00  0.00     0.128 C 
BRANCH   8   9
HETATM    9  C   UNL     1      39.475 -11.155   2.579  1.00  0.00     0.048 C 
BRANCH   9  10
HETATM   10  C   UNL     1      40.908 -11.247   2.057  1.00  0.00     0.236 C 
BRANCH  10  11
HETATM   11  N   UNL     1      41.014 -11.421   0.555  1.00  0.00    -0.071 N 
HETATM   12  H   UNL     1      41.315 -10.524   0.141  1.00  0.00     0.279 HD
HETATM   13  C   UNL     1      42.013 -12.491   0.174  1.00  0.00     0.235 C 
HETATM   14  C   UNL     1      42.079 -12.647  -1.340  1.00  0.00     0.042 C 
HETATM   15  C   UNL     1      40.713 -12.974  -1.943  1.00  0.00     0.081 C 
HETATM   16  C   UNL     1      39.688 -11.922  -1.517  1.00  0.00     0.042 C 
HETATM   17  C   UNL     1      39.631 -11.704  -0.010  1.00  0.00     0.235 C 
BRANCH  15  18
HETATM   18  C   UNL     1      40.282 -14.375  -1.529  1.00  0.00     0.219 C 
HETATM   19  N   UNL     1      38.956 -14.646  -1.666  1.00  0.00    -0.370 N 
HETATM   20  H   UNL     1      38.253 -13.917  -1.691  1.00  0.00     0.159 HD
HETATM   21  H   UNL     1      38.642 -15.552  -1.333  1.00  0.00     0.159 HD
HETATM   22  O   UNL     1      41.077 -15.244  -1.197  1.00  0.00    -0.273 OA
ENDBRANCH  15  18
ENDBRANCH  10  11
ENDBRANCH   9  10
ENDBRANCH   8   9
ENDBRANCH   2   8
BRANCH   1  23
HETATM   23  C   UNL     1      41.369 -11.573   5.681  1.00  0.00     0.138 C 
BRANCH  23  24
HETATM   24  C   UNL     1      41.313 -11.329   7.180  1.00  0.00     0.224 C 
HETATM   25  N   UNL     1      42.560 -11.150   7.738  1.00  0.00    -0.327 N 
HETATM   26  H   UNL     1      43.362 -11.304   7.141  1.00  0.00     0.169 HD
HETATM   27  O   UNL     1      40.228 -11.308   7.749  1.00  0.00    -0.273 OA
BRANCH  25  28
HETATM   28  C   UNL     1      42.882 -10.945   9.093  1.00  0.00     0.034 A 
HETATM   29  C   UNL     1      43.996 -11.488   9.733  1.00  0.00     0.032 A 
HETATM   30  C   UNL     1      44.245 -11.210  11.086  1.00  0.00     0.039 A 
HETATM   31  C   UNL     1      43.377 -10.392  11.809  1.00  0.00     0.068 A 
HETATM   32  C   UNL     1      42.261  -9.856  11.172  1.00  0.00     0.039 A 
HETATM   33  C   UNL     1      42.013 -10.127   9.826  1.00  0.00     0.032 A 
BRANCH  31  34
HETATM   34  O   UNL     1      43.497 -10.040  13.123  1.00  0.00    -0.352 OA
BRANCH  34  35
HETATM   35  C   UNL     1      42.422 -10.382  13.994  1.00  0.00     0.171 C 
HETATM   36  C   UNL     1      42.411  -9.372  15.127  1.00  0.00     0.034 C 
ENDBRANCH  34  35
ENDBRANCH  31  34
ENDBRANCH  25  28
ENDBRANCH  23  24
ENDBRANCH   1  23
BRANCH   5  37
HETATM   37  C   UNL     1      42.206 -16.150   4.068  1.00  0.00     0.045 A 
HETATM   38  C   UNL     1      43.094 -16.297   2.980  1.00  0.00     0.032 A 
HETATM   39  C   UNL     1      43.809 -17.481   2.750  1.00  0.00     0.026 A 
HETATM   40  C   UNL     1      43.665 -18.551   3.619  1.00  0.00     0.034 A 
HETATM   41 CL   UNL     1      44.535 -20.006   3.349  1.00  0.00    -0.084 Cl
HETATM   42  C   UNL     1      42.808 -18.441   4.705  1.00  0.00     0.026 A 
HETATM   43  C   UNL     1      42.084 -17.257   4.921  1.00  0.00     0.032 A 
ENDBRANCH   5  37
TORSDOF 11
ENDMDL
MODEL 8
REMARK VINA RESULT:      -7.9      3.416      9.325
REMARK  11 active torsions:
REMARK  status: ('A' for Active; 'I' for Inactive)
REMARK    1  A    between atoms: C_2  and  O_3 
REMARK    2  A    between atoms: O_3  and  C_4 
REMARK    3  A    between atoms: C_7  and  N_8 
REMARK       I    between atoms: N_8  and  C_9 
REMARK    4  A    between atoms: C_9  and  C_10 
REMARK    5  A    between atoms: C_10  and  C_11 
REMARK    6  A    between atoms: N_12  and  C_13 
REMARK    7  A    between atoms: C_13  and  C_14 
REMARK    8  A    between atoms: C_14  and  C_15 
REMARK    9  A    between atoms: C_15  and  N_16 
REMARK   10  A    between atoms: C_20  and  C_21 
REMARK       I    between atoms: C_21  and  N_22 
REMARK   11  A    between atoms: N_28  and  C_29 
ROOT
HETATM    1  C   UNL     1      41.570 -15.239   3.170  1.00  0.00     0.188 C 
HETATM    2  N   UNL     1      42.004 -14.749   4.477  1.00  0.00    -0.344 N 
HETATM    3  C   UNL     1      42.867 -15.698   5.091  1.00  0.00     0.184 C 
HETATM    4  S   UNL     1      43.802 -15.315   6.425  1.00  0.00    -0.040 SA
HETATM    5  N   UNL     1      42.746 -16.897   4.387  1.00  0.00    -0.257 N 
HETATM    6  C   UNL     1      41.812 -16.725   3.377  1.00  0.00     0.254 C 
HETATM    7  O   UNL     1      41.208 -17.588   2.753  1.00  0.00    -0.270 OA
ENDROOT
BRANCH   2   8
HETATM    8  C   UNL     1      41.869 -13.327   4.830  1.00  0.00     0.128 C 
BRANCH   8   9
HETATM    9  C   UNL     1      40.699 -13.030   5.776  1.00  0.00     0.048 C 
BRANCH   9  10
HETATM   10  C   UNL     1      39.913 -11.747   5.510  1.00  0.00     0.236 C 
BRANCH  10  11
HETATM   11  N   UNL     1      39.980 -10.731   6.633  1.00  0.00    -0.071 N 
HETATM   12  H   UNL     1      39.255 -10.013   6.469  1.00  0.00     0.279 HD
HETATM   13  C   UNL     1      39.741 -11.361   7.986  1.00  0.00     0.235 C 
HETATM   14  C   UNL     1      39.833 -10.313   9.089  1.00  0.00     0.042 C 
HETATM   15  C   UNL     1      41.179  -9.590   9.082  1.00  0.00     0.081 C 
HETATM   16  C   UNL     1      41.447  -8.995   7.698  1.00  0.00     0.042 C 
HETATM   17  C   UNL     1      41.315 -10.006   6.566  1.00  0.00     0.235 C 
BRANCH  15  18
HETATM   18  C   UNL     1      42.288 -10.546   9.504  1.00  0.00     0.219 C 
HETATM   19  N   UNL     1      41.990 -11.366  10.547  1.00  0.00    -0.370 N 
HETATM   20  H   UNL     1      41.266 -11.147  11.220  1.00  0.00     0.159 HD
HETATM   21  H   UNL     1      42.741 -11.963  10.882  1.00  0.00     0.159 HD
HETATM   22  O   UNL     1      43.339 -10.657   8.887  1.00  0.00    -0.273 OA
ENDBRANCH  15  18
ENDBRANCH  10  11
ENDBRANCH   9  10
ENDBRANCH   8   9
ENDBRANCH   2   8
BRANCH   1  23
HETATM   23  C   UNL     1      40.129 -14.947   2.781  1.00  0.00     0.138 C 
BRANCH  23  24
HETATM   24  C   UNL     1      40.092 -14.187   1.466  1.00  0.00     0.224 C 
HETATM   25  N   UNL     1      41.123 -14.534   0.620  1.00  0.00    -0.327 N 
HETATM   26  H   UNL     1      41.836 -15.151   0.986  1.00  0.00     0.169 HD
HETATM   27  O   UNL     1      39.201 -13.370   1.264  1.00  0.00    -0.273 OA
BRANCH  25  28
HETATM   28  C   UNL     1      41.418 -14.004  -0.651  1.00  0.00     0.034 A 
HETATM   29  C   UNL     1      41.127 -14.637  -1.859  1.00  0.00     0.032 A 
HETATM   30  C   UNL     1      41.442 -14.019  -3.079  1.00  0.00     0.039 A 
HETATM   31  C   UNL     1      42.055 -12.767  -3.099  1.00  0.00     0.068 A 
HETATM   32  C   UNL     1      42.352 -12.138  -1.891  1.00  0.00     0.039 A 
HETATM   33  C   UNL     1      42.036 -12.748  -0.677  1.00  0.00     0.032 A 
BRANCH  31  34
HETATM   34  O   UNL     1      42.414 -12.054  -4.206  1.00  0.00    -0.352 OA
BRANCH  34  35
HETATM   35  C   UNL     1      41.579 -10.963  -4.583  1.00  0.00     0.171 C 
HETATM   36  C   UNL     1      42.465  -9.740  -4.738  1.00  0.00     0.034 C 
ENDBRANCH  34  35
ENDBRANCH  31  34
ENDBRANCH  25  28
ENDBRANCH  23  24
ENDBRANCH   1  23
BRANCH   5  37
HETATM   37  C   UNL     1      43.345 -18.184   4.635  1.00  0.00     0.045 A 
HETATM   38  C   UNL     1      44.047 -18.843   3.602  1.00  0.00     0.032 A 
HETATM   39  C   UNL     1      44.640 -20.101   3.783  1.00  0.00     0.026 A 
HETATM   40  C   UNL     1      44.560 -20.728   5.015  1.00  0.00     0.034 A 
HETATM   41 CL   UNL     1      45.283 -22.267   5.250  1.00  0.00    -0.084 Cl
HETATM   42  C   UNL     1      43.886 -20.107   6.058  1.00  0.00     0.026 A 
HETATM   43  C   UNL     1      43.281 -18.854   5.865  1.00  0.00     0.032 A 
ENDBRANCH   5  37
TORSDOF 11
ENDMDL
MODEL 9
REMARK VINA RESULT:      -7.9      3.322      8.109
REMARK  11 active torsions:
REMARK  status: ('A' for Active; 'I' for Inactive)
REMARK    1  A    between atoms: C_2  and  O_3 
REMARK    2  A    between atoms: O_3  and  C_4 
REMARK    3  A    between atoms: C_7  and  N_8 
REMARK       I    between atoms: N_8  and  C_9 
REMARK    4  A    between atoms: C_9  and  C_10 
REMARK    5  A    between atoms: C_10  and  C_11 
REMARK    6  A    between atoms: N_12  and  C_13 
REMARK    7  A    between atoms: C_13  and  C_14 
REMARK    8  A    between atoms: C_14  and  C_15 
REMARK    9  A    between atoms: C_15  and  N_16 
REMARK   10  A    between atoms: C_20  and  C_21 
REMARK       I    between atoms: C_21  and  N_22 
REMARK   11  A    between atoms: N_28  and  C_29 
ROOT
HETATM    1  C   UNL     1      39.737 -13.875   4.224  1.00  0.00     0.188 C 
HETATM    2  N   UNL     1      40.484 -12.662   3.895  1.00  0.00    -0.344 N 
HETATM    3  C   UNL     1      40.450 -12.435   2.491  1.00  0.00     0.184 C 
HETATM    4  S   UNL     1      40.911 -10.974   1.818  1.00  0.00    -0.040 SA
HETATM    5  N   UNL     1      39.999 -13.608   1.884  1.00  0.00    -0.257 N 
HETATM    6  C   UNL     1      39.780 -14.560   2.868  1.00  0.00     0.254 C 
HETATM    7  O   UNL     1      39.683 -15.773   2.734  1.00  0.00    -0.270 OA
ENDROOT
BRANCH   2   8
HETATM    8  C   UNL     1      40.814 -11.677   4.937  1.00  0.00     0.128 C 
BRANCH   8   9
HETATM    9  C   UNL     1      39.607 -11.221   5.765  1.00  0.00     0.048 C 
BRANCH   9  10
HETATM   10  C   UNL     1      39.624  -9.775   6.260  1.00  0.00     0.236 C 
BRANCH  10  11
HETATM   11  N   UNL     1      39.778  -9.633   7.762  1.00  0.00    -0.071 N 
HETATM   12  H   UNL     1      38.953  -9.131   8.130  1.00  0.00     0.279 HD
HETATM   13  C   UNL     1      39.877 -10.974   8.453  1.00  0.00     0.235 C 
HETATM   14  C   UNL     1      40.046 -10.790   9.956  1.00  0.00     0.042 C 
HETATM   15  C   UNL     1      41.269  -9.938  10.296  1.00  0.00     0.081 C 
HETATM   16  C   UNL     1      41.196  -8.601   9.556  1.00  0.00     0.042 C 
HETATM   17  C   UNL     1      40.978  -8.747   8.056  1.00  0.00     0.235 C 
BRANCH  15  18
HETATM   18  C   UNL     1      42.545 -10.697   9.955  1.00  0.00     0.219 C 
HETATM   19  N   UNL     1      42.819 -11.769  10.745  1.00  0.00    -0.370 N 
HETATM   20  H   UNL     1      42.441 -11.865  11.680  1.00  0.00     0.159 HD
HETATM   21  H   UNL     1      43.699 -12.246  10.573  1.00  0.00     0.159 HD
HETATM   22  O   UNL     1      43.229 -10.439   8.974  1.00  0.00    -0.273 OA
ENDBRANCH  15  18
ENDBRANCH  10  11
ENDBRANCH   9  10
ENDBRANCH   8   9
ENDBRANCH   2   8
BRANCH   1  23
HETATM   23  C   UNL     1      40.316 -14.751   5.322  1.00  0.00     0.138 C 
BRANCH  23  24
HETATM   24  C   UNL     1      41.586 -15.425   4.830  1.00  0.00     0.224 C 
HETATM   25  N   UNL     1      41.437 -16.786   4.664  1.00  0.00    -0.327 N 
HETATM   26  H   UNL     1      40.570 -17.200   4.979  1.00  0.00     0.169 HD
HETATM   27  O   UNL     1      42.589 -14.752   4.627  1.00  0.00    -0.273 OA
BRANCH  25  28
HETATM   28  C   UNL     1      42.411 -17.722   4.265  1.00  0.00     0.034 A 
HETATM   29  C   UNL     1      43.402 -18.237   5.099  1.00  0.00     0.032 A 
HETATM   30  C   UNL     1      44.318 -19.184   4.615  1.00  0.00     0.039 A 
HETATM   31  C   UNL     1      44.252 -19.616   3.291  1.00  0.00     0.068 A 
HETATM   32  C   UNL     1      43.267 -19.095   2.456  1.00  0.00     0.039 A 
HETATM   33  C   UNL     1      42.352 -18.157   2.936  1.00  0.00     0.032 A 
BRANCH  31  34
HETATM   34  O   UNL     1      45.074 -20.526   2.691  1.00  0.00    -0.352 OA
BRANCH  34  35
HETATM   35  C   UNL     1      44.506 -21.781   2.326  1.00  0.00     0.171 C 
HETATM   36  C   UNL     1      44.609 -22.699   3.530  1.00  0.00     0.034 C 
ENDBRANCH  34  35
ENDBRANCH  31  34
ENDBRANCH  25  28
ENDBRANCH  23  24
ENDBRANCH   1  23
BRANCH   5  37
HETATM   37  C   UNL     1      39.850 -13.932   0.488  1.00  0.00     0.045 A 
HETATM   38  C   UNL     1      40.894 -14.594  -0.194  1.00  0.00     0.032 A 
HETATM   39  C   UNL     1      40.809 -14.924  -1.555  1.00  0.00     0.026 A 
HETATM   40  C   UNL     1      39.663 -14.613  -2.267  1.00  0.00     0.034 A 
HETATM   41 CL   UNL     1      39.547 -15.014  -3.933  1.00  0.00    -0.084 Cl
HETATM   42  C   UNL     1      38.611 -13.971  -1.628  1.00  0.00     0.026 A 
HETATM   43  C   UNL     1      38.709 -13.630  -0.269  1.00  0.00     0.032 A 
ENDBRANCH   5  37
TORSDOF 11
ENDMDL
MODEL 10
REMARK VINA RESULT:      -7.6      3.879      9.341
REMARK  11 active torsions:
REMARK  status: ('A' for Active; 'I' for Inactive)
REMARK    1  A    between atoms: C_2  and  O_3 
REMARK    2  A    between atoms: O_3  and  C_4 
REMARK    3  A    between atoms: C_7  and  N_8 
REMARK       I    between atoms: N_8  and  C_9 
REMARK    4  A    between atoms: C_9  and  C_10 
REMARK    5  A    between atoms: C_10  and  C_11 
REMARK    6  A    between atoms: N_12  and  C_13 
REMARK    7  A    between atoms: C_13  and  C_14 
REMARK    8  A    between atoms: C_14  and  C_15 
REMARK    9  A    between atoms: C_15  and  N_16 
REMARK   10  A    between atoms: C_20  and  C_21 
REMARK       I    between atoms: C_21  and  N_22 
REMARK   11  A    between atoms: N_28  and  C_29 
ROOT
HETATM    1  C   UNL     1      40.057 -12.216   2.965  1.00  0.00     0.188 C 
HETATM    2  N   UNL     1      39.993 -13.632   2.609  1.00  0.00    -0.344 N 
HETATM    3  C   UNL     1      40.527 -13.832   1.307  1.00  0.00     0.184 C 
HETATM    4  S   UNL     1      40.913 -15.354   0.729  1.00  0.00    -0.040 SA
HETATM    5  N   UNL     1      40.627 -12.581   0.695  1.00  0.00    -0.257 N 
HETATM    6  C   UNL     1      40.144 -11.621   1.570  1.00  0.00     0.254 C 
HETATM    7  O   UNL     1      39.780 -10.480   1.311  1.00  0.00    -0.270 OA
ENDROOT
BRANCH   2   8
HETATM    8  C   UNL     1      39.796 -14.659   3.645  1.00  0.00     0.128 C 
BRANCH   8   9
HETATM    9  C   UNL     1      41.067 -15.001   4.431  1.00  0.00     0.048 C 
BRANCH   9  10
HETATM   10  C   UNL     1      41.500 -16.467   4.430  1.00  0.00     0.236 C 
BRANCH  10  11
HETATM   11  N   UNL     1      42.909 -16.700   4.937  1.00  0.00    -0.071 N 
HETATM   12  H   UNL     1      43.569 -16.214   4.307  1.00  0.00     0.279 HD
HETATM   13  C   UNL     1      43.104 -16.176   6.342  1.00  0.00     0.235 C 
HETATM   14  C   UNL     1      44.525 -16.443   6.821  1.00  0.00     0.042 C 
HETATM   15  C   UNL     1      44.879 -17.929   6.767  1.00  0.00     0.081 C 
HETATM   16  C   UNL     1      44.634 -18.474   5.358  1.00  0.00     0.042 C 
HETATM   17  C   UNL     1      43.237 -18.181   4.828  1.00  0.00     0.235 C 
BRANCH  15  18
HETATM   18  C   UNL     1      44.077 -18.695   7.810  1.00  0.00     0.219 C 
HETATM   19  N   UNL     1      43.818 -18.021   8.963  1.00  0.00    -0.370 N 
HETATM   20  H   UNL     1      44.384 -17.240   9.273  1.00  0.00     0.159 HD
HETATM   21  H   UNL     1      43.342 -18.541   9.694  1.00  0.00     0.159 HD
HETATM   22  O   UNL     1      43.596 -19.801   7.599  1.00  0.00    -0.273 OA
ENDBRANCH  15  18
ENDBRANCH  10  11
ENDBRANCH   9  10
ENDBRANCH   8   9
ENDBRANCH   2   8
BRANCH   1  23
HETATM   23  C   UNL     1      38.878 -11.660   3.748  1.00  0.00     0.138 C 
BRANCH  23  24
HETATM   24  C   UNL     1      39.378 -10.875   4.948  1.00  0.00     0.224 C 
HETATM   25  N   UNL     1      39.830 -11.687   5.966  1.00  0.00    -0.327 N 
HETATM   26  H   UNL     1      39.686 -12.683   5.864  1.00  0.00     0.169 HD
HETATM   27  O   UNL     1      39.347  -9.650   4.925  1.00  0.00    -0.273 OA
BRANCH  25  28
HETATM   28  C   UNL     1      40.320 -11.302   7.229  1.00  0.00     0.034 A 
HETATM   29  C   UNL     1      39.549 -11.230   8.388  1.00  0.00     0.032 A 
HETATM   30  C   UNL     1      40.132 -10.854   9.609  1.00  0.00     0.039 A 
HETATM   31  C   UNL     1      41.489 -10.543   9.675  1.00  0.00     0.068 A 
HETATM   32  C   UNL     1      42.258 -10.608   8.515  1.00  0.00     0.039 A 
HETATM   33  C   UNL     1      41.682 -10.985   7.302  1.00  0.00     0.032 A 
BRANCH  31  34
HETATM   34  O   UNL     1      42.183 -10.165  10.789  1.00  0.00    -0.352 OA
BRANCH  34  35
HETATM   35  C   UNL     1      42.904 -11.177  11.486  1.00  0.00     0.171 C 
HETATM   36  C   UNL     1      42.604 -11.018  12.965  1.00  0.00     0.034 C 
ENDBRANCH  34  35
ENDBRANCH  31  34
ENDBRANCH  25  28
ENDBRANCH  23  24
ENDBRANCH   1  23
BRANCH   5  37
HETATM   37  C   UNL     1      41.037 -12.232  -0.642  1.00  0.00     0.045 A 
HETATM   38  C   UNL     1      42.360 -11.802  -0.881  1.00  0.00     0.032 A 
HETATM   39  C   UNL     1      42.812 -11.439  -2.158  1.00  0.00     0.026 A 
HETATM   40  C   UNL     1      41.949 -11.513  -3.238  1.00  0.00     0.034 A 
HETATM   41 CL   UNL     1      42.490 -11.072  -4.807  1.00  0.00    -0.084 Cl
HETATM   42  C   UNL     1      40.642 -11.940  -3.045  1.00  0.00     0.026 A 
HETATM   43  C   UNL     1      40.193 -12.287  -1.760  1.00  0.00     0.032 A 
ENDBRANCH   5  37
TORSDOF 11
ENDMDL
