MODEL 1
REMARK VINA RESULT:      -7.6      0.000      0.000
REMARK  8 active torsions:
REMARK  status: ('A' for Active; 'I' for Inactive)
REMARK    1  A    between atoms: C_2  and  O_3 
REMARK    2  A    between atoms: O_3  and  C_4 
REMARK    3  A    between atoms: C_5  and  O_6 
REMARK    4  A    between atoms: C_9  and  C_10 
REMARK    5  A    between atoms: C_10  and  N_11 
REMARK       I    between atoms: N_11  and  C_12 
REMARK    6  A    between atoms: C_12  and  C_13 
REMARK    7  A    between atoms: C_14  and  N_15 
REMARK       I    between atoms: N_15  and  C_16 
REMARK    8  A    between atoms: C_16  and  C_17 
ROOT
HETATM    1  C   UNL     1      43.871 -19.548   2.384  1.00  0.00     0.058 A 
HETATM    2  C   UNL     1      44.196 -19.561   3.764  1.00  0.00     0.050 A 
HETATM    3  C   UNL     1      44.489 -20.787   4.372  1.00  0.00     0.030 A 
HETATM    4  C   UNL     1      44.482 -21.976   3.636  1.00  0.00     0.002 A 
HETATM    5  C   UNL     1      44.190 -21.957   2.277  1.00  0.00     0.001 A 
HETATM    6  C   UNL     1      43.891 -20.749   1.650  1.00  0.00     0.019 A 
ENDROOT
BRANCH   1   7
HETATM    7  C   UNL     1      43.560 -18.259   1.688  1.00  0.00     0.254 C 
HETATM    8  N   UNL     1      42.255 -18.051   1.295  1.00  0.00    -0.353 N 
HETATM    9  H   UNL     1      41.523 -18.682   1.588  1.00  0.00     0.163 HD
HETATM   10  O   UNL     1      44.445 -17.426   1.513  1.00  0.00    -0.268 OA
BRANCH   8  11
HETATM   11  C   UNL     1      41.861 -16.874   0.555  1.00  0.00     0.161 C 
BRANCH  11  12
HETATM   12  C   UNL     1      41.343 -15.797   1.472  1.00  0.00    -0.038 A 
HETATM   13  C   UNL     1      41.726 -14.457   1.302  1.00  0.00     0.048 A 
HETATM   14  C   UNL     1      41.269 -13.446   2.166  1.00  0.00     0.102 A 
HETATM   15  C   UNL     1      40.406 -13.794   3.221  1.00  0.00     0.102 A 
HETATM   16  C   UNL     1      40.013 -15.131   3.375  1.00  0.00     0.040 A 
HETATM   17  C   UNL     1      40.478 -16.125   2.517  1.00  0.00     0.012 A 
BRANCH  14  18
HETATM   18  O   UNL     1      41.601 -12.127   2.010  1.00  0.00    -0.353 OA
HETATM   19  C   UNL     1      40.827 -11.336   1.119  1.00  0.00     0.210 C 
ENDBRANCH  14  18
BRANCH  15  20
HETATM   20  O   UNL     1      39.842 -12.979   4.167  1.00  0.00    -0.349 OA
BRANCH  20  21
HETATM   21  C   UNL     1      40.537 -12.765   5.391  1.00  0.00     0.171 C 
HETATM   22  C   UNL     1      39.507 -12.723   6.508  1.00  0.00     0.034 C 
ENDBRANCH  20  21
ENDBRANCH  15  20
ENDBRANCH  11  12
ENDBRANCH   8  11
ENDBRANCH   1   7
BRANCH   2  23
HETATM   23  N   UNL     1      44.201 -18.345   4.489  1.00  0.00    -0.321 N 
HETATM   24  C   UNL     1      43.147 -17.700   5.101  1.00  0.00     0.265 C 
HETATM   25  O   UNL     1      41.986 -18.086   5.183  1.00  0.00    -0.267 OA
HETATM   26  H   UNL     1      45.123 -17.921   4.620  1.00  0.00     0.169 HD
BRANCH  24  27
HETATM   27  C   UNL     1      43.562 -16.405   5.740  1.00  0.00     0.097 C 
HETATM   28  S   UNL     1      43.609 -15.036   4.666  1.00  0.00    -0.120 SA
HETATM   29  C   UNL     1      44.361 -13.813   5.769  1.00  0.00     0.106 C 
HETATM   30  C   UNL     1      43.769 -13.971   7.156  1.00  0.00     0.185 C 
HETATM   31  O   UNL     1      44.171 -15.203   7.762  1.00  0.00    -0.353 OA
HETATM   32  C   UNL     1      43.848 -16.355   7.059  1.00  0.00     0.064 C 
HETATM   33  C   UNL     1      43.897 -17.568   7.951  1.00  0.00     0.078 C 
ENDBRANCH  24  27
ENDBRANCH   2  23
TORSDOF 8
ENDMDL
MODEL 2
REMARK VINA RESULT:      -7.5      2.436      6.800
REMARK  8 active torsions:
REMARK  status: ('A' for Active; 'I' for Inactive)
REMARK    1  A    between atoms: C_2  and  O_3 
REMARK    2  A    between atoms: O_3  and  C_4 
REMARK    3  A    between atoms: C_5  and  O_6 
REMARK    4  A    between atoms: C_9  and  C_10 
REMARK    5  A    between atoms: C_10  and  N_11 
REMARK       I    between atoms: N_11  and  C_12 
REMARK    6  A    between atoms: C_12  and  C_13 
REMARK    7  A    between atoms: C_14  and  N_15 
REMARK       I    between atoms: N_15  and  C_16 
REMARK    8  A    between atoms: C_16  and  C_17 
ROOT
HETATM    1  C   UNL     1      41.763 -13.706  -0.467  1.00  0.00     0.058 A 
HETATM    2  C   UNL     1      41.868 -12.513   0.291  1.00  0.00     0.050 A 
HETATM    3  C   UNL     1      42.420 -11.379  -0.316  1.00  0.00     0.030 A 
HETATM    4  C   UNL     1      42.844 -11.410  -1.648  1.00  0.00     0.002 A 
HETATM    5  C   UNL     1      42.716 -12.574  -2.397  1.00  0.00     0.001 A 
HETATM    6  C   UNL     1      42.173 -13.716  -1.813  1.00  0.00     0.019 A 
ENDROOT
BRANCH   1   7
HETATM    7  C   UNL     1      41.170 -14.942   0.137  1.00  0.00     0.254 C 
HETATM    8  N   UNL     1      42.019 -16.004   0.364  1.00  0.00    -0.353 N 
HETATM    9  H   UNL     1      43.016 -15.900   0.252  1.00  0.00     0.163 HD
HETATM   10  O   UNL     1      39.979 -14.969   0.435  1.00  0.00    -0.268 OA
BRANCH   8  11
HETATM   11  C   UNL     1      41.536 -17.267   0.877  1.00  0.00     0.161 C 
BRANCH  11  12
HETATM   12  C   UNL     1      42.456 -17.815   1.936  1.00  0.00    -0.038 A 
HETATM   13  C   UNL     1      43.030 -19.090   1.806  1.00  0.00     0.048 A 
HETATM   14  C   UNL     1      43.872 -19.623   2.800  1.00  0.00     0.102 A 
HETATM   15  C   UNL     1      44.141 -18.852   3.945  1.00  0.00     0.102 A 
HETATM   16  C   UNL     1      43.580 -17.572   4.061  1.00  0.00     0.040 A 
HETATM   17  C   UNL     1      42.742 -17.058   3.074  1.00  0.00     0.012 A 
BRANCH  14  18
HETATM   18  O   UNL     1      44.468 -20.850   2.689  1.00  0.00    -0.353 OA
HETATM   19  C   UNL     1      43.947 -21.772   1.741  1.00  0.00     0.210 C 
ENDBRANCH  14  18
BRANCH  15  20
HETATM   20  O   UNL     1      44.928 -19.168   5.021  1.00  0.00    -0.349 OA
BRANCH  20  21
HETATM   21  C   UNL     1      44.315 -19.325   6.297  1.00  0.00     0.171 C 
HETATM   22  C   UNL     1      43.885 -20.777   6.430  1.00  0.00     0.034 C 
ENDBRANCH  20  21
ENDBRANCH  15  20
ENDBRANCH  11  12
ENDBRANCH   8  11
ENDBRANCH   1   7
BRANCH   2  23
HETATM   23  N   UNL     1      41.427 -12.502   1.637  1.00  0.00    -0.321 N 
HETATM   24  C   UNL     1      42.091 -12.935   2.766  1.00  0.00     0.265 C 
HETATM   25  O   UNL     1      43.233 -13.374   2.834  1.00  0.00    -0.267 OA
HETATM   26  H   UNL     1      40.517 -12.063   1.793  1.00  0.00     0.169 HD
BRANCH  24  27
HETATM   27  C   UNL     1      41.260 -12.787   4.010  1.00  0.00     0.097 C 
HETATM   28  S   UNL     1      41.453 -11.273   4.847  1.00  0.00    -0.120 SA
HETATM   29  C   UNL     1      40.493 -11.631   6.339  1.00  0.00     0.106 C 
HETATM   30  C   UNL     1      39.247 -12.403   5.950  1.00  0.00     0.185 C 
HETATM   31  O   UNL     1      39.566 -13.716   5.482  1.00  0.00    -0.353 OA
HETATM   32  C   UNL     1      40.426 -13.777   4.395  1.00  0.00     0.064 C 
HETATM   33  C   UNL     1      40.346 -15.118   3.713  1.00  0.00     0.078 C 
ENDBRANCH  24  27
ENDBRANCH   2  23
TORSDOF 8
ENDMDL
MODEL 3
REMARK VINA RESULT:      -7.3      3.245      7.969
REMARK  8 active torsions:
REMARK  status: ('A' for Active; 'I' for Inactive)
REMARK    1  A    between atoms: C_2  and  O_3 
REMARK    2  A    between atoms: O_3  and  C_4 
REMARK    3  A    between atoms: C_5  and  O_6 
REMARK    4  A    between atoms: C_9  and  C_10 
REMARK    5  A    between atoms: C_10  and  N_11 
REMARK       I    between atoms: N_11  and  C_12 
REMARK    6  A    between atoms: C_12  and  C_13 
REMARK    7  A    between atoms: C_14  and  N_15 
REMARK       I    between atoms: N_15  and  C_16 
REMARK    8  A    between atoms: C_16  and  C_17 
ROOT
HETATM    1  C   UNL     1      40.621 -15.000  -0.794  1.00  0.00     0.058 A 
HETATM    2  C   UNL     1      39.679 -13.994  -1.121  1.00  0.00     0.050 A 
HETATM    3  C   UNL     1      39.254 -13.879  -2.450  1.00  0.00     0.030 A 
HETATM    4  C   UNL     1      39.731 -14.747  -3.436  1.00  0.00     0.002 A 
HETATM    5  C   UNL     1      40.635 -15.751  -3.108  1.00  0.00     0.001 A 
HETATM    6  C   UNL     1      41.076 -15.882  -1.793  1.00  0.00     0.019 A 
ENDROOT
BRANCH   1   7
HETATM    7  C   UNL     1      41.099 -15.167   0.615  1.00  0.00     0.254 C 
HETATM    8  N   UNL     1      40.750 -16.331   1.267  1.00  0.00    -0.353 N 
HETATM    9  H   UNL     1      40.309 -17.089   0.767  1.00  0.00     0.163 HD
HETATM   10  O   UNL     1      41.797 -14.300   1.134  1.00  0.00    -0.268 OA
BRANCH   8  11
HETATM   11  C   UNL     1      41.099 -16.561   2.651  1.00  0.00     0.161 C 
BRANCH  11  12
HETATM   12  C   UNL     1      42.123 -17.658   2.782  1.00  0.00    -0.038 A 
HETATM   13  C   UNL     1      42.786 -17.887   3.999  1.00  0.00     0.048 A 
HETATM   14  C   UNL     1      43.761 -18.892   4.128  1.00  0.00     0.102 A 
HETATM   15  C   UNL     1      44.071 -19.684   3.007  1.00  0.00     0.102 A 
HETATM   16  C   UNL     1      43.393 -19.463   1.800  1.00  0.00     0.040 A 
HETATM   17  C   UNL     1      42.434 -18.460   1.682  1.00  0.00     0.012 A 
BRANCH  14  18
HETATM   18  O   UNL     1      44.404 -19.158   5.307  1.00  0.00    -0.353 OA
HETATM   19  C   UNL     1      43.626 -19.274   6.490  1.00  0.00     0.210 C 
ENDBRANCH  14  18
BRANCH  15  20
HETATM   20  O   UNL     1      44.973 -20.711   2.910  1.00  0.00    -0.349 OA
BRANCH  20  21
HETATM   21  C   UNL     1      44.490 -22.051   2.907  1.00  0.00     0.171 C 
HETATM   22  C   UNL     1      44.671 -22.612   4.308  1.00  0.00     0.034 C 
ENDBRANCH  20  21
ENDBRANCH  15  20
ENDBRANCH  11  12
ENDBRANCH   8  11
ENDBRANCH   1   7
BRANCH   2  23
HETATM   23  N   UNL     1      39.205 -13.127  -0.106  1.00  0.00    -0.321 N 
HETATM   24  C   UNL     1      38.154 -13.314   0.767  1.00  0.00     0.265 C 
HETATM   25  O   UNL     1      37.443 -14.307   0.873  1.00  0.00    -0.267 OA
HETATM   26  H   UNL     1      39.754 -12.275   0.029  1.00  0.00     0.169 HD
BRANCH  24  27
HETATM   27  C   UNL     1      37.948 -12.134   1.674  1.00  0.00     0.097 C 
HETATM   28  S   UNL     1      39.042 -12.044   3.025  1.00  0.00    -0.120 SA
HETATM   29  C   UNL     1      38.292 -10.666   3.928  1.00  0.00     0.106 C 
HETATM   30  C   UNL     1      37.846  -9.610   2.935  1.00  0.00     0.185 C 
HETATM   31  O   UNL     1      36.753 -10.069   2.135  1.00  0.00    -0.353 OA
HETATM   32  C   UNL     1      36.982 -11.228   1.406  1.00  0.00     0.064 C 
HETATM   33  C   UNL     1      35.983 -11.375   0.289  1.00  0.00     0.078 C 
ENDBRANCH  24  27
ENDBRANCH   2  23
TORSDOF 8
ENDMDL
MODEL 4
REMARK VINA RESULT:      -7.3      2.343      6.598
REMARK  8 active torsions:
REMARK  status: ('A' for Active; 'I' for Inactive)
REMARK    1  A    between atoms: C_2  and  O_3 
REMARK    2  A    between atoms: O_3  and  C_4 
REMARK    3  A    between atoms: C_5  and  O_6 
REMARK    4  A    between atoms: C_9  and  C_10 
REMARK    5  A    between atoms: C_10  and  N_11 
REMARK       I    between atoms: N_11  and  C_12 
REMARK    6  A    between atoms: C_12  and  C_13 
REMARK    7  A    between atoms: C_14  and  N_15 
REMARK       I    between atoms: N_15  and  C_16 
REMARK    8  A    between atoms: C_16  and  C_17 
ROOT
HETATM    1  C   UNL     1      41.815 -13.518  -0.508  1.00  0.00     0.058 A 
HETATM    2  C   UNL     1      41.933 -12.355   0.293  1.00  0.00     0.050 A 
HETATM    3  C   UNL     1      42.521 -11.213  -0.264  1.00  0.00     0.030 A 
HETATM    4  C   UNL     1      42.968 -11.207  -1.588  1.00  0.00     0.002 A 
HETATM    5  C   UNL     1      42.827 -12.341  -2.380  1.00  0.00     0.001 A 
HETATM    6  C   UNL     1      42.249 -13.491  -1.847  1.00  0.00     0.019 A 
ENDROOT
BRANCH   1   7
HETATM    7  C   UNL     1      41.185 -14.760   0.041  1.00  0.00     0.254 C 
HETATM    8  N   UNL     1      42.029 -15.781   0.427  1.00  0.00    -0.353 N 
HETATM    9  H   UNL     1      43.027 -15.638   0.461  1.00  0.00     0.163 HD
HETATM   10  O   UNL     1      39.965 -14.828   0.161  1.00  0.00    -0.268 OA
BRANCH   8  11
HETATM   11  C   UNL     1      41.522 -17.048   0.904  1.00  0.00     0.161 C 
BRANCH  11  12
HETATM   12  C   UNL     1      42.431 -17.643   1.947  1.00  0.00    -0.038 A 
HETATM   13  C   UNL     1      42.687 -16.969   3.152  1.00  0.00     0.048 A 
HETATM   14  C   UNL     1      43.552 -17.503   4.124  1.00  0.00     0.102 A 
HETATM   15  C   UNL     1      44.168 -18.744   3.876  1.00  0.00     0.102 A 
HETATM   16  C   UNL     1      43.894 -19.420   2.679  1.00  0.00     0.040 A 
HETATM   17  C   UNL     1      43.040 -18.878   1.720  1.00  0.00     0.012 A 
BRANCH  14  18
HETATM   18  O   UNL     1      43.801 -16.884   5.319  1.00  0.00    -0.353 OA
HETATM   19  C   UNL     1      43.184 -15.629   5.571  1.00  0.00     0.210 C 
ENDBRANCH  14  18
BRANCH  15  20
HETATM   20  O   UNL     1      45.032 -19.444   4.677  1.00  0.00    -0.349 OA
BRANCH  20  21
HETATM   21  C   UNL     1      44.610 -20.694   5.212  1.00  0.00     0.171 C 
HETATM   22  C   UNL     1      43.837 -20.413   6.491  1.00  0.00     0.034 C 
ENDBRANCH  20  21
ENDBRANCH  15  20
ENDBRANCH  11  12
ENDBRANCH   8  11
ENDBRANCH   1   7
BRANCH   2  23
HETATM   23  N   UNL     1      41.468 -12.381   1.631  1.00  0.00    -0.321 N 
HETATM   24  C   UNL     1      42.065 -12.940   2.741  1.00  0.00     0.265 C 
HETATM   25  O   UNL     1      43.160 -13.488   2.799  1.00  0.00    -0.267 OA
HETATM   26  H   UNL     1      40.600 -11.867   1.799  1.00  0.00     0.169 HD
BRANCH  24  27
HETATM   27  C   UNL     1      41.228 -12.786   3.979  1.00  0.00     0.097 C 
HETATM   28  S   UNL     1      41.573 -11.370   4.931  1.00  0.00    -0.120 SA
HETATM   29  C   UNL     1      40.542 -11.720   6.376  1.00  0.00     0.106 C 
HETATM   30  C   UNL     1      39.226 -12.311   5.912  1.00  0.00     0.185 C 
HETATM   31  O   UNL     1      39.403 -13.615   5.352  1.00  0.00    -0.353 OA
HETATM   32  C   UNL     1      40.276 -13.698   4.277  1.00  0.00     0.064 C 
HETATM   33  C   UNL     1      40.059 -14.967   3.495  1.00  0.00     0.078 C 
ENDBRANCH  24  27
ENDBRANCH   2  23
TORSDOF 8
ENDMDL
MODEL 5
REMARK VINA RESULT:      -7.3      1.573      4.431
REMARK  8 active torsions:
REMARK  status: ('A' for Active; 'I' for Inactive)
REMARK    1  A    between atoms: C_2  and  O_3 
REMARK    2  A    between atoms: O_3  and  C_4 
REMARK    3  A    between atoms: C_5  and  O_6 
REMARK    4  A    between atoms: C_9  and  C_10 
REMARK    5  A    between atoms: C_10  and  N_11 
REMARK       I    between atoms: N_11  and  C_12 
REMARK    6  A    between atoms: C_12  and  C_13 
REMARK    7  A    between atoms: C_14  and  N_15 
REMARK       I    between atoms: N_15  and  C_16 
REMARK    8  A    between atoms: C_16  and  C_17 
ROOT
HETATM    1  C   UNL     1      44.270 -20.152   4.128  1.00  0.00     0.058 A 
HETATM    2  C   UNL     1      43.719 -19.759   2.883  1.00  0.00     0.050 A 
HETATM    3  C   UNL     1      43.671 -20.696   1.845  1.00  0.00     0.030 A 
HETATM    4  C   UNL     1      44.137 -22.001   2.030  1.00  0.00     0.002 A 
HETATM    5  C   UNL     1      44.652 -22.392   3.260  1.00  0.00     0.001 A 
HETATM    6  C   UNL     1      44.715 -21.476   4.308  1.00  0.00     0.019 A 
ENDROOT
BRANCH   1   7
HETATM    7  C   UNL     1      44.335 -19.187   5.271  1.00  0.00     0.254 C 
HETATM    8  N   UNL     1      43.396 -19.326   6.271  1.00  0.00    -0.353 N 
HETATM    9  H   UNL     1      42.781 -20.127   6.292  1.00  0.00     0.163 HD
HETATM   10  O   UNL     1      45.219 -18.335   5.306  1.00  0.00    -0.268 OA
BRANCH   8  11
HETATM   11  C   UNL     1      43.326 -18.405   7.383  1.00  0.00     0.161 C 
BRANCH  11  12
HETATM   12  C   UNL     1      42.774 -17.070   6.954  1.00  0.00    -0.038 A 
HETATM   13  C   UNL     1      43.562 -15.909   7.017  1.00  0.00     0.048 A 
HETATM   14  C   UNL     1      43.052 -14.653   6.643  1.00  0.00     0.102 A 
HETATM   15  C   UNL     1      41.722 -14.568   6.193  1.00  0.00     0.102 A 
HETATM   16  C   UNL     1      40.946 -15.733   6.116  1.00  0.00     0.040 A 
HETATM   17  C   UNL     1      41.460 -16.971   6.496  1.00  0.00     0.012 A 
BRANCH  14  18
HETATM   18  O   UNL     1      43.803 -13.509   6.666  1.00  0.00    -0.353 OA
HETATM   19  C   UNL     1      44.928 -13.456   7.533  1.00  0.00     0.210 C 
ENDBRANCH  14  18
BRANCH  15  20
HETATM   20  O   UNL     1      41.030 -13.460   5.778  1.00  0.00    -0.349 OA
BRANCH  20  21
HETATM   21  C   UNL     1      39.636 -13.378   6.055  1.00  0.00     0.171 C 
HETATM   22  C   UNL     1      39.424 -12.234   7.033  1.00  0.00     0.034 C 
ENDBRANCH  20  21
ENDBRANCH  15  20
ENDBRANCH  11  12
ENDBRANCH   8  11
ENDBRANCH   1   7
BRANCH   2  23
HETATM   23  N   UNL     1      43.248 -18.433   2.718  1.00  0.00    -0.321 N 
HETATM   24  C   UNL     1      43.767 -17.424   1.936  1.00  0.00     0.265 C 
HETATM   25  O   UNL     1      44.725 -17.492   1.174  1.00  0.00    -0.267 OA
HETATM   26  H   UNL     1      42.374 -18.219   3.205  1.00  0.00     0.169 HD
BRANCH  24  27
HETATM   27  C   UNL     1      42.992 -16.143   2.066  1.00  0.00     0.097 C 
HETATM   28  S   UNL     1      43.787 -14.892   2.979  1.00  0.00    -0.120 SA
HETATM   29  C   UNL     1      42.441 -13.686   3.072  1.00  0.00     0.106 C 
HETATM   30  C   UNL     1      41.724 -13.642   1.737  1.00  0.00     0.185 C 
HETATM   31  O   UNL     1      41.015 -14.858   1.480  1.00  0.00    -0.353 OA
HETATM   32  C   UNL     1      41.781 -16.015   1.482  1.00  0.00     0.064 C 
HETATM   33  C   UNL     1      41.067 -17.141   0.781  1.00  0.00     0.078 C 
ENDBRANCH  24  27
ENDBRANCH   2  23
TORSDOF 8
ENDMDL
MODEL 6
REMARK VINA RESULT:      -7.3      3.879      8.777
REMARK  8 active torsions:
REMARK  status: ('A' for Active; 'I' for Inactive)
REMARK    1  A    between atoms: C_2  and  O_3 
REMARK    2  A    between atoms: O_3  and  C_4 
REMARK    3  A    between atoms: C_5  and  O_6 
REMARK    4  A    between atoms: C_9  and  C_10 
REMARK    5  A    between atoms: C_10  and  N_11 
REMARK       I    between atoms: N_11  and  C_12 
REMARK    6  A    between atoms: C_12  and  C_13 
REMARK    7  A    between atoms: C_14  and  N_15 
REMARK       I    between atoms: N_15  and  C_16 
REMARK    8  A    between atoms: C_16  and  C_17 
ROOT
HETATM    1  C   UNL     1      43.793 -10.959  10.424  1.00  0.00     0.058 A 
HETATM    2  C   UNL     1      42.396 -10.776  10.274  1.00  0.00     0.050 A 
HETATM    3  C   UNL     1      41.671 -10.243  11.346  1.00  0.00     0.030 A 
HETATM    4  C   UNL     1      42.307  -9.879  12.536  1.00  0.00     0.002 A 
HETATM    5  C   UNL     1      43.682 -10.034  12.670  1.00  0.00     0.001 A 
HETATM    6  C   UNL     1      44.425 -10.566  11.619  1.00  0.00     0.019 A 
ENDROOT
BRANCH   1   7
HETATM    7  C   UNL     1      44.613 -11.517   9.301  1.00  0.00     0.254 C 
HETATM    8  N   UNL     1      44.252 -12.752   8.807  1.00  0.00    -0.353 N 
HETATM    9  H   UNL     1      43.393 -13.193   9.101  1.00  0.00     0.163 HD
HETATM   10  O   UNL     1      45.546 -10.865   8.839  1.00  0.00    -0.268 OA
BRANCH   8  11
HETATM   11  C   UNL     1      45.018 -13.411   7.773  1.00  0.00     0.161 C 
BRANCH  11  12
HETATM   12  C   UNL     1      44.174 -14.403   7.016  1.00  0.00    -0.038 A 
HETATM   13  C   UNL     1      43.850 -15.651   7.573  1.00  0.00     0.048 A 
HETATM   14  C   UNL     1      43.083 -16.595   6.867  1.00  0.00     0.102 A 
HETATM   15  C   UNL     1      42.632 -16.272   5.574  1.00  0.00     0.102 A 
HETATM   16  C   UNL     1      42.944 -15.018   5.030  1.00  0.00     0.040 A 
HETATM   17  C   UNL     1      43.710 -14.094   5.736  1.00  0.00     0.012 A 
BRANCH  14  18
HETATM   18  O   UNL     1      42.726 -17.807   7.394  1.00  0.00    -0.353 OA
HETATM   19  C   UNL     1      43.740 -18.784   7.586  1.00  0.00     0.210 C 
ENDBRANCH  14  18
BRANCH  15  20
HETATM   20  O   UNL     1      41.876 -17.031   4.719  1.00  0.00    -0.349 OA
BRANCH  20  21
HETATM   21  C   UNL     1      42.456 -17.469   3.495  1.00  0.00     0.171 C 
HETATM   22  C   UNL     1      43.433 -18.588   3.819  1.00  0.00     0.034 C 
ENDBRANCH  20  21
ENDBRANCH  15  20
ENDBRANCH  11  12
ENDBRANCH   8  11
ENDBRANCH   1   7
BRANCH   2  23
HETATM   23  N   UNL     1      41.772 -11.147   9.058  1.00  0.00    -0.321 N 
HETATM   24  C   UNL     1      41.558 -10.385   7.929  1.00  0.00     0.265 C 
HETATM   25  O   UNL     1      41.918  -9.230   7.733  1.00  0.00    -0.267 OA
HETATM   26  H   UNL     1      41.494 -12.130   8.995  1.00  0.00     0.169 HD
BRANCH  24  27
HETATM   27  C   UNL     1      40.822 -11.141   6.859  1.00  0.00     0.097 C 
HETATM   28  S   UNL     1      41.560 -11.091   5.283  1.00  0.00    -0.120 SA
HETATM   29  C   UNL     1      40.258 -11.894   4.316  1.00  0.00     0.106 C 
HETATM   30  C   UNL     1      39.692 -13.052   5.115  1.00  0.00     0.185 C 
HETATM   31  O   UNL     1      38.970 -12.596   6.262  1.00  0.00    -0.353 OA
HETATM   32  C   UNL     1      39.687 -11.811   7.155  1.00  0.00     0.064 C 
HETATM   33  C   UNL     1      39.012 -11.762   8.500  1.00  0.00     0.078 C 
ENDBRANCH  24  27
ENDBRANCH   2  23
TORSDOF 8
ENDMDL
MODEL 7
REMARK VINA RESULT:      -7.2      3.625      8.080
REMARK  8 active torsions:
REMARK  status: ('A' for Active; 'I' for Inactive)
REMARK    1  A    between atoms: C_2  and  O_3 
REMARK    2  A    between atoms: O_3  and  C_4 
REMARK    3  A    between atoms: C_5  and  O_6 
REMARK    4  A    between atoms: C_9  and  C_10 
REMARK    5  A    between atoms: C_10  and  N_11 
REMARK       I    between atoms: N_11  and  C_12 
REMARK    6  A    between atoms: C_12  and  C_13 
REMARK    7  A    between atoms: C_14  and  N_15 
REMARK       I    between atoms: N_15  and  C_16 
REMARK    8  A    between atoms: C_16  and  C_17 
ROOT
HETATM    1  C   UNL     1      41.503 -12.882   5.414  1.00  0.00     0.058 A 
HETATM    2  C   UNL     1      40.938 -11.803   6.139  1.00  0.00     0.050 A 
HETATM    3  C   UNL     1      40.008 -10.978   5.496  1.00  0.00     0.030 A 
HETATM    4  C   UNL     1      39.625 -11.218   4.173  1.00  0.00     0.002 A 
HETATM    5  C   UNL     1      40.161 -12.293   3.473  1.00  0.00     0.001 A 
HETATM    6  C   UNL     1      41.092 -13.126   4.090  1.00  0.00     0.019 A 
ENDROOT
BRANCH   1   7
HETATM    7  C   UNL     1      42.495 -13.797   6.062  1.00  0.00     0.254 C 
HETATM    8  N   UNL     1      42.184 -15.140   6.103  1.00  0.00    -0.353 N 
HETATM    9  H   UNL     1      41.388 -15.500   5.599  1.00  0.00     0.163 HD
HETATM   10  O   UNL     1      43.549 -13.347   6.503  1.00  0.00    -0.268 OA
BRANCH   8  11
HETATM   11  C   UNL     1      43.039 -16.099   6.767  1.00  0.00     0.161 C 
BRANCH  11  12
HETATM   12  C   UNL     1      43.434 -17.216   5.837  1.00  0.00    -0.038 A 
HETATM   13  C   UNL     1      43.725 -18.498   6.330  1.00  0.00     0.048 A 
HETATM   14  C   UNL     1      44.117 -19.544   5.475  1.00  0.00     0.102 A 
HETATM   15  C   UNL     1      44.216 -19.291   4.095  1.00  0.00     0.102 A 
HETATM   16  C   UNL     1      43.907 -18.013   3.606  1.00  0.00     0.040 A 
HETATM   17  C   UNL     1      43.526 -16.984   4.464  1.00  0.00     0.012 A 
BRANCH  14  18
HETATM   18  O   UNL     1      44.380 -20.811   5.922  1.00  0.00    -0.353 OA
HETATM   19  C   UNL     1      43.683 -21.282   7.067  1.00  0.00     0.210 C 
ENDBRANCH  14  18
BRANCH  15  20
HETATM   20  O   UNL     1      44.571 -20.154   3.092  1.00  0.00    -0.349 OA
BRANCH  20  21
HETATM   21  C   UNL     1      43.587 -20.535   2.135  1.00  0.00     0.171 C 
HETATM   22  C   UNL     1      44.045 -21.833   1.491  1.00  0.00     0.034 C 
ENDBRANCH  20  21
ENDBRANCH  15  20
ENDBRANCH  11  12
ENDBRANCH   8  11
ENDBRANCH   1   7
BRANCH   2  23
HETATM   23  N   UNL     1      41.336 -11.581   7.480  1.00  0.00    -0.321 N 
HETATM   24  C   UNL     1      41.921 -10.461   8.032  1.00  0.00     0.265 C 
HETATM   25  O   UNL     1      42.168  -9.399   7.472  1.00  0.00    -0.267 OA
HETATM   26  H   UNL     1      41.106 -12.335   8.132  1.00  0.00     0.169 HD
BRANCH  24  27
HETATM   27  C   UNL     1      42.226 -10.637   9.493  1.00  0.00     0.097 C 
HETATM   28  S   UNL     1      43.795 -11.305   9.842  1.00  0.00    -0.120 SA
HETATM   29  C   UNL     1      43.628 -11.551  11.627  1.00  0.00     0.106 C 
HETATM   30  C   UNL     1      42.895 -10.363  12.222  1.00  0.00     0.185 C 
HETATM   31  O   UNL     1      41.530 -10.322  11.799  1.00  0.00    -0.353 OA
HETATM   32  C   UNL     1      41.323 -10.269  10.428  1.00  0.00     0.064 C 
HETATM   33  C   UNL     1      39.934  -9.785  10.105  1.00  0.00     0.078 C 
ENDBRANCH  24  27
ENDBRANCH   2  23
TORSDOF 8
ENDMDL
MODEL 8
REMARK VINA RESULT:      -7.2      2.241      4.125
REMARK  8 active torsions:
REMARK  status: ('A' for Active; 'I' for Inactive)
REMARK    1  A    between atoms: C_2  and  O_3 
REMARK    2  A    between atoms: O_3  and  C_4 
REMARK    3  A    between atoms: C_5  and  O_6 
REMARK    4  A    between atoms: C_9  and  C_10 
REMARK    5  A    between atoms: C_10  and  N_11 
REMARK       I    between atoms: N_11  and  C_12 
REMARK    6  A    between atoms: C_12  and  C_13 
REMARK    7  A    between atoms: C_14  and  N_15 
REMARK       I    between atoms: N_15  and  C_16 
REMARK    8  A    between atoms: C_16  and  C_17 
ROOT
HETATM    1  C   UNL     1      43.295 -17.843   4.929  1.00  0.00     0.058 A 
HETATM    2  C   UNL     1      42.768 -16.937   5.883  1.00  0.00     0.050 A 
HETATM    3  C   UNL     1      42.921 -17.231   7.243  1.00  0.00     0.030 A 
HETATM    4  C   UNL     1      43.595 -18.383   7.660  1.00  0.00     0.002 A 
HETATM    5  C   UNL     1      44.135 -19.256   6.722  1.00  0.00     0.001 A 
HETATM    6  C   UNL     1      43.992 -18.987   5.362  1.00  0.00     0.019 A 
ENDROOT
BRANCH   1   7
HETATM    7  C   UNL     1      43.164 -17.566   3.464  1.00  0.00     0.254 C 
HETATM    8  N   UNL     1      42.098 -18.140   2.804  1.00  0.00    -0.353 N 
HETATM    9  H   UNL     1      41.368 -18.612   3.318  1.00  0.00     0.163 HD
HETATM   10  O   UNL     1      43.971 -16.830   2.903  1.00  0.00    -0.268 OA
BRANCH   8  11
HETATM   11  C   UNL     1      41.918 -17.995   1.377  1.00  0.00     0.161 C 
BRANCH  11  12
HETATM   12  C   UNL     1      41.148 -16.743   1.047  1.00  0.00    -0.038 A 
HETATM   13  C   UNL     1      41.421 -16.014  -0.122  1.00  0.00     0.048 A 
HETATM   14  C   UNL     1      40.725 -14.831  -0.430  1.00  0.00     0.102 A 
HETATM   15  C   UNL     1      39.733 -14.376   0.458  1.00  0.00     0.102 A 
HETATM   16  C   UNL     1      39.452 -15.118   1.614  1.00  0.00     0.040 A 
HETATM   17  C   UNL     1      40.152 -16.285   1.912  1.00  0.00     0.012 A 
BRANCH  14  18
HETATM   18  O   UNL     1      40.949 -14.113  -1.574  1.00  0.00    -0.353 OA
HETATM   19  C   UNL     1      42.096 -13.276  -1.633  1.00  0.00     0.210 C 
ENDBRANCH  14  18
BRANCH  15  20
HETATM   20  O   UNL     1      38.938 -13.265   0.354  1.00  0.00    -0.349 OA
BRANCH  20  21
HETATM   21  C   UNL     1      37.664 -13.271   0.989  1.00  0.00     0.171 C 
HETATM   22  C   UNL     1      36.836 -12.151   0.380  1.00  0.00     0.034 C 
ENDBRANCH  20  21
ENDBRANCH  15  20
ENDBRANCH  11  12
ENDBRANCH   8  11
ENDBRANCH   1   7
BRANCH   2  23
HETATM   23  N   UNL     1      42.092 -15.774   5.440  1.00  0.00    -0.321 N 
HETATM   24  C   UNL     1      42.498 -14.459   5.515  1.00  0.00     0.265 C 
HETATM   25  O   UNL     1      43.567 -14.034   5.941  1.00  0.00    -0.267 OA
HETATM   26  H   UNL     1      41.210 -15.944   4.951  1.00  0.00     0.169 HD
BRANCH  24  27
HETATM   27  C   UNL     1      41.472 -13.510   4.963  1.00  0.00     0.097 C 
HETATM   28  S   UNL     1      40.198 -13.079   6.068  1.00  0.00    -0.120 SA
HETATM   29  C   UNL     1      39.120 -12.161   4.941  1.00  0.00     0.106 C 
HETATM   30  C   UNL     1      39.975 -11.308   4.026  1.00  0.00     0.185 C 
HETATM   31  O   UNL     1      40.737 -12.110   3.119  1.00  0.00    -0.353 OA
HETATM   32  C   UNL     1      41.585 -13.040   3.701  1.00  0.00     0.064 C 
HETATM   33  C   UNL     1      42.639 -13.501   2.729  1.00  0.00     0.078 C 
ENDBRANCH  24  27
ENDBRANCH   2  23
TORSDOF 8
ENDMDL
MODEL 9
REMARK VINA RESULT:      -7.1      3.301      8.354
REMARK  8 active torsions:
REMARK  status: ('A' for Active; 'I' for Inactive)
REMARK    1  A    between atoms: C_2  and  O_3 
REMARK    2  A    between atoms: O_3  and  C_4 
REMARK    3  A    between atoms: C_5  and  O_6 
REMARK    4  A    between atoms: C_9  and  C_10 
REMARK    5  A    between atoms: C_10  and  N_11 
REMARK       I    between atoms: N_11  and  C_12 
REMARK    6  A    between atoms: C_12  and  C_13 
REMARK    7  A    between atoms: C_14  and  N_15 
REMARK       I    between atoms: N_15  and  C_16 
REMARK    8  A    between atoms: C_16  and  C_17 
ROOT
HETATM    1  C   UNL     1      40.699 -12.141   3.146  1.00  0.00     0.058 A 
HETATM    2  C   UNL     1      39.558 -12.066   2.309  1.00  0.00     0.050 A 
HETATM    3  C   UNL     1      38.410 -11.431   2.797  1.00  0.00     0.030 A 
HETATM    4  C   UNL     1      38.387 -10.865   4.075  1.00  0.00     0.002 A 
HETATM    5  C   UNL     1      39.517 -10.916   4.883  1.00  0.00     0.001 A 
HETATM    6  C   UNL     1      40.671 -11.546   4.422  1.00  0.00     0.019 A 
ENDROOT
BRANCH   1   7
HETATM    7  C   UNL     1      41.954 -12.802   2.665  1.00  0.00     0.254 C 
HETATM    8  N   UNL     1      42.520 -13.756   3.483  1.00  0.00    -0.353 N 
HETATM    9  H   UNL     1      42.032 -14.087   4.303  1.00  0.00     0.163 HD
HETATM   10  O   UNL     1      42.422 -12.507   1.569  1.00  0.00    -0.268 OA
BRANCH   8  11
HETATM   11  C   UNL     1      43.768 -14.404   3.146  1.00  0.00     0.161 C 
BRANCH  11  12
HETATM   12  C   UNL     1      43.603 -15.899   3.058  1.00  0.00    -0.038 A 
HETATM   13  C   UNL     1      43.151 -16.642   4.161  1.00  0.00     0.048 A 
HETATM   14  C   UNL     1      43.016 -18.041   4.100  1.00  0.00     0.102 A 
HETATM   15  C   UNL     1      43.339 -18.702   2.901  1.00  0.00     0.102 A 
HETATM   16  C   UNL     1      43.773 -17.952   1.798  1.00  0.00     0.040 A 
HETATM   17  C   UNL     1      43.910 -16.568   1.873  1.00  0.00     0.012 A 
BRANCH  14  18
HETATM   18  O   UNL     1      42.552 -18.790   5.147  1.00  0.00    -0.353 OA
HETATM   19  C   UNL     1      43.489 -19.267   6.103  1.00  0.00     0.210 C 
ENDBRANCH  14  18
BRANCH  15  20
HETATM   20  O   UNL     1      43.277 -20.041   2.620  1.00  0.00    -0.349 OA
BRANCH  20  21
HETATM   21  C   UNL     1      44.464 -20.821   2.729  1.00  0.00     0.171 C 
HETATM   22  C   UNL     1      44.344 -21.985   1.759  1.00  0.00     0.034 C 
ENDBRANCH  20  21
ENDBRANCH  15  20
ENDBRANCH  11  12
ENDBRANCH   8  11
ENDBRANCH   1   7
BRANCH   2  23
HETATM   23  N   UNL     1      39.604 -12.642   1.016  1.00  0.00    -0.321 N 
HETATM   24  C   UNL     1      39.014 -13.805   0.569  1.00  0.00     0.265 C 
HETATM   25  O   UNL     1      38.277 -14.555   1.199  1.00  0.00    -0.267 OA
HETATM   26  H   UNL     1      40.097 -12.089   0.311  1.00  0.00     0.169 HD
BRANCH  24  27
HETATM   27  C   UNL     1      39.336 -14.092  -0.871  1.00  0.00     0.097 C 
HETATM   28  S   UNL     1      38.174 -13.491  -2.019  1.00  0.00    -0.120 SA
HETATM   29  C   UNL     1      38.822 -14.250  -3.529  1.00  0.00     0.106 C 
HETATM   30  C   UNL     1      40.336 -14.170  -3.509  1.00  0.00     0.185 C 
HETATM   31  O   UNL     1      40.894 -15.009  -2.494  1.00  0.00    -0.353 OA
HETATM   32  C   UNL     1      40.467 -14.754  -1.198  1.00  0.00     0.064 C 
HETATM   33  C   UNL     1      41.409 -15.352  -0.187  1.00  0.00     0.078 C 
ENDBRANCH  24  27
ENDBRANCH   2  23
TORSDOF 8
ENDMDL
MODEL 10
REMARK VINA RESULT:      -7.0      4.044      8.647
REMARK  8 active torsions:
REMARK  status: ('A' for Active; 'I' for Inactive)
REMARK    1  A    between atoms: C_2  and  O_3 
REMARK    2  A    between atoms: O_3  and  C_4 
REMARK    3  A    between atoms: C_5  and  O_6 
REMARK    4  A    between atoms: C_9  and  C_10 
REMARK    5  A    between atoms: C_10  and  N_11 
REMARK       I    between atoms: N_11  and  C_12 
REMARK    6  A    between atoms: C_12  and  C_13 
REMARK    7  A    between atoms: C_14  and  N_15 
REMARK       I    between atoms: N_15  and  C_16 
REMARK    8  A    between atoms: C_16  and  C_17 
ROOT
HETATM    1  C   UNL     1      43.156 -11.399  10.624  1.00  0.00     0.058 A 
HETATM    2  C   UNL     1      41.858 -10.879  10.394  1.00  0.00     0.050 A 
HETATM    3  C   UNL     1      41.027 -10.640  11.495  1.00  0.00     0.030 A 
HETATM    4  C   UNL     1      41.469 -10.888  12.798  1.00  0.00     0.002 A 
HETATM    5  C   UNL     1      42.752 -11.373  13.022  1.00  0.00     0.001 A 
HETATM    6  C   UNL     1      43.597 -11.622  11.942  1.00  0.00     0.019 A 
ENDROOT
BRANCH   1   7
HETATM    7  C   UNL     1      44.085 -11.662   9.479  1.00  0.00     0.254 C 
HETATM    8  N   UNL     1      44.095 -12.936   8.952  1.00  0.00    -0.353 N 
HETATM    9  H   UNL     1      43.408 -13.618   9.240  1.00  0.00     0.163 HD
HETATM   10  O   UNL     1      44.776 -10.753   9.027  1.00  0.00    -0.268 OA
BRANCH   8  11
HETATM   11  C   UNL     1      45.003 -13.314   7.893  1.00  0.00     0.161 C 
BRANCH  11  12
HETATM   12  C   UNL     1      44.351 -14.271   6.929  1.00  0.00    -0.038 A 
HETATM   13  C   UNL     1      44.220 -13.948   5.568  1.00  0.00     0.048 A 
HETATM   14  C   UNL     1      43.593 -14.822   4.662  1.00  0.00     0.102 A 
HETATM   15  C   UNL     1      43.090 -16.047   5.138  1.00  0.00     0.102 A 
HETATM   16  C   UNL     1      43.240 -16.371   6.494  1.00  0.00     0.040 A 
HETATM   17  C   UNL     1      43.857 -15.495   7.383  1.00  0.00     0.012 A 
BRANCH  14  18
HETATM   18  O   UNL     1      43.474 -14.549   3.326  1.00  0.00    -0.353 OA
HETATM   19  C   UNL     1      42.586 -13.515   2.923  1.00  0.00     0.210 C 
ENDBRANCH  14  18
BRANCH  15  20
HETATM   20  O   UNL     1      42.455 -17.039   4.438  1.00  0.00    -0.349 OA
BRANCH  20  21
HETATM   21  C   UNL     1      43.138 -18.270   4.221  1.00  0.00     0.171 C 
HETATM   22  C   UNL     1      43.839 -18.181   2.876  1.00  0.00     0.034 C 
ENDBRANCH  20  21
ENDBRANCH  15  20
ENDBRANCH  11  12
ENDBRANCH   8  11
ENDBRANCH   1   7
BRANCH   2  23
HETATM   23  N   UNL     1      41.432 -10.631   9.066  1.00  0.00    -0.321 N 
HETATM   24  C   UNL     1      40.253 -10.998   8.455  1.00  0.00     0.265 C 
HETATM   25  O   UNL     1      39.301 -11.578   8.965  1.00  0.00    -0.267 OA
HETATM   26  H   UNL     1      42.066 -10.053   8.508  1.00  0.00     0.169 HD
BRANCH  24  27
HETATM   27  C   UNL     1      40.199 -10.574   7.014  1.00  0.00     0.097 C 
HETATM   28  S   UNL     1      41.110 -11.573   5.918  1.00  0.00    -0.120 SA
HETATM   29  C   UNL     1      40.955 -10.583   4.410  1.00  0.00     0.106 C 
HETATM   30  C   UNL     1      39.544 -10.038   4.321  1.00  0.00     0.185 C 
HETATM   31  O   UNL     1      39.290  -9.066   5.340  1.00  0.00    -0.353 OA
HETATM   32  C   UNL     1      39.466  -9.501   6.646  1.00  0.00     0.064 C 
HETATM   33  C   UNL     1      38.764  -8.592   7.621  1.00  0.00     0.078 C 
ENDBRANCH  24  27
ENDBRANCH   2  23
TORSDOF 8
ENDMDL
