MODEL 1
REMARK VINA RESULT:      -8.4      0.000      0.000
REMARK  5 active torsions:
REMARK  status: ('A' for Active; 'I' for Inactive)
REMARK    1  A    between atoms: C_4  and  N_5 
REMARK       I    between atoms: N_5  and  C_6 
REMARK       I    between atoms: C_6  and  N_7 
REMARK    2  A    between atoms: N_7  and  C_8 
REMARK    3  A    between atoms: C_8  and  C_9 
REMARK    4  A    between atoms: C_9  and  N_10 
REMARK    5  A    between atoms: C_9  and  C_14 
ROOT
HETATM    1  N   UNL     1      44.034 -17.888   5.683  1.00  0.00    -0.307 N 
HETATM    2  C   UNL     1      43.186 -17.064   6.336  1.00  0.00     0.320 C 
HETATM    3  N   UNL     1      41.885 -17.064   5.959  1.00  0.00    -0.340 N 
HETATM    4  O   UNL     1      43.561 -16.378   7.285  1.00  0.00    -0.247 OA
HETATM    5  H   UNL     1      44.924 -18.049   6.155  1.00  0.00     0.170 HD
HETATM    6  H   UNL     1      41.561 -17.913   5.507  1.00  0.00     0.164 HD
ENDROOT
BRANCH   1   7
HETATM    7  C   UNL     1      43.999 -18.490   4.397  1.00  0.00     0.066 A 
HETATM    8  C   UNL     1      43.820 -17.774   3.207  1.00  0.00     0.038 A 
HETATM    9  C   UNL     1      43.810 -18.432   1.972  1.00  0.00    -0.059 A 
HETATM   10  C   UNL     1      43.646 -17.658   0.695  1.00  0.00     0.048 C 
HETATM   11  C   UNL     1      44.035 -19.810   1.937  1.00  0.00     0.020 A 
HETATM   12  C   UNL     1      44.260 -20.530   3.121  1.00  0.00    -0.005 A 
HETATM   13  C   UNL     1      44.244 -19.873   4.370  1.00  0.00     0.093 A 
HETATM   14  C   UNL     1      44.517 -21.907   3.097  1.00  0.00     0.015 A 
HETATM   15  N   UNL     1      44.470 -20.539   5.528  1.00  0.00    -0.258 NA
HETATM   16  C   UNL     1      44.718 -21.867   5.463  1.00  0.00     0.117 A 
HETATM   17  C   UNL     1      44.751 -22.587   4.286  1.00  0.00     0.020 A 
ENDBRANCH   1   7
BRANCH   3  18
HETATM   18  C   UNL     1      40.904 -16.048   6.328  1.00  0.00     0.164 C 
BRANCH  18  19
HETATM   19  C   UNL     1      40.847 -14.758   5.448  1.00  0.00     0.261 C 
BRANCH  19  20
HETATM   20  N   UNL     1      42.147 -13.958   5.515  1.00  0.00    -0.067 N 
HETATM   21  H   UNL     1      42.701 -14.414   6.268  1.00  0.00     0.280 HD
HETATM   22  C   UNL     1      43.027 -14.032   4.305  1.00  0.00     0.270 C 
HETATM   23  C   UNL     1      41.939 -12.544   5.963  1.00  0.00     0.270 C 
ENDBRANCH  19  20
BRANCH  19  24
HETATM   24  C   UNL     1      40.438 -15.079   4.041  1.00  0.00     0.085 A 
HETATM   25  O   UNL     1      40.821 -16.305   3.577  1.00  0.00    -0.325 OA
HETATM   26  C   UNL     1      40.359 -16.415   2.306  1.00  0.00     0.142 A 
HETATM   27  C   UNL     1      39.673 -15.282   1.944  1.00  0.00     0.027 A 
HETATM   28  C   UNL     1      39.718 -14.416   3.064  1.00  0.00     0.037 A 
ENDBRANCH  19  24
ENDBRANCH  18  19
ENDBRANCH   3  18
TORSDOF 5
ENDMDL
MODEL 2
REMARK VINA RESULT:      -7.7      2.364      4.044
REMARK  5 active torsions:
REMARK  status: ('A' for Active; 'I' for Inactive)
REMARK    1  A    between atoms: C_4  and  N_5 
REMARK       I    between atoms: N_5  and  C_6 
REMARK       I    between atoms: C_6  and  N_7 
REMARK    2  A    between atoms: N_7  and  C_8 
REMARK    3  A    between atoms: C_8  and  C_9 
REMARK    4  A    between atoms: C_9  and  N_10 
REMARK    5  A    between atoms: C_9  and  C_14 
ROOT
HETATM    1  N   UNL     1      43.713 -15.176   3.593  1.00  0.00    -0.307 N 
HETATM    2  C   UNL     1      42.747 -14.265   3.346  1.00  0.00     0.320 C 
HETATM    3  N   UNL     1      41.509 -14.501   3.843  1.00  0.00    -0.340 N 
HETATM    4  O   UNL     1      42.989 -13.219   2.744  1.00  0.00    -0.247 OA
HETATM    5  H   UNL     1      44.665 -14.846   3.434  1.00  0.00     0.170 HD
HETATM    6  H   UNL     1      41.473 -15.110   4.653  1.00  0.00     0.164 HD
ENDROOT
BRANCH   1   7
HETATM    7  C   UNL     1      43.678 -16.559   3.914  1.00  0.00     0.066 A 
HETATM    8  C   UNL     1      43.791 -17.582   2.964  1.00  0.00     0.038 A 
HETATM    9  C   UNL     1      43.762 -18.926   3.353  1.00  0.00    -0.059 A 
HETATM   10  C   UNL     1      43.913 -20.019   2.336  1.00  0.00     0.048 C 
HETATM   11  C   UNL     1      43.673 -19.235   4.712  1.00  0.00     0.020 A 
HETATM   12  C   UNL     1      43.604 -18.216   5.676  1.00  0.00    -0.005 A 
HETATM   13  C   UNL     1      43.606 -16.861   5.284  1.00  0.00     0.093 A 
HETATM   14  C   UNL     1      43.545 -18.512   7.045  1.00  0.00     0.015 A 
HETATM   15  N   UNL     1      43.553 -15.856   6.192  1.00  0.00    -0.258 NA
HETATM   16  C   UNL     1      43.500 -16.183   7.504  1.00  0.00     0.117 A 
HETATM   17  C   UNL     1      43.494 -17.481   7.974  1.00  0.00     0.020 A 
ENDBRANCH   1   7
BRANCH   3  18
HETATM   18  C   UNL     1      40.294 -13.805   3.433  1.00  0.00     0.164 C 
BRANCH  18  19
HETATM   19  C   UNL     1      39.356 -14.539   2.421  1.00  0.00     0.261 C 
BRANCH  19  20
HETATM   20  N   UNL     1      38.697 -13.571   1.440  1.00  0.00    -0.067 N 
HETATM   21  H   UNL     1      39.388 -13.461   0.670  1.00  0.00     0.280 HD
HETATM   22  C   UNL     1      37.456 -14.065   0.763  1.00  0.00     0.270 C 
HETATM   23  C   UNL     1      38.508 -12.200   2.013  1.00  0.00     0.270 C 
ENDBRANCH  19  20
BRANCH  19  24
HETATM   24  C   UNL     1      40.075 -15.660   1.731  1.00  0.00     0.085 A 
HETATM   25  O   UNL     1      40.868 -15.298   0.679  1.00  0.00    -0.325 OA
HETATM   26  C   UNL     1      41.433 -16.432   0.194  1.00  0.00     0.142 A 
HETATM   27  C   UNL     1      41.027 -17.522   0.924  1.00  0.00     0.027 A 
HETATM   28  C   UNL     1      40.151 -17.028   1.922  1.00  0.00     0.037 A 
ENDBRANCH  19  24
ENDBRANCH  18  19
ENDBRANCH   3  18
TORSDOF 5
ENDMDL
MODEL 3
REMARK VINA RESULT:      -7.6      2.218      4.240
REMARK  5 active torsions:
REMARK  status: ('A' for Active; 'I' for Inactive)
REMARK    1  A    between atoms: C_4  and  N_5 
REMARK       I    between atoms: N_5  and  C_6 
REMARK       I    between atoms: C_6  and  N_7 
REMARK    2  A    between atoms: N_7  and  C_8 
REMARK    3  A    between atoms: C_8  and  C_9 
REMARK    4  A    between atoms: C_9  and  N_10 
REMARK    5  A    between atoms: C_9  and  C_14 
ROOT
HETATM    1  N   UNL     1      40.921 -17.048   3.270  1.00  0.00    -0.307 N 
HETATM    2  C   UNL     1      40.813 -15.942   2.503  1.00  0.00     0.320 C 
HETATM    3  N   UNL     1      41.949 -15.276   2.185  1.00  0.00    -0.340 N 
HETATM    4  O   UNL     1      39.728 -15.577   2.051  1.00  0.00    -0.247 OA
HETATM    5  H   UNL     1      40.099 -17.654   3.268  1.00  0.00     0.170 HD
HETATM    6  H   UNL     1      42.799 -15.829   2.206  1.00  0.00     0.164 HD
ENDROOT
BRANCH   1   7
HETATM    7  C   UNL     1      41.906 -17.495   4.190  1.00  0.00     0.066 A 
HETATM    8  C   UNL     1      41.960 -17.090   5.530  1.00  0.00     0.038 A 
HETATM    9  C   UNL     1      42.952 -17.581   6.386  1.00  0.00    -0.059 A 
HETATM   10  C   UNL     1      42.990 -17.167   7.828  1.00  0.00     0.048 C 
HETATM   11  C   UNL     1      43.858 -18.526   5.899  1.00  0.00     0.020 A 
HETATM   12  C   UNL     1      43.785 -18.972   4.570  1.00  0.00    -0.005 A 
HETATM   13  C   UNL     1      42.802 -18.458   3.698  1.00  0.00     0.093 A 
HETATM   14  C   UNL     1      44.669 -19.941   4.078  1.00  0.00     0.015 A 
HETATM   15  N   UNL     1      42.699 -18.878   2.414  1.00  0.00    -0.258 NA
HETATM   16  C   UNL     1      43.569 -19.818   1.978  1.00  0.00     0.117 A 
HETATM   17  C   UNL     1      44.560 -20.373   2.762  1.00  0.00     0.020 A 
ENDBRANCH   1   7
BRANCH   3  18
HETATM   18  C   UNL     1      42.004 -13.924   1.640  1.00  0.00     0.164 C 
BRANCH  18  19
HETATM   19  C   UNL     1      42.057 -12.742   2.661  1.00  0.00     0.261 C 
BRANCH  19  20
HETATM   20  N   UNL     1      40.719 -12.010   2.763  1.00  0.00    -0.067 N 
HETATM   21  H   UNL     1      40.185 -12.533   3.487  1.00  0.00     0.280 HD
HETATM   22  C   UNL     1      40.777 -10.606   3.281  1.00  0.00     0.270 C 
HETATM   23  C   UNL     1      39.905 -12.106   1.510  1.00  0.00     0.270 C 
ENDBRANCH  19  20
BRANCH  19  24
HETATM   24  C   UNL     1      42.568 -13.200   3.994  1.00  0.00     0.085 A 
HETATM   25  O   UNL     1      43.850 -13.673   4.007  1.00  0.00    -0.325 OA
HETATM   26  C   UNL     1      44.133 -14.028   5.286  1.00  0.00     0.142 A 
HETATM   27  C   UNL     1      43.057 -13.781   6.103  1.00  0.00     0.027 A 
HETATM   28  C   UNL     1      42.043 -13.242   5.273  1.00  0.00     0.037 A 
ENDBRANCH  19  24
ENDBRANCH  18  19
ENDBRANCH   3  18
TORSDOF 5
ENDMDL
MODEL 4
REMARK VINA RESULT:      -7.6      1.446      2.626
REMARK  5 active torsions:
REMARK  status: ('A' for Active; 'I' for Inactive)
REMARK    1  A    between atoms: C_4  and  N_5 
REMARK       I    between atoms: N_5  and  C_6 
REMARK       I    between atoms: C_6  and  N_7 
REMARK    2  A    between atoms: N_7  and  C_8 
REMARK    3  A    between atoms: C_8  and  C_9 
REMARK    4  A    between atoms: C_9  and  N_10 
REMARK    5  A    between atoms: C_9  and  C_14 
ROOT
HETATM    1  N   UNL     1      43.691 -17.922   5.847  1.00  0.00    -0.307 N 
HETATM    2  C   UNL     1      42.835 -17.030   6.391  1.00  0.00     0.320 C 
HETATM    3  N   UNL     1      41.609 -16.902   5.827  1.00  0.00    -0.340 N 
HETATM    4  O   UNL     1      43.125 -16.395   7.404  1.00  0.00    -0.247 OA
HETATM    5  H   UNL     1      44.482 -18.174   6.441  1.00  0.00     0.170 HD
HETATM    6  H   UNL     1      41.280 -17.709   5.309  1.00  0.00     0.164 HD
ENDROOT
BRANCH   1   7
HETATM    7  C   UNL     1      43.792 -18.501   4.555  1.00  0.00     0.066 A 
HETATM    8  C   UNL     1      43.666 -17.774   3.364  1.00  0.00     0.038 A 
HETATM    9  C   UNL     1      43.791 -18.408   2.123  1.00  0.00    -0.059 A 
HETATM   10  C   UNL     1      43.684 -17.621   0.849  1.00  0.00     0.048 C 
HETATM   11  C   UNL     1      44.099 -19.770   2.086  1.00  0.00     0.020 A 
HETATM   12  C   UNL     1      44.272 -20.498   3.274  1.00  0.00    -0.005 A 
HETATM   13  C   UNL     1      44.120 -19.867   4.527  1.00  0.00     0.093 A 
HETATM   14  C   UNL     1      44.610 -21.857   3.251  1.00  0.00     0.015 A 
HETATM   15  N   UNL     1      44.293 -20.541   5.690  1.00  0.00    -0.258 NA
HETATM   16  C   UNL     1      44.622 -21.851   5.625  1.00  0.00     0.117 A 
HETATM   17  C   UNL     1      44.790 -22.546   4.445  1.00  0.00     0.020 A 
ENDBRANCH   1   7
BRANCH   3  18
HETATM   18  C   UNL     1      40.683 -15.801   6.075  1.00  0.00     0.164 C 
BRANCH  18  19
HETATM   19  C   UNL     1      40.781 -14.559   5.133  1.00  0.00     0.261 C 
BRANCH  19  20
HETATM   20  N   UNL     1      39.939 -14.727   3.869  1.00  0.00    -0.067 N 
HETATM   21  H   UNL     1      39.036 -15.123   4.202  1.00  0.00     0.280 HD
HETATM   22  C   UNL     1      39.557 -13.465   3.161  1.00  0.00     0.270 C 
HETATM   23  C   UNL     1      40.504 -15.744   2.924  1.00  0.00     0.270 C 
ENDBRANCH  19  20
BRANCH  19  24
HETATM   24  C   UNL     1      40.465 -13.293   5.872  1.00  0.00     0.085 A 
HETATM   25  O   UNL     1      41.461 -12.357   5.897  1.00  0.00    -0.325 OA
HETATM   26  C   UNL     1      40.992 -11.292   6.596  1.00  0.00     0.142 A 
HETATM   27  C   UNL     1      39.704 -11.520   7.013  1.00  0.00     0.027 A 
HETATM   28  C   UNL     1      39.357 -12.811   6.544  1.00  0.00     0.037 A 
ENDBRANCH  19  24
ENDBRANCH  18  19
ENDBRANCH   3  18
TORSDOF 5
ENDMDL
MODEL 5
REMARK VINA RESULT:      -7.5      3.537      5.250
REMARK  5 active torsions:
REMARK  status: ('A' for Active; 'I' for Inactive)
REMARK    1  A    between atoms: C_4  and  N_5 
REMARK       I    between atoms: N_5  and  C_6 
REMARK       I    between atoms: C_6  and  N_7 
REMARK    2  A    between atoms: N_7  and  C_8 
REMARK    3  A    between atoms: C_8  and  C_9 
REMARK    4  A    between atoms: C_9  and  N_10 
REMARK    5  A    between atoms: C_9  and  C_14 
ROOT
HETATM    1  N   UNL     1      40.648 -17.106   3.337  1.00  0.00    -0.307 N 
HETATM    2  C   UNL     1      40.529 -16.090   2.454  1.00  0.00     0.320 C 
HETATM    3  N   UNL     1      41.665 -15.550   1.950  1.00  0.00    -0.340 N 
HETATM    4  O   UNL     1      39.428 -15.702   2.066  1.00  0.00    -0.247 OA
HETATM    5  H   UNL     1      39.795 -17.645   3.488  1.00  0.00     0.170 HD
HETATM    6  H   UNL     1      42.477 -16.158   1.958  1.00  0.00     0.164 HD
ENDROOT
BRANCH   1   7
HETATM    7  C   UNL     1      41.694 -17.513   4.206  1.00  0.00     0.066 A 
HETATM    8  C   UNL     1      41.782 -17.130   5.551  1.00  0.00     0.038 A 
HETATM    9  C   UNL     1      42.834 -17.581   6.355  1.00  0.00    -0.059 A 
HETATM   10  C   UNL     1      42.910 -17.192   7.803  1.00  0.00     0.048 C 
HETATM   11  C   UNL     1      43.770 -18.465   5.813  1.00  0.00     0.020 A 
HETATM   12  C   UNL     1      43.666 -18.890   4.480  1.00  0.00    -0.005 A 
HETATM   13  C   UNL     1      42.620 -18.416   3.659  1.00  0.00     0.093 A 
HETATM   14  C   UNL     1      44.579 -19.800   3.932  1.00  0.00     0.015 A 
HETATM   15  N   UNL     1      42.486 -18.819   2.372  1.00  0.00    -0.258 NA
HETATM   16  C   UNL     1      43.387 -19.700   1.881  1.00  0.00     0.117 A 
HETATM   17  C   UNL     1      44.439 -20.214   2.613  1.00  0.00     0.020 A 
ENDBRANCH   1   7
BRANCH   3  18
HETATM   18  C   UNL     1      41.746 -14.278   1.240  1.00  0.00     0.164 C 
BRANCH  18  19
HETATM   19  C   UNL     1      41.780 -14.332  -0.321  1.00  0.00     0.261 C 
BRANCH  19  20
HETATM   20  N   UNL     1      40.472 -14.861  -0.907  1.00  0.00    -0.067 N 
HETATM   21  H   UNL     1      40.163 -15.600  -0.243  1.00  0.00     0.280 HD
HETATM   22  C   UNL     1      39.331 -13.893  -0.949  1.00  0.00     0.270 C 
HETATM   23  C   UNL     1      40.661 -15.552  -2.223  1.00  0.00     0.270 C 
ENDBRANCH  19  20
BRANCH  19  24
HETATM   24  C   UNL     1      42.178 -13.007  -0.900  1.00  0.00     0.085 A 
HETATM   25  O   UNL     1      42.101 -11.940  -0.050  1.00  0.00    -0.325 OA
HETATM   26  C   UNL     1      42.502 -10.845  -0.743  1.00  0.00     0.142 A 
HETATM   27  C   UNL     1      42.849 -11.189  -2.027  1.00  0.00     0.027 A 
HETATM   28  C   UNL     1      42.644 -12.587  -2.133  1.00  0.00     0.037 A 
ENDBRANCH  19  24
ENDBRANCH  18  19
ENDBRANCH   3  18
TORSDOF 5
ENDMDL
MODEL 6
REMARK VINA RESULT:      -7.5      2.242      3.729
REMARK  5 active torsions:
REMARK  status: ('A' for Active; 'I' for Inactive)
REMARK    1  A    between atoms: C_4  and  N_5 
REMARK       I    between atoms: N_5  and  C_6 
REMARK       I    between atoms: C_6  and  N_7 
REMARK    2  A    between atoms: N_7  and  C_8 
REMARK    3  A    between atoms: C_8  and  C_9 
REMARK    4  A    between atoms: C_9  and  N_10 
REMARK    5  A    between atoms: C_9  and  C_14 
ROOT
HETATM    1  N   UNL     1      43.579 -16.986   2.246  1.00  0.00    -0.307 N 
HETATM    2  C   UNL     1      42.441 -16.383   1.840  1.00  0.00     0.320 C 
HETATM    3  N   UNL     1      41.275 -16.785   2.401  1.00  0.00    -0.340 N 
HETATM    4  O   UNL     1      42.458 -15.453   1.035  1.00  0.00    -0.247 OA
HETATM    5  H   UNL     1      44.437 -16.490   2.004  1.00  0.00     0.170 HD
HETATM    6  H   UNL     1      41.355 -17.210   3.318  1.00  0.00     0.164 HD
ENDROOT
BRANCH   1   7
HETATM    7  C   UNL     1      43.846 -18.247   2.841  1.00  0.00     0.066 A 
HETATM    8  C   UNL     1      44.023 -19.430   2.112  1.00  0.00     0.038 A 
HETATM    9  C   UNL     1      44.297 -20.638   2.763  1.00  0.00    -0.059 A 
HETATM   10  C   UNL     1      44.514 -21.898   1.977  1.00  0.00     0.048 C 
HETATM   11  C   UNL     1      44.447 -20.639   4.152  1.00  0.00     0.020 A 
HETATM   12  C   UNL     1      44.315 -19.450   4.888  1.00  0.00    -0.005 A 
HETATM   13  C   UNL     1      44.013 -18.236   4.236  1.00  0.00     0.093 A 
HETATM   14  C   UNL     1      44.493 -19.432   6.278  1.00  0.00     0.015 A 
HETATM   15  N   UNL     1      43.893 -17.071   4.918  1.00  0.00    -0.258 NA
HETATM   16  C   UNL     1      44.074 -17.095   6.258  1.00  0.00     0.117 A 
HETATM   17  C   UNL     1      44.372 -18.236   6.975  1.00  0.00     0.020 A 
ENDBRANCH   1   7
BRANCH   3  18
HETATM   18  C   UNL     1      39.945 -16.476   1.884  1.00  0.00     0.164 C 
BRANCH  18  19
HETATM   19  C   UNL     1      39.306 -15.119   2.321  1.00  0.00     0.261 C 
BRANCH  19  20
HETATM   20  N   UNL     1      40.260 -14.280   3.171  1.00  0.00    -0.067 N 
HETATM   21  H   UNL     1      41.177 -14.767   3.099  1.00  0.00     0.280 HD
HETATM   22  C   UNL     1      40.532 -12.893   2.677  1.00  0.00     0.270 C 
HETATM   23  C   UNL     1      39.907 -14.292   4.626  1.00  0.00     0.270 C 
ENDBRANCH  19  20
BRANCH  19  24
HETATM   24  C   UNL     1      38.772 -14.366   1.139  1.00  0.00     0.085 A 
HETATM   25  O   UNL     1      39.542 -14.408   0.012  1.00  0.00    -0.325 OA
HETATM   26  C   UNL     1      38.899 -13.685  -0.940  1.00  0.00     0.142 A 
HETATM   27  C   UNL     1      37.718 -13.184  -0.448  1.00  0.00     0.027 A 
HETATM   28  C   UNL     1      37.629 -13.625   0.896  1.00  0.00     0.037 A 
ENDBRANCH  19  24
ENDBRANCH  18  19
ENDBRANCH   3  18
TORSDOF 5
ENDMDL
MODEL 7
REMARK VINA RESULT:      -7.2      2.638      4.734
REMARK  5 active torsions:
REMARK  status: ('A' for Active; 'I' for Inactive)
REMARK    1  A    between atoms: C_4  and  N_5 
REMARK       I    between atoms: N_5  and  C_6 
REMARK       I    between atoms: C_6  and  N_7 
REMARK    2  A    between atoms: N_7  and  C_8 
REMARK    3  A    between atoms: C_8  and  C_9 
REMARK    4  A    between atoms: C_9  and  N_10 
REMARK    5  A    between atoms: C_9  and  C_14 
ROOT
HETATM    1  N   UNL     1      39.931 -16.474   2.492  1.00  0.00    -0.307 N 
HETATM    2  C   UNL     1      39.680 -15.248   1.986  1.00  0.00     0.320 C 
HETATM    3  N   UNL     1      40.690 -14.601   1.356  1.00  0.00    -0.340 N 
HETATM    4  O   UNL     1      38.555 -14.751   2.035  1.00  0.00    -0.247 OA
HETATM    5  H   UNL     1      39.101 -17.023   2.719  1.00  0.00     0.170 HD
HETATM    6  H   UNL     1      41.418 -15.196   0.976  1.00  0.00     0.164 HD
ENDROOT
BRANCH   1   7
HETATM    7  C   UNL     1      41.125 -17.127   2.898  1.00  0.00     0.066 A 
HETATM    8  C   UNL     1      41.981 -17.801   2.018  1.00  0.00     0.038 A 
HETATM    9  C   UNL     1      43.150 -18.412   2.485  1.00  0.00    -0.059 A 
HETATM   10  C   UNL     1      44.079 -19.110   1.535  1.00  0.00     0.048 C 
HETATM   11  C   UNL     1      43.483 -18.292   3.836  1.00  0.00     0.020 A 
HETATM   12  C   UNL     1      42.655 -17.579   4.718  1.00  0.00    -0.005 A 
HETATM   13  C   UNL     1      41.462 -16.985   4.255  1.00  0.00     0.093 A 
HETATM   14  C   UNL     1      42.993 -17.425   6.069  1.00  0.00     0.015 A 
HETATM   15  N   UNL     1      40.649 -16.281   5.079  1.00  0.00    -0.258 NA
HETATM   16  C   UNL     1      41.012 -16.153   6.376  1.00  0.00     0.117 A 
HETATM   17  C   UNL     1      42.160 -16.700   6.912  1.00  0.00     0.020 A 
ENDBRANCH   1   7
BRANCH   3  18
HETATM   18  C   UNL     1      40.699 -13.181   1.024  1.00  0.00     0.164 C 
BRANCH  18  19
HETATM   19  C   UNL     1      41.277 -12.199   2.093  1.00  0.00     0.261 C 
BRANCH  19  20
HETATM   20  N   UNL     1      40.179 -11.405   2.799  1.00  0.00    -0.067 N 
HETATM   21  H   UNL     1      39.953 -11.961   3.649  1.00  0.00     0.280 HD
HETATM   22  C   UNL     1      40.576 -10.060   3.325  1.00  0.00     0.270 C 
HETATM   23  C   UNL     1      38.909 -11.338   2.008  1.00  0.00     0.270 C 
ENDBRANCH  19  20
BRANCH  19  24
HETATM   24  C   UNL     1      42.180 -12.915   3.053  1.00  0.00     0.085 A 
HETATM   25  O   UNL     1      43.186 -13.646   2.489  1.00  0.00    -0.325 OA
HETATM   26  C   UNL     1      43.892 -14.207   3.503  1.00  0.00     0.142 A 
HETATM   27  C   UNL     1      43.364 -13.840   4.717  1.00  0.00     0.027 A 
HETATM   28  C   UNL     1      42.258 -13.001   4.432  1.00  0.00     0.037 A 
ENDBRANCH  19  24
ENDBRANCH  18  19
ENDBRANCH   3  18
TORSDOF 5
ENDMDL
MODEL 8
REMARK VINA RESULT:      -7.1      4.093      8.635
REMARK  5 active torsions:
REMARK  status: ('A' for Active; 'I' for Inactive)
REMARK    1  A    between atoms: C_4  and  N_5 
REMARK       I    between atoms: N_5  and  C_6 
REMARK       I    between atoms: C_6  and  N_7 
REMARK    2  A    between atoms: N_7  and  C_8 
REMARK    3  A    between atoms: C_8  and  C_9 
REMARK    4  A    between atoms: C_9  and  N_10 
REMARK    5  A    between atoms: C_9  and  C_14 
ROOT
HETATM    1  N   UNL     1      44.180 -11.292   9.200  1.00  0.00    -0.307 N 
HETATM    2  C   UNL     1      44.818 -12.381   8.718  1.00  0.00     0.320 C 
HETATM    3  N   UNL     1      44.187 -13.120   7.774  1.00  0.00    -0.340 N 
HETATM    4  O   UNL     1      45.962 -12.664   9.071  1.00  0.00    -0.247 OA
HETATM    5  H   UNL     1      44.776 -10.632   9.699  1.00  0.00     0.170 HD
HETATM    6  H   UNL     1      43.487 -12.628   7.230  1.00  0.00     0.164 HD
ENDROOT
BRANCH   1   7
HETATM    7  C   UNL     1      42.810 -10.925   9.267  1.00  0.00     0.066 A 
HETATM    8  C   UNL     1      42.030 -10.618   8.144  1.00  0.00     0.038 A 
HETATM    9  C   UNL     1      40.680 -10.277   8.283  1.00  0.00    -0.059 A 
HETATM   10  C   UNL     1      39.841  -9.976   7.075  1.00  0.00     0.048 C 
HETATM   11  C   UNL     1      40.104 -10.300   9.554  1.00  0.00     0.020 A 
HETATM   12  C   UNL     1      40.865 -10.650  10.681  1.00  0.00    -0.005 A 
HETATM   13  C   UNL     1      42.233 -10.969  10.547  1.00  0.00     0.093 A 
HETATM   14  C   UNL     1      40.291 -10.706  11.958  1.00  0.00     0.015 A 
HETATM   15  N   UNL     1      42.990 -11.322  11.614  1.00  0.00    -0.258 NA
HETATM   16  C   UNL     1      42.399 -11.367  12.829  1.00  0.00     0.117 A 
HETATM   17  C   UNL     1      41.069 -11.072  13.050  1.00  0.00     0.020 A 
ENDBRANCH   1   7
BRANCH   3  18
HETATM   18  C   UNL     1      44.574 -14.467   7.367  1.00  0.00     0.164 C 
BRANCH  18  19
HETATM   19  C   UNL     1      43.658 -15.190   6.327  1.00  0.00     0.261 C 
BRANCH  19  20
HETATM   20  N   UNL     1      42.613 -16.079   7.001  1.00  0.00    -0.067 N 
HETATM   21  H   UNL     1      42.030 -15.424   7.562  1.00  0.00     0.280 HD
HETATM   22  C   UNL     1      41.641 -16.758   6.087  1.00  0.00     0.270 C 
HETATM   23  C   UNL     1      43.210 -17.036   7.986  1.00  0.00     0.270 C 
ENDBRANCH  19  20
BRANCH  19  24
HETATM   24  C   UNL     1      43.052 -14.212   5.366  1.00  0.00     0.085 A 
HETATM   25  O   UNL     1      42.113 -13.369   5.891  1.00  0.00    -0.325 OA
HETATM   26  C   UNL     1      41.691 -12.563   4.884  1.00  0.00     0.142 A 
HETATM   27  C   UNL     1      42.350 -12.865   3.717  1.00  0.00     0.027 A 
HETATM   28  C   UNL     1      43.234 -13.929   4.025  1.00  0.00     0.037 A 
ENDBRANCH  19  24
ENDBRANCH  18  19
ENDBRANCH   3  18
TORSDOF 5
ENDMDL
MODEL 9
REMARK VINA RESULT:      -7.1      3.968      6.103
REMARK  5 active torsions:
REMARK  status: ('A' for Active; 'I' for Inactive)
REMARK    1  A    between atoms: C_4  and  N_5 
REMARK       I    between atoms: N_5  and  C_6 
REMARK       I    between atoms: C_6  and  N_7 
REMARK    2  A    between atoms: N_7  and  C_8 
REMARK    3  A    between atoms: C_8  and  C_9 
REMARK    4  A    between atoms: C_9  and  N_10 
REMARK    5  A    between atoms: C_9  and  C_14 
ROOT
HETATM    1  N   UNL     1      39.858 -16.483   2.553  1.00  0.00    -0.307 N 
HETATM    2  C   UNL     1      39.505 -15.534   1.659  1.00  0.00     0.320 C 
HETATM    3  N   UNL     1      40.345 -15.294   0.624  1.00  0.00    -0.340 N 
HETATM    4  O   UNL     1      38.428 -14.945   1.738  1.00  0.00    -0.247 OA
HETATM    5  H   UNL     1      39.099 -16.811   3.152  1.00  0.00     0.170 HD
HETATM    6  H   UNL     1      40.959 -16.062   0.372  1.00  0.00     0.164 HD
ENDROOT
BRANCH   1   7
HETATM    7  C   UNL     1      41.108 -17.044   2.926  1.00  0.00     0.066 A 
HETATM    8  C   UNL     1      41.759 -18.047   2.197  1.00  0.00     0.038 A 
HETATM    9  C   UNL     1      42.998 -18.545   2.616  1.00  0.00    -0.059 A 
HETATM   10  C   UNL     1      43.707 -19.601   1.817  1.00  0.00     0.048 C 
HETATM   11  C   UNL     1      43.605 -17.988   3.743  1.00  0.00     0.020 A 
HETATM   12  C   UNL     1      42.982 -16.951   4.455  1.00  0.00    -0.005 A 
HETATM   13  C   UNL     1      41.720 -16.465   4.050  1.00  0.00     0.093 A 
HETATM   14  C   UNL     1      43.594 -16.363   5.570  1.00  0.00     0.015 A 
HETATM   15  N   UNL     1      41.099 -15.457   4.709  1.00  0.00    -0.258 NA
HETATM   16  C   UNL     1      41.724 -14.914   5.779  1.00  0.00     0.117 A 
HETATM   17  C   UNL     1      42.957 -15.327   6.242  1.00  0.00     0.020 A 
ENDBRANCH   1   7
BRANCH   3  18
HETATM   18  C   UNL     1      40.289 -14.126  -0.249  1.00  0.00     0.164 C 
BRANCH  18  19
HETATM   19  C   UNL     1      41.427 -13.968  -1.308  1.00  0.00     0.261 C 
BRANCH  19  20
HETATM   20  N   UNL     1      40.946 -14.290  -2.722  1.00  0.00    -0.067 N 
HETATM   21  H   UNL     1      41.710 -13.956  -3.345  1.00  0.00     0.280 HD
HETATM   22  C   UNL     1      40.800 -15.743  -3.052  1.00  0.00     0.270 C 
HETATM   23  C   UNL     1      39.731 -13.507  -3.116  1.00  0.00     0.270 C 
ENDBRANCH  19  20
BRANCH  19  24
HETATM   24  C   UNL     1      42.075 -12.620  -1.211  1.00  0.00     0.085 A 
HETATM   25  O   UNL     1      41.794 -11.907  -0.079  1.00  0.00    -0.325 OA
HETATM   26  C   UNL     1      42.468 -10.732  -0.168  1.00  0.00     0.142 A 
HETATM   27  C   UNL     1      43.190 -10.679  -1.336  1.00  0.00     0.027 A 
HETATM   28  C   UNL     1      42.942 -11.899  -2.012  1.00  0.00     0.037 A 
ENDBRANCH  19  24
ENDBRANCH  18  19
ENDBRANCH   3  18
TORSDOF 5
ENDMDL
MODEL 10
REMARK VINA RESULT:      -7.0      3.086      4.689
REMARK  5 active torsions:
REMARK  status: ('A' for Active; 'I' for Inactive)
REMARK    1  A    between atoms: C_4  and  N_5 
REMARK       I    between atoms: N_5  and  C_6 
REMARK       I    between atoms: C_6  and  N_7 
REMARK    2  A    between atoms: N_7  and  C_8 
REMARK    3  A    between atoms: C_8  and  C_9 
REMARK    4  A    between atoms: C_9  and  N_10 
REMARK    5  A    between atoms: C_9  and  C_14 
ROOT
HETATM    1  N   UNL     1      40.912 -16.703   4.172  1.00  0.00    -0.307 N 
HETATM    2  C   UNL     1      40.639 -15.657   3.362  1.00  0.00     0.320 C 
HETATM    3  N   UNL     1      41.172 -15.662   2.117  1.00  0.00    -0.340 N 
HETATM    4  O   UNL     1      39.881 -14.754   3.713  1.00  0.00    -0.247 OA
HETATM    5  H   UNL     1      40.297 -16.790   4.982  1.00  0.00     0.170 HD
HETATM    6  H   UNL     1      41.406 -16.577   1.746  1.00  0.00     0.164 HD
ENDROOT
BRANCH   1   7
HETATM    7  C   UNL     1      41.967 -17.653   4.202  1.00  0.00     0.066 A 
HETATM    8  C   UNL     1      42.422 -18.347   3.074  1.00  0.00     0.038 A 
HETATM    9  C   UNL     1      43.477 -19.261   3.174  1.00  0.00    -0.059 A 
HETATM   10  C   UNL     1      43.981 -19.982   1.958  1.00  0.00     0.048 C 
HETATM   11  C   UNL     1      44.109 -19.432   4.407  1.00  0.00     0.020 A 
HETATM   12  C   UNL     1      43.690 -18.707   5.535  1.00  0.00    -0.005 A 
HETATM   13  C   UNL     1      42.609 -17.805   5.442  1.00  0.00     0.093 A 
HETATM   14  C   UNL     1      44.335 -18.847   6.771  1.00  0.00     0.015 A 
HETATM   15  N   UNL     1      42.190 -17.083   6.510  1.00  0.00    -0.258 NA
HETATM   16  C   UNL     1      42.841 -17.244   7.684  1.00  0.00     0.117 A 
HETATM   17  C   UNL     1      43.906 -18.103   7.863  1.00  0.00     0.020 A 
ENDBRANCH   1   7
BRANCH   3  18
HETATM   18  C   UNL     1      41.243 -14.506   1.229  1.00  0.00     0.164 C 
BRANCH  18  19
HETATM   19  C   UNL     1      40.214 -14.443   0.055  1.00  0.00     0.261 C 
BRANCH  19  20
HETATM   20  N   UNL     1      39.038 -13.520   0.369  1.00  0.00    -0.067 N 
HETATM   21  H   UNL     1      38.751 -13.131  -0.553  1.00  0.00     0.280 HD
HETATM   22  C   UNL     1      37.804 -14.185   0.895  1.00  0.00     0.270 C 
HETATM   23  C   UNL     1      39.430 -12.339   1.203  1.00  0.00     0.270 C 
ENDBRANCH  19  20
BRANCH  19  24
HETATM   24  C   UNL     1      40.890 -14.097  -1.239  1.00  0.00     0.085 A 
HETATM   25  O   UNL     1      42.009 -13.321  -1.135  1.00  0.00    -0.325 OA
HETATM   26  C   UNL     1      42.478 -13.124  -2.393  1.00  0.00     0.142 A 
HETATM   27  C   UNL     1      41.684 -13.770  -3.309  1.00  0.00     0.027 A 
HETATM   28  C   UNL     1      40.658 -14.404  -2.568  1.00  0.00     0.037 A 
ENDBRANCH  19  24
ENDBRANCH  18  19
ENDBRANCH   3  18
TORSDOF 5
ENDMDL
