MODEL 1
REMARK VINA RESULT:      -8.3      0.000      0.000
REMARK  1 active torsions:
REMARK  status: ('A' for Active; 'I' for Inactive)
REMARK    1  A    between atoms: C_5  and  N_6 
ROOT
HETATM    1  N   UNL     1      42.498 -16.634   4.674  1.00  0.00    -0.320 N 
HETATM    2  C   UNL     1      41.259 -16.545   5.372  1.00  0.00     0.141 C 
HETATM    3  N   UNL     1      40.406 -17.526   5.441  1.00  0.00    -0.380 N 
HETATM    4  H   UNL     1      39.547 -17.408   5.961  1.00  0.00     0.158 HD
HETATM    5  H   UNL     1      40.612 -18.402   4.978  1.00  0.00     0.158 HD
HETATM    6  S   UNL     1      41.017 -15.027   6.134  1.00  0.00    -0.086 SA
HETATM    7  C   UNL     1      42.486 -14.304   5.279  1.00  0.00     0.093 C 
HETATM    8  C   UNL     1      43.412 -15.508   4.976  1.00  0.00     0.121 C 
HETATM    9  C   UNL     1      43.250 -13.282   6.095  1.00  0.00     0.158 C 
HETATM   10  S   UNL     1      44.493 -14.187   6.983  1.00  0.00     0.147 S 
HETATM   11  O   UNL     1      44.114 -14.267   8.376  1.00  0.00    -0.228 OA
HETATM   12  O   UNL     1      45.789 -13.709   6.555  1.00  0.00    -0.228 OA
HETATM   13  C   UNL     1      44.228 -15.776   6.241  1.00  0.00     0.167 C 
ENDROOT
BRANCH   1  14
HETATM   14  C   UNL     1      42.905 -17.610   3.738  1.00  0.00     0.048 A 
HETATM   15  C   UNL     1      43.534 -18.833   4.142  1.00  0.00     0.001 A 
HETATM   16  C   UNL     1      44.055 -19.704   3.148  1.00  0.00    -0.024 A 
HETATM   17  C   UNL     1      43.651 -19.264   5.488  1.00  0.00     0.014 A 
HETATM   18  C   UNL     1      44.721 -20.885   3.515  1.00  0.00     0.012 A 
HETATM   19  C   UNL     1      43.896 -19.397   1.794  1.00  0.00     0.012 A 
HETATM   20  C   UNL     1      44.860 -21.247   4.851  1.00  0.00     0.001 A 
HETATM   21  C   UNL     1      44.313 -20.443   5.839  1.00  0.00     0.001 A 
HETATM   22  C   UNL     1      43.229 -18.243   1.401  1.00  0.00     0.003 A 
HETATM   23  C   UNL     1      42.744 -17.361   2.363  1.00  0.00     0.030 A 
ENDBRANCH   1  14
TORSDOF 1
ENDMDL
MODEL 2
REMARK VINA RESULT:      -7.9      1.306      2.575
REMARK  1 active torsions:
REMARK  status: ('A' for Active; 'I' for Inactive)
REMARK    1  A    between atoms: C_5  and  N_6 
ROOT
HETATM    1  N   UNL     1      42.856 -17.453   5.201  1.00  0.00    -0.320 N 
HETATM    2  C   UNL     1      41.502 -17.106   4.925  1.00  0.00     0.141 C 
HETATM    3  N   UNL     1      40.502 -17.915   5.127  1.00  0.00    -0.380 N 
HETATM    4  H   UNL     1      39.561 -17.609   4.922  1.00  0.00     0.158 HD
HETATM    5  H   UNL     1      40.675 -18.843   5.491  1.00  0.00     0.158 HD
HETATM    6  S   UNL     1      41.319 -15.508   4.328  1.00  0.00    -0.086 SA
HETATM    7  C   UNL     1      43.145 -15.315   4.132  1.00  0.00     0.093 C 
HETATM    8  C   UNL     1      43.768 -16.286   5.165  1.00  0.00     0.121 C 
HETATM    9  C   UNL     1      43.662 -13.915   4.391  1.00  0.00     0.158 C 
HETATM   10  S   UNL     1      44.067 -13.848   6.118  1.00  0.00     0.147 S 
HETATM   11  O   UNL     1      43.069 -13.059   6.805  1.00  0.00    -0.228 OA
HETATM   12  O   UNL     1      45.485 -13.587   6.238  1.00  0.00    -0.228 OA
HETATM   13  C   UNL     1      43.795 -15.556   6.508  1.00  0.00     0.167 C 
ENDROOT
BRANCH   1  14
HETATM   14  C   UNL     1      43.397 -18.734   5.447  1.00  0.00     0.048 A 
HETATM   15  C   UNL     1      43.793 -19.607   4.382  1.00  0.00     0.001 A 
HETATM   16  C   UNL     1      44.188 -20.937   4.688  1.00  0.00    -0.024 A 
HETATM   17  C   UNL     1      43.853 -19.227   3.017  1.00  0.00     0.014 A 
HETATM   18  C   UNL     1      44.534 -21.832   3.663  1.00  0.00     0.012 A 
HETATM   19  C   UNL     1      44.247 -21.362   6.019  1.00  0.00     0.012 A 
HETATM   20  C   UNL     1      44.531 -21.434   2.329  1.00  0.00     0.001 A 
HETATM   21  C   UNL     1      44.203 -20.126   2.006  1.00  0.00     0.001 A 
HETATM   22  C   UNL     1      43.923 -20.495   7.055  1.00  0.00     0.003 A 
HETATM   23  C   UNL     1      43.500 -19.199   6.770  1.00  0.00     0.030 A 
ENDBRANCH   1  14
TORSDOF 1
ENDMDL
MODEL 3
REMARK VINA RESULT:      -7.5      3.124      4.268
REMARK  1 active torsions:
REMARK  status: ('A' for Active; 'I' for Inactive)
REMARK    1  A    between atoms: C_5  and  N_6 
ROOT
HETATM    1  N   UNL     1      40.683 -15.061   3.538  1.00  0.00    -0.320 N 
HETATM    2  C   UNL     1      39.699 -15.061   2.508  1.00  0.00     0.141 C 
HETATM    3  N   UNL     1      39.121 -16.143   2.072  1.00  0.00    -0.380 N 
HETATM    4  H   UNL     1      38.421 -16.079   1.346  1.00  0.00     0.158 HD
HETATM    5  H   UNL     1      39.375 -17.039   2.468  1.00  0.00     0.158 HD
HETATM    6  S   UNL     1      39.331 -13.491   1.921  1.00  0.00    -0.086 SA
HETATM    7  C   UNL     1      40.743 -12.753   2.855  1.00  0.00     0.093 C 
HETATM    8  C   UNL     1      40.975 -13.703   4.055  1.00  0.00     0.121 C 
HETATM    9  C   UNL     1      40.492 -11.351   3.372  1.00  0.00     0.158 C 
HETATM   10  S   UNL     1      39.807 -11.539   4.998  1.00  0.00     0.147 S 
HETATM   11  O   UNL     1      38.395 -11.228   4.953  1.00  0.00    -0.228 OA
HETATM   12  O   UNL     1      40.711 -10.919   5.942  1.00  0.00    -0.228 OA
HETATM   13  C   UNL     1      39.986 -13.296   5.148  1.00  0.00     0.167 C 
ENDROOT
BRANCH   1  14
HETATM   14  C   UNL     1      41.403 -16.158   4.059  1.00  0.00     0.048 A 
HETATM   15  C   UNL     1      42.350 -16.887   3.268  1.00  0.00     0.001 A 
HETATM   16  C   UNL     1      42.930 -18.070   3.799  1.00  0.00    -0.024 A 
HETATM   17  C   UNL     1      42.788 -16.490   1.979  1.00  0.00     0.014 A 
HETATM   18  C   UNL     1      43.824 -18.833   3.030  1.00  0.00     0.012 A 
HETATM   19  C   UNL     1      42.622 -18.478   5.101  1.00  0.00     0.012 A 
HETATM   20  C   UNL     1      44.189 -18.436   1.747  1.00  0.00     0.001 A 
HETATM   21  C   UNL     1      43.682 -17.256   1.225  1.00  0.00     0.001 A 
HETATM   22  C   UNL     1      41.752 -17.737   5.889  1.00  0.00     0.003 A 
HETATM   23  C   UNL     1      41.148 -16.594   5.371  1.00  0.00     0.030 A 
ENDBRANCH   1  14
TORSDOF 1
ENDMDL
MODEL 4
REMARK VINA RESULT:      -7.4      4.229      5.311
REMARK  1 active torsions:
REMARK  status: ('A' for Active; 'I' for Inactive)
REMARK    1  A    between atoms: C_5  and  N_6 
ROOT
HETATM    1  N   UNL     1      41.384 -14.853   1.805  1.00  0.00    -0.320 N 
HETATM    2  C   UNL     1      40.063 -15.094   1.331  1.00  0.00     0.141 C 
HETATM    3  N   UNL     1      39.165 -15.741   2.018  1.00  0.00    -0.380 N 
HETATM    4  H   UNL     1      38.239 -15.871   1.634  1.00  0.00     0.158 HD
HETATM    5  H   UNL     1      39.400 -16.103   2.933  1.00  0.00     0.158 HD
HETATM    6  S   UNL     1      39.765 -14.424  -0.220  1.00  0.00    -0.086 SA
HETATM    7  C   UNL     1      41.553 -14.025  -0.449  1.00  0.00     0.093 C 
HETATM    8  C   UNL     1      42.119 -13.863   0.983  1.00  0.00     0.121 C 
HETATM    9  C   UNL     1      41.819 -12.757  -1.235  1.00  0.00     0.158 C 
HETATM   10  S   UNL     1      41.910 -11.446  -0.042  1.00  0.00     0.147 S 
HETATM   11  O   UNL     1      40.710 -10.644  -0.131  1.00  0.00    -0.228 OA
HETATM   12  O   UNL     1      43.237 -10.872  -0.105  1.00  0.00    -0.228 OA
HETATM   13  C   UNL     1      41.814 -12.432   1.428  1.00  0.00     0.167 C 
ENDROOT
BRANCH   1  14
HETATM   14  C   UNL     1      42.047 -15.463   2.893  1.00  0.00     0.048 A 
HETATM   15  C   UNL     1      42.748 -16.705   2.754  1.00  0.00     0.001 A 
HETATM   16  C   UNL     1      43.265 -17.340   3.915  1.00  0.00    -0.024 A 
HETATM   17  C   UNL     1      42.999 -17.347   1.515  1.00  0.00     0.014 A 
HETATM   18  C   UNL     1      43.913 -18.583   3.818  1.00  0.00     0.012 A 
HETATM   19  C   UNL     1      43.143 -16.726   5.164  1.00  0.00     0.012 A 
HETATM   20  C   UNL     1      44.094 -19.206   2.586  1.00  0.00     0.001 A 
HETATM   21  C   UNL     1      43.649 -18.581   1.432  1.00  0.00     0.001 A 
HETATM   22  C   UNL     1      42.519 -15.491   5.289  1.00  0.00     0.003 A 
HETATM   23  C   UNL     1      41.975 -14.871   4.166  1.00  0.00     0.030 A 
ENDBRANCH   1  14
TORSDOF 1
ENDMDL
MODEL 5
REMARK VINA RESULT:      -7.4      3.458      4.877
REMARK  1 active torsions:
REMARK  status: ('A' for Active; 'I' for Inactive)
REMARK    1  A    between atoms: C_5  and  N_6 
ROOT
HETATM    1  N   UNL     1      41.780 -14.590   4.002  1.00  0.00    -0.320 N 
HETATM    2  C   UNL     1      40.384 -14.853   4.105  1.00  0.00     0.141 C 
HETATM    3  N   UNL     1      39.785 -15.097   5.236  1.00  0.00    -0.380 N 
HETATM    4  H   UNL     1      38.788 -15.266   5.248  1.00  0.00     0.158 HD
HETATM    5  H   UNL     1      40.322 -15.112   6.093  1.00  0.00     0.158 HD
HETATM    6  S   UNL     1      39.567 -14.787   2.598  1.00  0.00    -0.086 SA
HETATM    7  C   UNL     1      41.165 -14.690   1.677  1.00  0.00     0.093 C 
HETATM    8  C   UNL     1      42.170 -14.063   2.674  1.00  0.00     0.121 C 
HETATM    9  C   UNL     1      41.117 -13.845   0.420  1.00  0.00     0.158 C 
HETATM   10  S   UNL     1      41.561 -12.199   0.914  1.00  0.00     0.147 S 
HETATM   11  O   UNL     1      40.376 -11.370   0.906  1.00  0.00    -0.228 OA
HETATM   12  O   UNL     1      42.773 -11.831   0.216  1.00  0.00    -0.228 OA
HETATM   13  C   UNL     1      41.989 -12.546   2.599  1.00  0.00     0.167 C 
ENDROOT
BRANCH   1  14
HETATM   14  C   UNL     1      42.785 -14.811   4.970  1.00  0.00     0.048 A 
HETATM   15  C   UNL     1      43.350 -16.110   5.192  1.00  0.00     0.001 A 
HETATM   16  C   UNL     1      44.246 -16.297   6.279  1.00  0.00    -0.024 A 
HETATM   17  C   UNL     1      43.102 -17.240   4.372  1.00  0.00     0.014 A 
HETATM   18  C   UNL     1      44.777 -17.567   6.553  1.00  0.00     0.012 A 
HETATM   19  C   UNL     1      44.615 -15.211   7.078  1.00  0.00     0.012 A 
HETATM   20  C   UNL     1      44.469 -18.664   5.754  1.00  0.00     0.001 A 
HETATM   21  C   UNL     1      43.641 -18.498   4.654  1.00  0.00     0.001 A 
HETATM   22  C   UNL     1      44.116 -13.940   6.822  1.00  0.00     0.003 A 
HETATM   23  C   UNL     1      43.209 -13.746   5.783  1.00  0.00     0.030 A 
ENDBRANCH   1  14
TORSDOF 1
ENDMDL
MODEL 6
REMARK VINA RESULT:      -7.3      2.331      2.749
REMARK  1 active torsions:
REMARK  status: ('A' for Active; 'I' for Inactive)
REMARK    1  A    between atoms: C_5  and  N_6 
ROOT
HETATM    1  N   UNL     1      41.415 -15.532   2.859  1.00  0.00    -0.320 N 
HETATM    2  C   UNL     1      40.056 -15.384   2.458  1.00  0.00     0.141 C 
HETATM    3  N   UNL     1      39.343 -16.361   1.975  1.00  0.00    -0.380 N 
HETATM    4  H   UNL     1      38.380 -16.197   1.717  1.00  0.00     0.158 HD
HETATM    5  H   UNL     1      39.759 -17.276   1.866  1.00  0.00     0.158 HD
HETATM    6  S   UNL     1      39.446 -13.799   2.701  1.00  0.00    -0.086 SA
HETATM    7  C   UNL     1      41.131 -13.153   3.094  1.00  0.00     0.093 C 
HETATM    8  C   UNL     1      41.916 -14.374   3.634  1.00  0.00     0.121 C 
HETATM    9  C   UNL     1      41.156 -12.048   4.129  1.00  0.00     0.158 C 
HETATM   10  S   UNL     1      41.340 -12.847   5.703  1.00  0.00     0.147 S 
HETATM   11  O   UNL     1      40.081 -12.789   6.411  1.00  0.00    -0.228 OA
HETATM   12  O   UNL     1      42.585 -12.404   6.290  1.00  0.00    -0.228 OA
HETATM   13  C   UNL     1      41.575 -14.505   5.119  1.00  0.00     0.167 C 
ENDROOT
BRANCH   1  14
HETATM   14  C   UNL     1      42.300 -16.594   2.571  1.00  0.00     0.048 A 
HETATM   15  C   UNL     1      42.716 -17.528   3.576  1.00  0.00     0.001 A 
HETATM   16  C   UNL     1      43.722 -18.481   3.260  1.00  0.00    -0.024 A 
HETATM   17  C   UNL     1      42.166 -17.596   4.881  1.00  0.00     0.014 A 
HETATM   18  C   UNL     1      44.186 -19.376   4.236  1.00  0.00     0.012 A 
HETATM   19  C   UNL     1      44.248 -18.542   1.966  1.00  0.00     0.012 A 
HETATM   20  C   UNL     1      43.656 -19.376   5.523  1.00  0.00     0.001 A 
HETATM   21  C   UNL     1      42.634 -18.495   5.842  1.00  0.00     0.001 A 
HETATM   22  C   UNL     1      43.798 -17.678   0.976  1.00  0.00     0.003 A 
HETATM   23  C   UNL     1      42.839 -16.714   1.278  1.00  0.00     0.030 A 
ENDBRANCH   1  14
TORSDOF 1
ENDMDL
MODEL 7
REMARK VINA RESULT:      -7.3      4.266      5.500
REMARK  1 active torsions:
REMARK  status: ('A' for Active; 'I' for Inactive)
REMARK    1  A    between atoms: C_5  and  N_6 
ROOT
HETATM    1  N   UNL     1      41.203 -14.480   3.287  1.00  0.00    -0.320 N 
HETATM    2  C   UNL     1      41.984 -13.294   3.177  1.00  0.00     0.141 C 
HETATM    3  N   UNL     1      43.274 -13.268   3.359  1.00  0.00    -0.380 N 
HETATM    4  H   UNL     1      43.776 -12.397   3.257  1.00  0.00     0.158 HD
HETATM    5  H   UNL     1      43.762 -14.122   3.596  1.00  0.00     0.158 HD
HETATM    6  S   UNL     1      41.062 -11.910   2.755  1.00  0.00    -0.086 SA
HETATM    7  C   UNL     1      39.477 -12.826   3.001  1.00  0.00     0.093 C 
HETATM    8  C   UNL     1      39.829 -14.315   2.760  1.00  0.00     0.121 C 
HETATM    9  C   UNL     1      38.362 -12.420   2.059  1.00  0.00     0.158 C 
HETATM   10  S   UNL     1      38.497 -13.484   0.644  1.00  0.00     0.147 S 
HETATM   11  O   UNL     1      39.025 -12.724  -0.467  1.00  0.00    -0.228 OA
HETATM   12  O   UNL     1      37.281 -14.261   0.549  1.00  0.00    -0.228 OA
HETATM   13  C   UNL     1      39.778 -14.550   1.250  1.00  0.00     0.167 C 
ENDROOT
BRANCH   1  14
HETATM   14  C   UNL     1      41.571 -15.718   3.858  1.00  0.00     0.048 A 
HETATM   15  C   UNL     1      42.309 -16.703   3.123  1.00  0.00     0.001 A 
HETATM   16  C   UNL     1      42.517 -17.984   3.700  1.00  0.00    -0.024 A 
HETATM   17  C   UNL     1      42.887 -16.480   1.847  1.00  0.00     0.014 A 
HETATM   18  C   UNL     1      43.193 -18.986   2.984  1.00  0.00     0.012 A 
HETATM   19  C   UNL     1      42.060 -18.253   4.993  1.00  0.00     0.012 A 
HETATM   20  C   UNL     1      43.702 -18.743   1.712  1.00  0.00     0.001 A 
HETATM   21  C   UNL     1      43.561 -17.485   1.148  1.00  0.00     0.001 A 
HETATM   22  C   UNL     1      41.401 -17.278   5.730  1.00  0.00     0.003 A 
HETATM   23  C   UNL     1      41.157 -16.028   5.165  1.00  0.00     0.030 A 
ENDBRANCH   1  14
TORSDOF 1
ENDMDL
MODEL 8
REMARK VINA RESULT:      -7.3      3.022      4.021
REMARK  1 active torsions:
REMARK  status: ('A' for Active; 'I' for Inactive)
REMARK    1  A    between atoms: C_5  and  N_6 
ROOT
HETATM    1  N   UNL     1      42.168 -16.385   3.580  1.00  0.00    -0.320 N 
HETATM    2  C   UNL     1      40.835 -16.872   3.457  1.00  0.00     0.141 C 
HETATM    3  N   UNL     1      40.264 -17.624   4.354  1.00  0.00    -0.380 N 
HETATM    4  H   UNL     1      39.311 -17.931   4.216  1.00  0.00     0.158 HD
HETATM    5  H   UNL     1      40.778 -17.892   5.183  1.00  0.00     0.158 HD
HETATM    6  S   UNL     1      40.050 -16.346   2.025  1.00  0.00    -0.086 SA
HETATM    7  C   UNL     1      41.626 -15.661   1.349  1.00  0.00     0.093 C 
HETATM    8  C   UNL     1      42.489 -15.330   2.592  1.00  0.00     0.121 C 
HETATM    9  C   UNL     1      41.460 -14.410   0.511  1.00  0.00     0.158 C 
HETATM   10  S   UNL     1      41.607 -13.041   1.630  1.00  0.00     0.147 S 
HETATM   11  O   UNL     1      40.299 -12.461   1.839  1.00  0.00    -0.228 OA
HETATM   12  O   UNL     1      42.753 -12.254   1.231  1.00  0.00    -0.228 OA
HETATM   13  C   UNL     1      42.054 -13.950   3.086  1.00  0.00     0.167 C 
ENDROOT
BRANCH   1  14
HETATM   14  C   UNL     1      43.176 -16.814   4.472  1.00  0.00     0.048 A 
HETATM   15  C   UNL     1      43.842 -18.073   4.314  1.00  0.00     0.001 A 
HETATM   16  C   UNL     1      44.737 -18.513   5.326  1.00  0.00    -0.024 A 
HETATM   17  C   UNL     1      43.696 -18.918   3.185  1.00  0.00     0.014 A 
HETATM   18  C   UNL     1      45.367 -19.764   5.224  1.00  0.00     0.012 A 
HETATM   19  C   UNL     1      45.008 -17.695   6.427  1.00  0.00     0.012 A 
HETATM   20  C   UNL     1      45.157 -20.588   4.122  1.00  0.00     0.001 A 
HETATM   21  C   UNL     1      44.332 -20.159   3.094  1.00  0.00     0.001 A 
HETATM   22  C   UNL     1      44.411 -16.447   6.547  1.00  0.00     0.003 A 
HETATM   23  C   UNL     1      43.503 -16.016   5.582  1.00  0.00     0.030 A 
ENDBRANCH   1  14
TORSDOF 1
ENDMDL
MODEL 9
REMARK VINA RESULT:      -7.3      4.155      5.097
REMARK  1 active torsions:
REMARK  status: ('A' for Active; 'I' for Inactive)
REMARK    1  A    between atoms: C_5  and  N_6 
ROOT
HETATM    1  N   UNL     1      41.226 -15.260   1.262  1.00  0.00    -0.320 N 
HETATM    2  C   UNL     1      39.804 -15.190   1.316  1.00  0.00     0.141 C 
HETATM    3  N   UNL     1      39.081 -15.952   2.086  1.00  0.00    -0.380 N 
HETATM    4  H   UNL     1      38.075 -15.849   2.089  1.00  0.00     0.158 HD
HETATM    5  H   UNL     1      39.532 -16.637   2.678  1.00  0.00     0.158 HD
HETATM    6  S   UNL     1      39.144 -13.986   0.288  1.00  0.00    -0.086 SA
HETATM    7  C   UNL     1      40.781 -13.700  -0.517  1.00  0.00     0.093 C 
HETATM    8  C   UNL     1      41.832 -14.115   0.542  1.00  0.00     0.121 C 
HETATM    9  C   UNL     1      41.036 -12.267  -0.936  1.00  0.00     0.158 C 
HETATM   10  S   UNL     1      41.830 -11.482   0.444  1.00  0.00     0.147 S 
HETATM   11  O   UNL     1      40.888 -10.593   1.086  1.00  0.00    -0.228 OA
HETATM   12  O   UNL     1      43.145 -11.051   0.021  1.00  0.00    -0.228 OA
HETATM   13  C   UNL     1      42.032 -12.915   1.469  1.00  0.00     0.167 C 
ENDROOT
BRANCH   1  14
HETATM   14  C   UNL     1      42.071 -16.277   1.759  1.00  0.00     0.048 A 
HETATM   15  C   UNL     1      42.436 -16.349   3.143  1.00  0.00     0.001 A 
HETATM   16  C   UNL     1      43.406 -17.303   3.553  1.00  0.00    -0.024 A 
HETATM   17  C   UNL     1      41.868 -15.545   4.163  1.00  0.00     0.014 A 
HETATM   18  C   UNL     1      43.822 -17.366   4.893  1.00  0.00     0.012 A 
HETATM   19  C   UNL     1      43.946 -18.198   2.624  1.00  0.00     0.012 A 
HETATM   20  C   UNL     1      43.275 -16.522   5.856  1.00  0.00     0.001 A 
HETATM   21  C   UNL     1      42.287 -15.620   5.494  1.00  0.00     0.001 A 
HETATM   22  C   UNL     1      43.543 -18.168   1.295  1.00  0.00     0.003 A 
HETATM   23  C   UNL     1      42.620 -17.216   0.870  1.00  0.00     0.030 A 
ENDBRANCH   1  14
TORSDOF 1
ENDMDL
MODEL 10
REMARK VINA RESULT:      -7.3      2.941      4.142
REMARK  1 active torsions:
REMARK  status: ('A' for Active; 'I' for Inactive)
REMARK    1  A    between atoms: C_5  and  N_6 
ROOT
HETATM    1  N   UNL     1      42.605 -15.825   5.311  1.00  0.00    -0.320 N 
HETATM    2  C   UNL     1      43.184 -14.562   5.626  1.00  0.00     0.141 C 
HETATM    3  N   UNL     1      44.427 -14.416   5.987  1.00  0.00    -0.380 N 
HETATM    4  H   UNL     1      44.785 -13.493   6.188  1.00  0.00     0.158 HD
HETATM    5  H   UNL     1      45.025 -15.229   6.059  1.00  0.00     0.158 HD
HETATM    6  S   UNL     1      42.090 -13.252   5.454  1.00  0.00    -0.086 SA
HETATM    7  C   UNL     1      40.664 -14.403   5.227  1.00  0.00     0.093 C 
HETATM    8  C   UNL     1      41.281 -15.704   4.657  1.00  0.00     0.121 C 
HETATM    9  C   UNL     1      39.595 -13.902   4.278  1.00  0.00     0.158 C 
HETATM   10  S   UNL     1      40.045 -14.499   2.667  1.00  0.00     0.147 S 
HETATM   11  O   UNL     1      40.545 -13.395   1.879  1.00  0.00    -0.228 OA
HETATM   12  O   UNL     1      38.991 -15.374   2.202  1.00  0.00    -0.228 OA
HETATM   13  C   UNL     1      41.419 -15.511   3.147  1.00  0.00     0.167 C 
ENDROOT
BRANCH   1  14
HETATM   14  C   UNL     1      43.116 -17.113   5.584  1.00  0.00     0.048 A 
HETATM   15  C   UNL     1      43.579 -17.981   4.542  1.00  0.00     0.001 A 
HETATM   16  C   UNL     1      43.940 -19.317   4.865  1.00  0.00    -0.024 A 
HETATM   17  C   UNL     1      43.738 -17.591   3.188  1.00  0.00     0.014 A 
HETATM   18  C   UNL     1      44.349 -20.207   3.858  1.00  0.00     0.012 A 
HETATM   19  C   UNL     1      43.901 -19.752   6.193  1.00  0.00     0.012 A 
HETATM   20  C   UNL     1      44.443 -19.798   2.531  1.00  0.00     0.001 A 
HETATM   21  C   UNL     1      44.151 -18.485   2.197  1.00  0.00     0.001 A 
HETATM   22  C   UNL     1      43.513 -18.890   7.210  1.00  0.00     0.003 A 
HETATM   23  C   UNL     1      43.122 -17.589   6.907  1.00  0.00     0.030 A 
ENDBRANCH   1  14
TORSDOF 1
ENDMDL
