MODEL 1
REMARK VINA RESULT:      -8.1      0.000      0.000
REMARK  4 active torsions:
REMARK  status: ('A' for Active; 'I' for Inactive)
REMARK    1  A    between atoms: C_3  and  N_4 
REMARK       I    between atoms: N_4  and  C_5 
REMARK    2  A    between atoms: C_5  and  C_6 
REMARK    3  A    between atoms: C_14  and  C_15 
REMARK       I    between atoms: C_15  and  N_16 
REMARK    4  A    between atoms: N_16  and  C_17 
ROOT
HETATM    1  C   UNL     1      41.638 -13.182   3.951  1.00  0.00     0.003 A 
HETATM    2  C   UNL     1      42.208 -12.682   5.126  1.00  0.00     0.029 A 
HETATM    3  C   UNL     1      42.799 -13.544   6.052  1.00  0.00     0.036 A 
HETATM    4  C   UNL     1      42.816 -14.918   5.788  1.00  0.00     0.046 A 
HETATM    5  C   UNL     1      42.228 -15.424   4.620  1.00  0.00     0.034 A 
HETATM    6  C   UNL     1      41.646 -14.552   3.693  1.00  0.00     0.017 A 
ENDROOT
BRANCH   5   7
HETATM    7  C   UNL     1      42.261 -16.891   4.386  1.00  0.00     0.257 C 
HETATM    8  N   UNL     1      43.353 -17.333   3.679  1.00  0.00    -0.307 N 
HETATM    9  H   UNL     1      43.986 -16.662   3.264  1.00  0.00     0.170 HD
HETATM   10  O   UNL     1      41.327 -17.572   4.791  1.00  0.00    -0.267 OA
BRANCH   8  11
HETATM   11  C   UNL     1      43.682 -18.642   3.333  1.00  0.00     0.130 A 
HETATM   12  N   UNL     1      44.375 -19.291   4.295  1.00  0.00    -0.242 NA
HETATM   13  C   UNL     1      44.737 -20.574   4.043  1.00  0.00     0.142 A 
HETATM   14  C   UNL     1      44.428 -21.249   2.875  1.00  0.00     0.051 A 
HETATM   15 CL   UNL     1      44.918 -22.873   2.633  1.00  0.00    -0.083 Cl
HETATM   16  C   UNL     1      43.705 -20.571   1.903  1.00  0.00     0.029 A 
HETATM   17  C   UNL     1      43.326 -19.247   2.134  1.00  0.00     0.052 A 
ENDBRANCH   8  11
ENDBRANCH   5   7
BRANCH   3  18
HETATM   18  N   UNL     1      43.379 -13.117   7.258  1.00  0.00    -0.322 N 
HETATM   19  C   UNL     1      44.710 -13.125   7.628  1.00  0.00     0.276 C 
HETATM   20  O   UNL     1      45.653 -13.545   6.967  1.00  0.00    -0.266 OA
HETATM   21  H   UNL     1      42.769 -12.731   7.977  1.00  0.00     0.169 HD
BRANCH  19  22
HETATM   22  C   UNL     1      44.905 -12.544   8.970  1.00  0.00     0.146 A 
HETATM   23  N   UNL     1      44.432 -13.147  10.084  1.00  0.00    -0.170 NA
HETATM   24  N   UNL     1      44.794 -12.319  11.081  1.00  0.00    -0.289 N 
HETATM   25  H   UNL     1      44.538 -12.567  12.031  1.00  0.00     0.188 HD
HETATM   26  C   UNL     1      45.478 -11.220  10.658  1.00  0.00     0.112 A 
HETATM   27  C   UNL     1      45.570 -11.333   9.292  1.00  0.00     0.058 A 
ENDBRANCH  19  22
ENDBRANCH   3  18
TORSDOF 4
ENDMDL
MODEL 2
REMARK VINA RESULT:      -8.0      3.786      5.636
REMARK  4 active torsions:
REMARK  status: ('A' for Active; 'I' for Inactive)
REMARK    1  A    between atoms: C_3  and  N_4 
REMARK       I    between atoms: N_4  and  C_5 
REMARK    2  A    between atoms: C_5  and  C_6 
REMARK    3  A    between atoms: C_14  and  C_15 
REMARK       I    between atoms: C_15  and  N_16 
REMARK    4  A    between atoms: N_16  and  C_17 
ROOT
HETATM    1  C   UNL     1      45.831 -11.005   9.976  1.00  0.00     0.003 A 
HETATM    2  C   UNL     1      44.540 -10.594  10.321  1.00  0.00     0.029 A 
HETATM    3  C   UNL     1      43.424 -11.157   9.698  1.00  0.00     0.036 A 
HETATM    4  C   UNL     1      43.615 -12.141   8.721  1.00  0.00     0.046 A 
HETATM    5  C   UNL     1      44.908 -12.540   8.359  1.00  0.00     0.034 A 
HETATM    6  C   UNL     1      46.021 -11.978   8.996  1.00  0.00     0.017 A 
ENDROOT
BRANCH   5   7
HETATM    7  C   UNL     1      45.063 -13.582   7.311  1.00  0.00     0.257 C 
HETATM    8  N   UNL     1      44.174 -14.625   7.404  1.00  0.00    -0.307 N 
HETATM    9  H   UNL     1      43.570 -14.697   8.212  1.00  0.00     0.170 HD
HETATM   10  O   UNL     1      45.965 -13.461   6.490  1.00  0.00    -0.267 OA
BRANCH   8  11
HETATM   11  C   UNL     1      44.046 -15.726   6.559  1.00  0.00     0.130 A 
HETATM   12  N   UNL     1      43.314 -15.467   5.453  1.00  0.00    -0.242 NA
HETATM   13  C   UNL     1      43.137 -16.484   4.572  1.00  0.00     0.142 A 
HETATM   14  C   UNL     1      43.672 -17.750   4.737  1.00  0.00     0.051 A 
HETATM   15 CL   UNL     1      43.407 -18.982   3.574  1.00  0.00    -0.083 Cl
HETATM   16  C   UNL     1      44.431 -17.994   5.872  1.00  0.00     0.029 A 
HETATM   17  C   UNL     1      44.622 -16.967   6.799  1.00  0.00     0.052 A 
ENDBRANCH   8  11
ENDBRANCH   5   7
BRANCH   3  18
HETATM   18  N   UNL     1      42.100 -10.785   9.982  1.00  0.00    -0.322 N 
HETATM   19  C   UNL     1      41.401 -10.917  11.167  1.00  0.00     0.276 C 
HETATM   20  O   UNL     1      41.808 -11.423  12.206  1.00  0.00    -0.266 OA
HETATM   21  H   UNL     1      41.553 -10.344   9.245  1.00  0.00     0.169 HD
BRANCH  19  22
HETATM   22  C   UNL     1      40.040 -10.358  11.061  1.00  0.00     0.146 A 
HETATM   23  N   UNL     1      39.324 -10.436   9.917  1.00  0.00    -0.170 NA
HETATM   24  N   UNL     1      38.169  -9.812  10.213  1.00  0.00    -0.289 N 
HETATM   25  H   UNL     1      37.460  -9.742   9.490  1.00  0.00     0.188 HD
HETATM   26  C   UNL     1      38.111  -9.346  11.491  1.00  0.00     0.112 A 
HETATM   27  C   UNL     1      39.310  -9.682  12.072  1.00  0.00     0.058 A 
ENDBRANCH  19  22
ENDBRANCH   3  18
TORSDOF 4
ENDMDL
MODEL 3
REMARK VINA RESULT:      -8.0      4.918      8.326
REMARK  4 active torsions:
REMARK  status: ('A' for Active; 'I' for Inactive)
REMARK    1  A    between atoms: C_3  and  N_4 
REMARK       I    between atoms: N_4  and  C_5 
REMARK    2  A    between atoms: C_5  and  C_6 
REMARK    3  A    between atoms: C_14  and  C_15 
REMARK       I    between atoms: C_15  and  N_16 
REMARK    4  A    between atoms: N_16  and  C_17 
ROOT
HETATM    1  C   UNL     1      41.972 -13.566   2.245  1.00  0.00     0.003 A 
HETATM    2  C   UNL     1      41.106 -13.608   1.148  1.00  0.00     0.029 A 
HETATM    3  C   UNL     1      41.053 -14.736   0.326  1.00  0.00     0.036 A 
HETATM    4  C   UNL     1      41.879 -15.827   0.616  1.00  0.00     0.046 A 
HETATM    5  C   UNL     1      42.762 -15.781   1.703  1.00  0.00     0.034 A 
HETATM    6  C   UNL     1      42.802 -14.650   2.527  1.00  0.00     0.017 A 
ENDROOT
BRANCH   5   7
HETATM    7  C   UNL     1      43.627 -16.960   1.968  1.00  0.00     0.257 C 
HETATM    8  N   UNL     1      43.157 -17.807   2.941  1.00  0.00    -0.307 N 
HETATM    9  H   UNL     1      42.352 -17.540   3.492  1.00  0.00     0.170 HD
HETATM   10  O   UNL     1      44.679 -17.068   1.349  1.00  0.00    -0.267 OA
BRANCH   8  11
HETATM   11  C   UNL     1      43.718 -19.002   3.387  1.00  0.00     0.130 A 
HETATM   12  N   UNL     1      44.026 -18.990   4.703  1.00  0.00    -0.242 NA
HETATM   13  C   UNL     1      44.578 -20.115   5.223  1.00  0.00     0.142 A 
HETATM   14  C   UNL     1      44.827 -21.263   4.491  1.00  0.00     0.051 A 
HETATM   15 CL   UNL     1      45.523 -22.648   5.224  1.00  0.00    -0.083 Cl
HETATM   16  C   UNL     1      44.493 -21.262   3.145  1.00  0.00     0.029 A 
HETATM   17  C   UNL     1      43.931 -20.115   2.582  1.00  0.00     0.052 A 
ENDBRANCH   8  11
ENDBRANCH   5   7
BRANCH   3  18
HETATM   18  N   UNL     1      40.220 -14.844  -0.799  1.00  0.00    -0.322 N 
HETATM   19  C   UNL     1      40.462 -14.437  -2.097  1.00  0.00     0.276 C 
HETATM   20  O   UNL     1      41.463 -13.863  -2.511  1.00  0.00    -0.266 OA
HETATM   21  H   UNL     1      39.311 -15.290  -0.685  1.00  0.00     0.169 HD
BRANCH  19  22
HETATM   22  C   UNL     1      39.341 -14.778  -2.992  1.00  0.00     0.146 A 
HETATM   23  N   UNL     1      39.516 -15.538  -4.097  1.00  0.00    -0.170 NA
HETATM   24  N   UNL     1      38.287 -15.610  -4.641  1.00  0.00    -0.289 N 
HETATM   25  H   UNL     1      38.170 -16.138  -5.499  1.00  0.00     0.188 HD
HETATM   26  C   UNL     1      37.336 -14.937  -3.935  1.00  0.00     0.112 A 
HETATM   27  C   UNL     1      37.985 -14.385  -2.857  1.00  0.00     0.058 A 
ENDBRANCH  19  22
ENDBRANCH   3  18
TORSDOF 4
ENDMDL
MODEL 4
REMARK VINA RESULT:      -7.8      4.756      8.267
REMARK  4 active torsions:
REMARK  status: ('A' for Active; 'I' for Inactive)
REMARK    1  A    between atoms: C_3  and  N_4 
REMARK       I    between atoms: N_4  and  C_5 
REMARK    2  A    between atoms: C_5  and  C_6 
REMARK    3  A    between atoms: C_14  and  C_15 
REMARK       I    between atoms: C_15  and  N_16 
REMARK    4  A    between atoms: N_16  and  C_17 
ROOT
HETATM    1  C   UNL     1      42.114 -13.328   2.087  1.00  0.00     0.003 A 
HETATM    2  C   UNL     1      41.393 -13.418   0.892  1.00  0.00     0.029 A 
HETATM    3  C   UNL     1      40.881 -14.643   0.460  1.00  0.00     0.036 A 
HETATM    4  C   UNL     1      41.096 -15.783   1.242  1.00  0.00     0.046 A 
HETATM    5  C   UNL     1      41.835 -15.700   2.430  1.00  0.00     0.034 A 
HETATM    6  C   UNL     1      42.337 -14.467   2.860  1.00  0.00     0.017 A 
ENDROOT
BRANCH   5   7
HETATM    7  C   UNL     1      42.047 -16.939   3.223  1.00  0.00     0.257 C 
HETATM    8  N   UNL     1      43.264 -17.545   3.024  1.00  0.00    -0.307 N 
HETATM    9  H   UNL     1      43.876 -17.209   2.293  1.00  0.00     0.170 HD
HETATM   10  O   UNL     1      41.140 -17.339   3.943  1.00  0.00    -0.267 OA
BRANCH   8  11
HETATM   11  C   UNL     1      43.767 -18.689   3.640  1.00  0.00     0.130 A 
HETATM   12  N   UNL     1      44.072 -19.675   2.767  1.00  0.00    -0.242 NA
HETATM   13  C   UNL     1      44.569 -20.828   3.281  1.00  0.00     0.142 A 
HETATM   14  C   UNL     1      44.791 -21.041   4.631  1.00  0.00     0.051 A 
HETATM   15 CL   UNL     1      45.428 -22.526   5.201  1.00  0.00    -0.083 Cl
HETATM   16  C   UNL     1      44.484 -20.013   5.511  1.00  0.00     0.029 A 
HETATM   17  C   UNL     1      43.963 -18.818   5.010  1.00  0.00     0.052 A 
ENDBRANCH   8  11
ENDBRANCH   5   7
BRANCH   3  18
HETATM   18  N   UNL     1      40.160 -14.811  -0.733  1.00  0.00    -0.322 N 
HETATM   19  C   UNL     1      40.579 -14.601  -2.033  1.00  0.00     0.276 C 
HETATM   20  O   UNL     1      41.675 -14.189  -2.393  1.00  0.00    -0.266 OA
HETATM   21  H   UNL     1      39.199 -15.145  -0.674  1.00  0.00     0.169 HD
BRANCH  19  22
HETATM   22  C   UNL     1      39.524 -14.941  -3.006  1.00  0.00     0.146 A 
HETATM   23  N   UNL     1      39.779 -15.690  -4.102  1.00  0.00    -0.170 NA
HETATM   24  N   UNL     1      38.591 -15.764  -4.730  1.00  0.00    -0.289 N 
HETATM   25  H   UNL     1      38.536 -16.285  -5.599  1.00  0.00     0.188 HD
HETATM   26  C   UNL     1      37.589 -15.104  -4.085  1.00  0.00     0.112 A 
HETATM   27  C   UNL     1      38.159 -14.557  -2.960  1.00  0.00     0.058 A 
ENDBRANCH  19  22
ENDBRANCH   3  18
TORSDOF 4
ENDMDL
MODEL 5
REMARK VINA RESULT:      -7.8      3.796      5.450
REMARK  4 active torsions:
REMARK  status: ('A' for Active; 'I' for Inactive)
REMARK    1  A    between atoms: C_3  and  N_4 
REMARK       I    between atoms: N_4  and  C_5 
REMARK    2  A    between atoms: C_5  and  C_6 
REMARK    3  A    between atoms: C_14  and  C_15 
REMARK       I    between atoms: C_15  and  N_16 
REMARK    4  A    between atoms: N_16  and  C_17 
ROOT
HETATM    1  C   UNL     1      44.037 -17.456   5.904  1.00  0.00     0.003 A 
HETATM    2  C   UNL     1      44.382 -16.509   6.873  1.00  0.00     0.029 A 
HETATM    3  C   UNL     1      43.971 -15.180   6.747  1.00  0.00     0.036 A 
HETATM    4  C   UNL     1      43.206 -14.808   5.636  1.00  0.00     0.046 A 
HETATM    5  C   UNL     1      42.876 -15.751   4.653  1.00  0.00     0.034 A 
HETATM    6  C   UNL     1      43.283 -17.082   4.793  1.00  0.00     0.017 A 
ENDROOT
BRANCH   5   7
HETATM    7  C   UNL     1      42.069 -15.308   3.486  1.00  0.00     0.257 C 
HETATM    8  N   UNL     1      40.823 -14.825   3.802  1.00  0.00    -0.307 N 
HETATM    9  H   UNL     1      40.480 -14.906   4.750  1.00  0.00     0.170 HD
HETATM   10  O   UNL     1      42.541 -15.437   2.363  1.00  0.00    -0.267 OA
BRANCH   8  11
HETATM   11  C   UNL     1      39.856 -14.309   2.941  1.00  0.00     0.130 A 
HETATM   12  N   UNL     1      39.641 -12.986   3.111  1.00  0.00    -0.242 NA
HETATM   13  C   UNL     1      38.714 -12.399   2.313  1.00  0.00     0.142 A 
HETATM   14  C   UNL     1      37.997 -13.071   1.337  1.00  0.00     0.051 A 
HETATM   15 CL   UNL     1      36.846 -12.255   0.364  1.00  0.00    -0.083 Cl
HETATM   16  C   UNL     1      38.240 -14.426   1.168  1.00  0.00     0.029 A 
HETATM   17  C   UNL     1      39.183 -15.057   1.982  1.00  0.00     0.052 A 
ENDBRANCH   8  11
ENDBRANCH   5   7
BRANCH   3  18
HETATM   18  N   UNL     1      44.290 -14.172   7.672  1.00  0.00    -0.322 N 
HETATM   19  C   UNL     1      45.331 -13.265   7.636  1.00  0.00     0.276 C 
HETATM   20  O   UNL     1      46.209 -13.188   6.784  1.00  0.00    -0.266 OA
HETATM   21  H   UNL     1      43.688 -14.056   8.485  1.00  0.00     0.169 HD
BRANCH  19  22
HETATM   22  C   UNL     1      45.284 -12.339   8.783  1.00  0.00     0.146 A 
HETATM   23  N   UNL     1      46.027 -11.209   8.819  1.00  0.00    -0.170 NA
HETATM   24  N   UNL     1      45.722 -10.657  10.007  1.00  0.00    -0.289 N 
HETATM   25  H   UNL     1      46.172  -9.784  10.263  1.00  0.00     0.188 HD
HETATM   26  C   UNL     1      44.817 -11.375  10.729  1.00  0.00     0.112 A 
HETATM   27  C   UNL     1      44.510 -12.474   9.964  1.00  0.00     0.058 A 
ENDBRANCH  19  22
ENDBRANCH   3  18
TORSDOF 4
ENDMDL
MODEL 6
REMARK VINA RESULT:      -7.7      3.489      4.654
REMARK  4 active torsions:
REMARK  status: ('A' for Active; 'I' for Inactive)
REMARK    1  A    between atoms: C_3  and  N_4 
REMARK       I    between atoms: N_4  and  C_5 
REMARK    2  A    between atoms: C_5  and  C_6 
REMARK    3  A    between atoms: C_14  and  C_15 
REMARK       I    between atoms: C_15  and  N_16 
REMARK    4  A    between atoms: N_16  and  C_17 
ROOT
HETATM    1  C   UNL     1      44.090 -17.488   5.950  1.00  0.00     0.003 A 
HETATM    2  C   UNL     1      44.436 -16.528   6.907  1.00  0.00     0.029 A 
HETATM    3  C   UNL     1      43.971 -15.216   6.798  1.00  0.00     0.036 A 
HETATM    4  C   UNL     1      43.150 -14.872   5.718  1.00  0.00     0.046 A 
HETATM    5  C   UNL     1      42.818 -15.827   4.748  1.00  0.00     0.034 A 
HETATM    6  C   UNL     1      43.281 -17.142   4.869  1.00  0.00     0.017 A 
ENDROOT
BRANCH   5   7
HETATM    7  C   UNL     1      41.951 -15.415   3.612  1.00  0.00     0.257 C 
HETATM    8  N   UNL     1      42.574 -15.414   2.388  1.00  0.00    -0.307 N 
HETATM    9  H   UNL     1      43.572 -15.563   2.334  1.00  0.00     0.170 HD
HETATM   10  O   UNL     1      40.796 -15.080   3.847  1.00  0.00    -0.267 OA
BRANCH   8  11
HETATM   11  C   UNL     1      42.025 -15.112   1.143  1.00  0.00     0.130 A 
HETATM   12  N   UNL     1      41.922 -13.784   0.913  1.00  0.00    -0.242 NA
HETATM   13  C   UNL     1      41.397 -13.397  -0.277  1.00  0.00     0.142 A 
HETATM   14  C   UNL     1      40.980 -14.279  -1.260  1.00  0.00     0.051 A 
HETATM   15 CL   UNL     1      40.331 -13.711  -2.741  1.00  0.00    -0.083 Cl
HETATM   16  C   UNL     1      41.105 -15.638  -1.011  1.00  0.00     0.029 A 
HETATM   17  C   UNL     1      41.634 -16.063   0.209  1.00  0.00     0.052 A 
ENDBRANCH   8  11
ENDBRANCH   5   7
BRANCH   3  18
HETATM   18  N   UNL     1      44.287 -14.197   7.712  1.00  0.00    -0.322 N 
HETATM   19  C   UNL     1      45.306 -13.266   7.650  1.00  0.00     0.276 C 
HETATM   20  O   UNL     1      46.163 -13.174   6.779  1.00  0.00    -0.266 OA
HETATM   21  H   UNL     1      43.700 -14.090   8.538  1.00  0.00     0.169 HD
BRANCH  19  22
HETATM   22  C   UNL     1      45.263 -12.336   8.794  1.00  0.00     0.146 A 
HETATM   23  N   UNL     1      45.991 -11.196   8.814  1.00  0.00    -0.170 NA
HETATM   24  N   UNL     1      45.696 -10.643  10.005  1.00  0.00    -0.289 N 
HETATM   25  H   UNL     1      46.136  -9.763  10.250  1.00  0.00     0.188 HD
HETATM   26  C   UNL     1      44.812 -11.372  10.743  1.00  0.00     0.112 A 
HETATM   27  C   UNL     1      44.509 -12.478   9.987  1.00  0.00     0.058 A 
ENDBRANCH  19  22
ENDBRANCH   3  18
TORSDOF 4
ENDMDL
MODEL 7
REMARK VINA RESULT:      -7.3      3.060      3.323
REMARK  4 active torsions:
REMARK  status: ('A' for Active; 'I' for Inactive)
REMARK    1  A    between atoms: C_3  and  N_4 
REMARK       I    between atoms: N_4  and  C_5 
REMARK    2  A    between atoms: C_5  and  C_6 
REMARK    3  A    between atoms: C_14  and  C_15 
REMARK       I    between atoms: C_15  and  N_16 
REMARK    4  A    between atoms: N_16  and  C_17 
ROOT
HETATM    1  C   UNL     1      42.265 -13.083   2.656  1.00  0.00     0.003 A 
HETATM    2  C   UNL     1      41.860 -12.382   3.798  1.00  0.00     0.029 A 
HETATM    3  C   UNL     1      41.576 -13.061   4.984  1.00  0.00     0.036 A 
HETATM    4  C   UNL     1      41.702 -14.454   5.018  1.00  0.00     0.046 A 
HETATM    5  C   UNL     1      42.087 -15.160   3.870  1.00  0.00     0.034 A 
HETATM    6  C   UNL     1      42.380 -14.471   2.688  1.00  0.00     0.017 A 
ENDROOT
BRANCH   5   7
HETATM    7  C   UNL     1      42.199 -16.640   3.950  1.00  0.00     0.257 C 
HETATM    8  N   UNL     1      43.483 -17.111   4.076  1.00  0.00    -0.307 N 
HETATM    9  H   UNL     1      44.261 -16.472   3.987  1.00  0.00     0.170 HD
HETATM   10  O   UNL     1      41.178 -17.312   3.861  1.00  0.00    -0.267 OA
BRANCH   8  11
HETATM   11  C   UNL     1      43.906 -18.432   4.207  1.00  0.00     0.130 A 
HETATM   12  N   UNL     1      44.057 -18.820   5.493  1.00  0.00    -0.242 NA
HETATM   13  C   UNL     1      44.467 -20.094   5.715  1.00  0.00     0.142 A 
HETATM   14  C   UNL     1      44.721 -21.010   4.708  1.00  0.00     0.051 A 
HETATM   15 CL   UNL     1      45.231 -22.606   5.071  1.00  0.00    -0.083 Cl
HETATM   16  C   UNL     1      44.549 -20.599   3.395  1.00  0.00     0.029 A 
HETATM   17  C   UNL     1      44.135 -19.290   3.138  1.00  0.00     0.052 A 
ENDBRANCH   8  11
ENDBRANCH   5   7
BRANCH   3  18
HETATM   18  N   UNL     1      41.153 -12.428   6.165  1.00  0.00    -0.322 N 
HETATM   19  C   UNL     1      39.902 -11.930   6.478  1.00  0.00     0.276 C 
HETATM   20  O   UNL     1      38.913 -11.923   5.755  1.00  0.00    -0.266 OA
HETATM   21  H   UNL     1      41.827 -12.313   6.919  1.00  0.00     0.169 HD
BRANCH  19  22
HETATM   22  C   UNL     1      39.864 -11.380   7.846  1.00  0.00     0.146 A 
HETATM   23  N   UNL     1      38.861 -11.672   8.705  1.00  0.00    -0.170 NA
HETATM   24  N   UNL     1      39.174 -10.982   9.817  1.00  0.00    -0.289 N 
HETATM   25  H   UNL     1      38.550 -11.045  10.615  1.00  0.00     0.188 HD
HETATM   26  C   UNL     1      40.330 -10.269   9.712  1.00  0.00     0.112 A 
HETATM   27  C   UNL     1      40.805 -10.504   8.445  1.00  0.00     0.058 A 
ENDBRANCH  19  22
ENDBRANCH   3  18
TORSDOF 4
ENDMDL
MODEL 8
REMARK VINA RESULT:      -7.2      5.336      8.207
REMARK  4 active torsions:
REMARK  status: ('A' for Active; 'I' for Inactive)
REMARK    1  A    between atoms: C_3  and  N_4 
REMARK       I    between atoms: N_4  and  C_5 
REMARK    2  A    between atoms: C_5  and  C_6 
REMARK    3  A    between atoms: C_14  and  C_15 
REMARK       I    between atoms: C_15  and  N_16 
REMARK    4  A    between atoms: N_16  and  C_17 
ROOT
HETATM    1  C   UNL     1      40.638 -15.915   5.746  1.00  0.00     0.003 A 
HETATM    2  C   UNL     1      41.274 -17.103   5.369  1.00  0.00     0.029 A 
HETATM    3  C   UNL     1      41.776 -17.261   4.076  1.00  0.00     0.036 A 
HETATM    4  C   UNL     1      41.637 -16.213   3.160  1.00  0.00     0.046 A 
HETATM    5  C   UNL     1      40.983 -15.030   3.528  1.00  0.00     0.034 A 
HETATM    6  C   UNL     1      40.491 -14.876   4.829  1.00  0.00     0.017 A 
ENDROOT
BRANCH   5   7
HETATM    7  C   UNL     1      40.849 -13.947   2.519  1.00  0.00     0.257 C 
HETATM    8  N   UNL     1      41.792 -13.976   1.521  1.00  0.00    -0.307 N 
HETATM    9  H   UNL     1      42.568 -14.622   1.583  1.00  0.00     0.170 HD
HETATM   10  O   UNL     1      39.964 -13.113   2.665  1.00  0.00    -0.267 OA
BRANCH   8  11
HETATM   11  C   UNL     1      41.910 -13.126   0.423  1.00  0.00     0.130 A 
HETATM   12  N   UNL     1      42.455 -11.928   0.732  1.00  0.00    -0.242 NA
HETATM   13  C   UNL     1      42.608 -11.035  -0.279  1.00  0.00     0.142 A 
HETATM   14  C   UNL     1      42.254 -11.288  -1.593  1.00  0.00     0.051 A 
HETATM   15 CL   UNL     1      42.484 -10.108  -2.815  1.00  0.00    -0.083 Cl
HETATM   16  C   UNL     1      41.708 -12.527  -1.894  1.00  0.00     0.029 A 
HETATM   17  C   UNL     1      41.532 -13.462  -0.871  1.00  0.00     0.052 A 
ENDBRANCH   8  11
ENDBRANCH   5   7
BRANCH   3  18
HETATM   18  N   UNL     1      42.414 -18.428   3.623  1.00  0.00    -0.322 N 
HETATM   19  C   UNL     1      43.695 -18.872   3.889  1.00  0.00     0.276 C 
HETATM   20  O   UNL     1      44.545 -18.300   4.562  1.00  0.00    -0.266 OA
HETATM   21  H   UNL     1      41.888 -19.064   3.026  1.00  0.00     0.169 HD
BRANCH  19  22
HETATM   22  C   UNL     1      43.962 -20.175   3.253  1.00  0.00     0.146 A 
HETATM   23  N   UNL     1      44.574 -21.181   3.917  1.00  0.00    -0.170 NA
HETATM   24  N   UNL     1      44.644 -22.174   3.012  1.00  0.00    -0.289 N 
HETATM   25  H   UNL     1      45.078 -23.049   3.288  1.00  0.00     0.188 HD
HETATM   26  C   UNL     1      44.102 -21.853   1.804  1.00  0.00     0.112 A 
HETATM   27  C   UNL     1      43.648 -20.562   1.924  1.00  0.00     0.058 A 
ENDBRANCH  19  22
ENDBRANCH   3  18
TORSDOF 4
ENDMDL
MODEL 9
REMARK VINA RESULT:      -7.2      2.873      3.337
REMARK  4 active torsions:
REMARK  status: ('A' for Active; 'I' for Inactive)
REMARK    1  A    between atoms: C_3  and  N_4 
REMARK       I    between atoms: N_4  and  C_5 
REMARK    2  A    between atoms: C_5  and  C_6 
REMARK    3  A    between atoms: C_14  and  C_15 
REMARK       I    between atoms: C_15  and  N_16 
REMARK    4  A    between atoms: N_16  and  C_17 
ROOT
HETATM    1  C   UNL     1      40.624 -11.005   4.111  1.00  0.00     0.003 A 
HETATM    2  C   UNL     1      40.536 -10.853   5.499  1.00  0.00     0.029 A 
HETATM    3  C   UNL     1      41.254 -11.692   6.353  1.00  0.00     0.036 A 
HETATM    4  C   UNL     1      42.066 -12.689   5.802  1.00  0.00     0.046 A 
HETATM    5  C   UNL     1      42.141 -12.857   4.413  1.00  0.00     0.034 A 
HETATM    6  C   UNL     1      41.425 -12.006   3.564  1.00  0.00     0.017 A 
ENDROOT
BRANCH   5   7
HETATM    7  C   UNL     1      43.009 -13.936   3.872  1.00  0.00     0.257 C 
HETATM    8  N   UNL     1      42.454 -15.191   3.914  1.00  0.00    -0.307 N 
HETATM    9  H   UNL     1      41.579 -15.336   4.399  1.00  0.00     0.170 HD
HETATM   10  O   UNL     1      44.132 -13.644   3.478  1.00  0.00    -0.267 OA
BRANCH   8  11
HETATM   11  C   UNL     1      43.000 -16.389   3.456  1.00  0.00     0.130 A 
HETATM   12  N   UNL     1      43.018 -17.361   4.395  1.00  0.00    -0.242 NA
HETATM   13  C   UNL     1      43.533 -18.564   4.035  1.00  0.00     0.142 A 
HETATM   14  C   UNL     1      44.022 -18.848   2.771  1.00  0.00     0.051 A 
HETATM   15 CL   UNL     1      44.652 -20.397   2.393  1.00  0.00    -0.083 Cl
HETATM   16  C   UNL     1      43.983 -17.843   1.817  1.00  0.00     0.029 A 
HETATM   17  C   UNL     1      43.466 -16.592   2.163  1.00  0.00     0.052 A 
ENDBRANCH   8  11
ENDBRANCH   5   7
BRANCH   3  18
HETATM   18  N   UNL     1      41.206 -11.607   7.754  1.00  0.00    -0.322 N 
HETATM   19  C   UNL     1      41.704 -10.616   8.578  1.00  0.00     0.276 C 
HETATM   20  O   UNL     1      42.323  -9.616   8.232  1.00  0.00    -0.266 OA
HETATM   21  H   UNL     1      40.737 -12.352   8.267  1.00  0.00     0.169 HD
BRANCH  19  22
HETATM   22  C   UNL     1      41.403 -10.885   9.996  1.00  0.00     0.146 A 
HETATM   23  N   UNL     1      42.373 -11.196  10.886  1.00  0.00    -0.170 NA
HETATM   24  N   UNL     1      41.709 -11.378  12.041  1.00  0.00    -0.289 N 
HETATM   25  H   UNL     1      42.240 -11.628  12.869  1.00  0.00     0.188 HD
HETATM   26  C   UNL     1      40.364 -11.194  11.935  1.00  0.00     0.112 A 
HETATM   27  C   UNL     1      40.129 -10.872  10.620  1.00  0.00     0.058 A 
ENDBRANCH  19  22
ENDBRANCH   3  18
TORSDOF 4
ENDMDL
MODEL 10
REMARK VINA RESULT:      -7.2      4.679      8.047
REMARK  4 active torsions:
REMARK  status: ('A' for Active; 'I' for Inactive)
REMARK    1  A    between atoms: C_3  and  N_4 
REMARK       I    between atoms: N_4  and  C_5 
REMARK    2  A    between atoms: C_5  and  C_6 
REMARK    3  A    between atoms: C_14  and  C_15 
REMARK       I    between atoms: C_15  and  N_16 
REMARK    4  A    between atoms: N_16  and  C_17 
ROOT
HETATM    1  C   UNL     1      43.849 -15.399   6.510  1.00  0.00     0.003 A 
HETATM    2  C   UNL     1      44.181 -16.733   6.249  1.00  0.00     0.029 A 
HETATM    3  C   UNL     1      43.790 -17.342   5.055  1.00  0.00     0.036 A 
HETATM    4  C   UNL     1      43.060 -16.599   4.120  1.00  0.00     0.046 A 
HETATM    5  C   UNL     1      42.709 -15.269   4.388  1.00  0.00     0.034 A 
HETATM    6  C   UNL     1      43.113 -14.663   5.583  1.00  0.00     0.017 A 
ENDROOT
BRANCH   5   7
HETATM    7  C   UNL     1      41.926 -14.521   3.370  1.00  0.00     0.257 C 
HETATM    8  N   UNL     1      40.569 -14.726   3.428  1.00  0.00    -0.307 N 
HETATM    9  H   UNL     1      40.196 -15.435   4.045  1.00  0.00     0.170 HD
HETATM   10  O   UNL     1      42.527 -13.831   2.556  1.00  0.00    -0.267 OA
BRANCH   8  11
HETATM   11  C   UNL     1      39.576 -14.148   2.639  1.00  0.00     0.130 A 
HETATM   12  N   UNL     1      39.380 -12.837   2.903  1.00  0.00    -0.242 NA
HETATM   13  C   UNL     1      38.431 -12.192   2.180  1.00  0.00     0.142 A 
HETATM   14  C   UNL     1      37.672 -12.794   1.190  1.00  0.00     0.051 A 
HETATM   15 CL   UNL     1      36.493 -11.908   0.316  1.00  0.00    -0.083 Cl
HETATM   16  C   UNL     1      37.895 -14.137   0.925  1.00  0.00     0.029 A 
HETATM   17  C   UNL     1      38.861 -14.827   1.660  1.00  0.00     0.052 A 
ENDBRANCH   8  11
ENDBRANCH   5   7
BRANCH   3  18
HETATM   18  N   UNL     1      44.075 -18.678   4.729  1.00  0.00    -0.322 N 
HETATM   19  C   UNL     1      44.207 -19.764   5.573  1.00  0.00     0.276 C 
HETATM   20  O   UNL     1      44.126 -19.757   6.796  1.00  0.00    -0.266 OA
HETATM   21  H   UNL     1      44.196 -18.920   3.747  1.00  0.00     0.169 HD
BRANCH  19  22
HETATM   22  C   UNL     1      44.465 -21.007   4.822  1.00  0.00     0.146 A 
HETATM   23  N   UNL     1      44.709 -22.180   5.448  1.00  0.00    -0.170 NA
HETATM   24  N   UNL     1      44.904 -23.052   4.442  1.00  0.00    -0.289 N 
HETATM   25  H   UNL     1      45.112 -24.018   4.673  1.00  0.00     0.188 HD
HETATM   26  C   UNL     1      44.790 -22.493   3.204  1.00  0.00     0.112 A 
HETATM   27  C   UNL     1      44.505 -21.166   3.413  1.00  0.00     0.058 A 
ENDBRANCH  19  22
ENDBRANCH   3  18
TORSDOF 4
ENDMDL
