MODEL 1
REMARK VINA RESULT:      -8.3      0.000      0.000
REMARK  10 active torsions:
REMARK  status: ('A' for Active; 'I' for Inactive)
REMARK    1  A    between atoms: C_2  and  N_3 
REMARK    2  A    between atoms: N_3  and  C_5 
REMARK    3  A    between atoms: N_3  and  C_35 
REMARK    4  A    between atoms: C_5  and  C_6 
REMARK    5  A    between atoms: C_6  and  C_7 
REMARK    6  A    between atoms: C_7  and  N_8 
REMARK       I    between atoms: N_8  and  C_9 
REMARK    7  A    between atoms: N_8  and  C_19 
REMARK       I    between atoms: C_9  and  N_10 
REMARK    8  A    between atoms: N_10  and  C_11 
REMARK    9  A    between atoms: C_19  and  C_20 
REMARK   10  A    between atoms: C_21  and  O_22 
ROOT
HETATM    1  N   UNL     1      41.632 -13.842   2.300  1.00  0.00    -0.330 N 
HETATM    2  C   UNL     1      41.402 -12.892   1.279  1.00  0.00     0.323 C 
HETATM    3  N   UNL     1      42.214 -13.061   0.177  1.00  0.00    -0.309 N 
HETATM    4  O   UNL     1      40.480 -12.081   1.334  1.00  0.00    -0.247 OA
HETATM    5  H   UNL     1      42.576 -13.993   0.021  1.00  0.00     0.170 HD
ENDROOT
BRANCH   1   6
HETATM    6  C   UNL     1      40.831 -13.880   3.543  1.00  0.00     0.129 C 
BRANCH   6   7
HETATM    7  C   UNL     1      41.501 -13.605   4.892  1.00  0.00     0.048 C 
BRANCH   7   8
HETATM    8  C   UNL     1      41.567 -14.826   5.808  1.00  0.00     0.236 C 
BRANCH   8   9
HETATM    9  N   UNL     1      42.851 -14.822   6.619  1.00  0.00    -0.072 N 
HETATM   10  H   UNL     1      42.592 -14.308   7.482  1.00  0.00     0.279 HD
BRANCH   9  11
HETATM   11  C   UNL     1      44.004 -14.046   6.011  1.00  0.00     0.230 C 
HETATM   12  C   UNL     1      45.182 -13.915   6.961  1.00  0.00     0.034 C 
ENDBRANCH   9  11
BRANCH   9  13
HETATM   13  C   UNL     1      43.269 -16.209   7.071  1.00  0.00     0.230 C 
HETATM   14  C   UNL     1      42.131 -17.201   6.912  1.00  0.00     0.034 C 
ENDBRANCH   9  13
ENDBRANCH   8   9
ENDBRANCH   7   8
ENDBRANCH   6   7
ENDBRANCH   1   6
BRANCH   1  15
HETATM   15  C   UNL     1      42.953 -14.503   2.426  1.00  0.00     0.170 C 
BRANCH  15  16
HETATM   16  C   UNL     1      42.967 -16.005   2.284  1.00  0.00     0.013 A 
HETATM   17  C   UNL     1      42.678 -16.712   1.126  1.00  0.00     0.170 A 
HETATM   18  N   UNL     1      42.861 -18.032   0.960  1.00  0.00    -0.224 NA
HETATM   19  C   UNL     1      43.346 -18.745   1.987  1.00  0.00     0.072 A 
HETATM   20  C   UNL     1      43.641 -18.152   3.230  1.00  0.00    -0.004 A 
HETATM   21  C   UNL     1      43.583 -20.103   1.826  1.00  0.00     0.072 A 
HETATM   22  C   UNL     1      43.448 -16.768   3.358  1.00  0.00     0.027 A 
HETATM   23  C   UNL     1      44.131 -18.933   4.291  1.00  0.00     0.053 A 
HETATM   24  C   UNL     1      44.345 -20.296   4.110  1.00  0.00     0.103 A 
HETATM   25  C   UNL     1      44.099 -20.875   2.866  1.00  0.00     0.104 A 
HETATM   26  O   UNL     1      44.812 -20.997   5.189  1.00  0.00    -0.346 OA
HETATM   27  O   UNL     1      44.339 -22.197   2.595  1.00  0.00    -0.346 OA
HETATM   28  C   UNL     1      45.184 -22.789   3.591  1.00  0.00     0.202 C 
HETATM   29  C   UNL     1      44.705 -22.412   4.983  1.00  0.00     0.202 C 
BRANCH  17  30
HETATM   30  O   UNL     1      42.180 -16.100   0.017  1.00  0.00    -0.344 OA
HETATM   31  H   UNL     1      42.886 -15.517  -0.294  1.00  0.00     0.219 HD
ENDBRANCH  17  30
ENDBRANCH  15  16
ENDBRANCH   1  15
BRANCH   3  32
HETATM   32  C   UNL     1      42.367 -12.194  -0.923  1.00  0.00     0.036 A 
HETATM   33  C   UNL     1      42.888 -10.900  -0.824  1.00  0.00     0.032 A 
HETATM   34  C   UNL     1      43.039 -10.116  -1.972  1.00  0.00     0.044 A 
HETATM   35  C   UNL     1      42.678 -10.629  -3.212  1.00  0.00     0.116 A 
HETATM   36  F   UNL     1      42.829  -9.875  -4.309  1.00  0.00    -0.206 F 
HETATM   37  C   UNL     1      42.169 -11.914  -3.330  1.00  0.00     0.044 A 
HETATM   38  C   UNL     1      42.017 -12.698  -2.185  1.00  0.00     0.032 A 
ENDBRANCH   3  32
TORSDOF 10
ENDMDL
MODEL 2
REMARK VINA RESULT:      -8.0      3.584      8.162
REMARK  10 active torsions:
REMARK  status: ('A' for Active; 'I' for Inactive)
REMARK    1  A    between atoms: C_2  and  N_3 
REMARK    2  A    between atoms: N_3  and  C_5 
REMARK    3  A    between atoms: N_3  and  C_35 
REMARK    4  A    between atoms: C_5  and  C_6 
REMARK    5  A    between atoms: C_6  and  C_7 
REMARK    6  A    between atoms: C_7  and  N_8 
REMARK       I    between atoms: N_8  and  C_9 
REMARK    7  A    between atoms: N_8  and  C_19 
REMARK       I    between atoms: C_9  and  N_10 
REMARK    8  A    between atoms: N_10  and  C_11 
REMARK    9  A    between atoms: C_19  and  C_20 
REMARK   10  A    between atoms: C_21  and  O_22 
ROOT
HETATM    1  N   UNL     1      43.441 -16.507   6.495  1.00  0.00    -0.330 N 
HETATM    2  C   UNL     1      44.233 -17.609   6.098  1.00  0.00     0.323 C 
HETATM    3  N   UNL     1      43.601 -18.448   5.205  1.00  0.00    -0.309 N 
HETATM    4  O   UNL     1      45.412 -17.722   6.430  1.00  0.00    -0.247 OA
HETATM    5  H   UNL     1      42.867 -18.038   4.642  1.00  0.00     0.170 HD
ENDROOT
BRANCH   1   6
HETATM    6  C   UNL     1      43.947 -15.451   7.400  1.00  0.00     0.129 C 
BRANCH   6   7
HETATM    7  C   UNL     1      44.319 -14.078   6.838  1.00  0.00     0.048 C 
BRANCH   7   8
HETATM    8  C   UNL     1      44.865 -13.110   7.886  1.00  0.00     0.236 C 
BRANCH   8   9
HETATM    9  N   UNL     1      43.738 -12.324   8.534  1.00  0.00    -0.072 N 
HETATM   10  H   UNL     1      43.192 -13.051   9.033  1.00  0.00     0.279 HD
BRANCH   9  11
HETATM   11  C   UNL     1      42.765 -11.668   7.573  1.00  0.00     0.230 C 
HETATM   12  C   UNL     1      41.994 -10.527   8.214  1.00  0.00     0.034 C 
ENDBRANCH   9  11
BRANCH   9  13
HETATM   13  C   UNL     1      44.224 -11.362   9.602  1.00  0.00     0.230 C 
HETATM   14  C   UNL     1      45.728 -11.171   9.520  1.00  0.00     0.034 C 
ENDBRANCH   9  13
ENDBRANCH   8   9
ENDBRANCH   7   8
ENDBRANCH   6   7
ENDBRANCH   1   6
BRANCH   1  15
HETATM   15  C   UNL     1      41.962 -16.593   6.452  1.00  0.00     0.170 C 
BRANCH  15  16
HETATM   16  C   UNL     1      41.279 -15.845   5.334  1.00  0.00     0.013 A 
HETATM   17  C   UNL     1      40.505 -14.703   5.478  1.00  0.00     0.170 A 
HETATM   18  N   UNL     1      40.047 -13.946   4.468  1.00  0.00    -0.224 NA
HETATM   19  C   UNL     1      40.338 -14.313   3.212  1.00  0.00     0.072 A 
HETATM   20  C   UNL     1      41.082 -15.475   2.930  1.00  0.00    -0.004 A 
HETATM   21  C   UNL     1      39.912 -13.524   2.152  1.00  0.00     0.072 A 
HETATM   22  C   UNL     1      41.553 -16.231   4.014  1.00  0.00     0.027 A 
HETATM   23  C   UNL     1      41.353 -15.840   1.600  1.00  0.00     0.053 A 
HETATM   24  C   UNL     1      40.901 -15.041   0.554  1.00  0.00     0.103 A 
HETATM   25  C   UNL     1      40.205 -13.865   0.833  1.00  0.00     0.104 A 
HETATM   26  O   UNL     1      41.190 -15.464  -0.716  1.00  0.00    -0.346 OA
HETATM   27  O   UNL     1      39.778 -13.000  -0.140  1.00  0.00    -0.346 OA
HETATM   28  C   UNL     1      40.433 -13.255  -1.390  1.00  0.00     0.202 C 
HETATM   29  C   UNL     1      40.428 -14.744  -1.696  1.00  0.00     0.202 C 
BRANCH  17  30
HETATM   30  O   UNL     1      40.143 -14.231   6.703  1.00  0.00    -0.344 OA
HETATM   31  H   UNL     1      39.283 -13.810   6.573  1.00  0.00     0.219 HD
ENDBRANCH  17  30
ENDBRANCH  15  16
ENDBRANCH   1  15
BRANCH   3  32
HETATM   32  C   UNL     1      44.032 -19.712   4.756  1.00  0.00     0.036 A 
HETATM   33  C   UNL     1      44.375 -20.763   5.611  1.00  0.00     0.032 A 
HETATM   34  C   UNL     1      44.759 -21.999   5.082  1.00  0.00     0.044 A 
HETATM   35  C   UNL     1      44.792 -22.182   3.705  1.00  0.00     0.116 A 
HETATM   36  F   UNL     1      45.157 -23.369   3.204  1.00  0.00    -0.206 F 
HETATM   37  C   UNL     1      44.445 -21.153   2.842  1.00  0.00     0.044 A 
HETATM   38  C   UNL     1      44.061 -19.918   3.368  1.00  0.00     0.032 A 
ENDBRANCH   3  32
TORSDOF 10
ENDMDL
MODEL 3
REMARK VINA RESULT:      -7.9      3.486      8.215
REMARK  10 active torsions:
REMARK  status: ('A' for Active; 'I' for Inactive)
REMARK    1  A    between atoms: C_2  and  N_3 
REMARK    2  A    between atoms: N_3  and  C_5 
REMARK    3  A    between atoms: N_3  and  C_35 
REMARK    4  A    between atoms: C_5  and  C_6 
REMARK    5  A    between atoms: C_6  and  C_7 
REMARK    6  A    between atoms: C_7  and  N_8 
REMARK       I    between atoms: N_8  and  C_9 
REMARK    7  A    between atoms: N_8  and  C_19 
REMARK       I    between atoms: C_9  and  N_10 
REMARK    8  A    between atoms: N_10  and  C_11 
REMARK    9  A    between atoms: C_19  and  C_20 
REMARK   10  A    between atoms: C_21  and  O_22 
ROOT
HETATM    1  N   UNL     1      42.242 -15.724   3.657  1.00  0.00    -0.330 N 
HETATM    2  C   UNL     1      42.312 -17.128   3.805  1.00  0.00     0.323 C 
HETATM    3  N   UNL     1      43.442 -17.684   3.244  1.00  0.00    -0.309 N 
HETATM    4  O   UNL     1      41.498 -17.757   4.479  1.00  0.00    -0.247 OA
HETATM    5  H   UNL     1      44.247 -17.077   3.152  1.00  0.00     0.170 HD
ENDROOT
BRANCH   1   6
HETATM    6  C   UNL     1      41.143 -14.919   4.235  1.00  0.00     0.129 C 
BRANCH   6   7
HETATM    7  C   UNL     1      41.326 -14.245   5.597  1.00  0.00     0.048 C 
BRANCH   7   8
HETATM    8  C   UNL     1      42.731 -13.689   5.826  1.00  0.00     0.236 C 
BRANCH   8   9
HETATM    9  N   UNL     1      43.381 -14.348   7.031  1.00  0.00    -0.072 N 
HETATM   10  H   UNL     1      42.831 -13.985   7.832  1.00  0.00     0.279 HD
BRANCH   9  11
HETATM   11  C   UNL     1      44.816 -13.939   7.301  1.00  0.00     0.230 C 
HETATM   12  C   UNL     1      44.924 -12.862   8.367  1.00  0.00     0.034 C 
ENDBRANCH   9  11
BRANCH   9  13
HETATM   13  C   UNL     1      43.200 -15.855   7.051  1.00  0.00     0.230 C 
HETATM   14  C   UNL     1      44.490 -16.564   6.683  1.00  0.00     0.034 C 
ENDBRANCH   9  13
ENDBRANCH   8   9
ENDBRANCH   7   8
ENDBRANCH   6   7
ENDBRANCH   1   6
BRANCH   1  15
HETATM   15  C   UNL     1      42.942 -15.052   2.536  1.00  0.00     0.170 C 
BRANCH  15  16
HETATM   16  C   UNL     1      42.125 -14.792   1.295  1.00  0.00     0.013 A 
HETATM   17  C   UNL     1      41.861 -15.714   0.293  1.00  0.00     0.170 A 
HETATM   18  N   UNL     1      40.994 -15.532  -0.717  1.00  0.00    -0.224 NA
HETATM   19  C   UNL     1      40.333 -14.369  -0.790  1.00  0.00     0.072 A 
HETATM   20  C   UNL     1      40.542 -13.335   0.144  1.00  0.00    -0.004 A 
HETATM   21  C   UNL     1      39.401 -14.173  -1.800  1.00  0.00     0.072 A 
HETATM   22  C   UNL     1      41.445 -13.570   1.191  1.00  0.00     0.027 A 
HETATM   23  C   UNL     1      39.843 -12.121   0.028  1.00  0.00     0.053 A 
HETATM   24  C   UNL     1      38.926 -11.942  -1.004  1.00  0.00     0.103 A 
HETATM   25  C   UNL     1      38.683 -12.982  -1.900  1.00  0.00     0.104 A 
HETATM   26  O   UNL     1      38.292 -10.730  -1.064  1.00  0.00    -0.346 OA
HETATM   27  O   UNL     1      37.755 -12.901  -2.906  1.00  0.00    -0.346 OA
HETATM   28  C   UNL     1      36.849 -11.810  -2.694  1.00  0.00     0.202 C 
HETATM   29  C   UNL     1      37.615 -10.553  -2.316  1.00  0.00     0.202 C 
BRANCH  17  30
HETATM   30  O   UNL     1      42.471 -16.931   0.257  1.00  0.00    -0.344 OA
HETATM   31  H   UNL     1      43.044 -16.908  -0.522  1.00  0.00     0.219 HD
ENDBRANCH  17  30
ENDBRANCH  15  16
ENDBRANCH   1  15
BRANCH   3  32
HETATM   32  C   UNL     1      43.731 -19.051   3.059  1.00  0.00     0.036 A 
HETATM   33  C   UNL     1      43.368 -19.772   1.917  1.00  0.00     0.032 A 
HETATM   34  C   UNL     1      43.724 -21.119   1.797  1.00  0.00     0.044 A 
HETATM   35  C   UNL     1      44.445 -21.737   2.812  1.00  0.00     0.116 A 
HETATM   36  F   UNL     1      44.786 -23.026   2.690  1.00  0.00    -0.206 F 
HETATM   37  C   UNL     1      44.822 -21.034   3.947  1.00  0.00     0.044 A 
HETATM   38  C   UNL     1      44.467 -19.689   4.069  1.00  0.00     0.032 A 
ENDBRANCH   3  32
TORSDOF 10
ENDMDL
MODEL 4
REMARK VINA RESULT:      -7.8      3.608      8.525
REMARK  10 active torsions:
REMARK  status: ('A' for Active; 'I' for Inactive)
REMARK    1  A    between atoms: C_2  and  N_3 
REMARK    2  A    between atoms: N_3  and  C_5 
REMARK    3  A    between atoms: N_3  and  C_35 
REMARK    4  A    between atoms: C_5  and  C_6 
REMARK    5  A    between atoms: C_6  and  C_7 
REMARK    6  A    between atoms: C_7  and  N_8 
REMARK       I    between atoms: N_8  and  C_9 
REMARK    7  A    between atoms: N_8  and  C_19 
REMARK       I    between atoms: C_9  and  N_10 
REMARK    8  A    between atoms: N_10  and  C_11 
REMARK    9  A    between atoms: C_19  and  C_20 
REMARK   10  A    between atoms: C_21  and  O_22 
ROOT
HETATM    1  N   UNL     1      42.106 -16.038   3.197  1.00  0.00    -0.330 N 
HETATM    2  C   UNL     1      42.285 -17.391   3.563  1.00  0.00     0.323 C 
HETATM    3  N   UNL     1      43.367 -17.989   2.951  1.00  0.00    -0.309 N 
HETATM    4  O   UNL     1      41.607 -17.929   4.437  1.00  0.00    -0.247 OA
HETATM    5  H   UNL     1      44.112 -17.373   2.650  1.00  0.00     0.170 HD
ENDROOT
BRANCH   1   6
HETATM    6  C   UNL     1      41.042 -15.192   3.781  1.00  0.00     0.129 C 
BRANCH   6   7
HETATM    7  C   UNL     1      41.255 -14.533   5.146  1.00  0.00     0.048 C 
BRANCH   7   8
HETATM    8  C   UNL     1      42.652 -13.946   5.338  1.00  0.00     0.236 C 
BRANCH   8   9
HETATM    9  N   UNL     1      43.281 -14.460   6.621  1.00  0.00    -0.072 N 
HETATM   10  H   UNL     1      42.733 -13.989   7.365  1.00  0.00     0.279 HD
BRANCH   9  11
HETATM   11  C   UNL     1      44.723 -14.049   6.851  1.00  0.00     0.230 C 
HETATM   12  C   UNL     1      44.892 -13.193   8.094  1.00  0.00     0.034 C 
ENDBRANCH   9  11
BRANCH   9  13
HETATM   13  C   UNL     1      43.070 -15.949   6.829  1.00  0.00     0.230 C 
HETATM   14  C   UNL     1      44.362 -16.718   6.620  1.00  0.00     0.034 C 
ENDBRANCH   9  13
ENDBRANCH   8   9
ENDBRANCH   7   8
ENDBRANCH   6   7
ENDBRANCH   1   6
BRANCH   1  15
HETATM   15  C   UNL     1      42.612 -15.540   1.895  1.00  0.00     0.170 C 
BRANCH  15  16
HETATM   16  C   UNL     1      41.788 -14.471   1.221  1.00  0.00     0.013 A 
HETATM   17  C   UNL     1      41.982 -13.102   1.341  1.00  0.00     0.170 A 
HETATM   18  N   UNL     1      41.361 -12.166   0.607  1.00  0.00    -0.224 NA
HETATM   19  C   UNL     1      40.467 -12.561  -0.311  1.00  0.00     0.072 A 
HETATM   20  C   UNL     1      40.150 -13.920  -0.503  1.00  0.00    -0.004 A 
HETATM   21  C   UNL     1      39.843 -11.614  -1.112  1.00  0.00     0.072 A 
HETATM   22  C   UNL     1      40.830 -14.868   0.276  1.00  0.00     0.027 A 
HETATM   23  C   UNL     1      39.195 -14.298  -1.462  1.00  0.00     0.053 A 
HETATM   24  C   UNL     1      38.571 -13.329  -2.241  1.00  0.00     0.103 A 
HETATM   25  C   UNL     1      38.919 -11.988  -2.086  1.00  0.00     0.104 A 
HETATM   26  O   UNL     1      37.642 -13.768  -3.146  1.00  0.00    -0.346 OA
HETATM   27  O   UNL     1      38.389 -10.984  -2.854  1.00  0.00    -0.346 OA
HETATM   28  C   UNL     1      37.750 -11.505  -4.027  1.00  0.00     0.202 C 
HETATM   29  C   UNL     1      36.860 -12.683  -3.665  1.00  0.00     0.202 C 
BRANCH  17  30
HETATM   30  O   UNL     1      42.862 -12.579   2.238  1.00  0.00    -0.344 OA
HETATM   31  H   UNL     1      43.735 -12.867   1.940  1.00  0.00     0.219 HD
ENDBRANCH  17  30
ENDBRANCH  15  16
ENDBRANCH   1  15
BRANCH   3  32
HETATM   32  C   UNL     1      43.716 -19.354   2.956  1.00  0.00     0.036 A 
HETATM   33  C   UNL     1      43.493 -20.214   1.877  1.00  0.00     0.032 A 
HETATM   34  C   UNL     1      43.902 -21.549   1.949  1.00  0.00     0.044 A 
HETATM   35  C   UNL     1      44.537 -22.017   3.094  1.00  0.00     0.116 A 
HETATM   36  F   UNL     1      44.930 -23.295   3.156  1.00  0.00    -0.206 F 
HETATM   37  C   UNL     1      44.775 -21.174   4.170  1.00  0.00     0.044 A 
HETATM   38  C   UNL     1      44.367 -19.841   4.099  1.00  0.00     0.032 A 
ENDBRANCH   3  32
TORSDOF 10
ENDMDL
MODEL 5
REMARK VINA RESULT:      -7.8      3.387      7.821
REMARK  10 active torsions:
REMARK  status: ('A' for Active; 'I' for Inactive)
REMARK    1  A    between atoms: C_2  and  N_3 
REMARK    2  A    between atoms: N_3  and  C_5 
REMARK    3  A    between atoms: N_3  and  C_35 
REMARK    4  A    between atoms: C_5  and  C_6 
REMARK    5  A    between atoms: C_6  and  C_7 
REMARK    6  A    between atoms: C_7  and  N_8 
REMARK       I    between atoms: N_8  and  C_9 
REMARK    7  A    between atoms: N_8  and  C_19 
REMARK       I    between atoms: C_9  and  N_10 
REMARK    8  A    between atoms: N_10  and  C_11 
REMARK    9  A    between atoms: C_19  and  C_20 
REMARK   10  A    between atoms: C_21  and  O_22 
ROOT
HETATM    1  N   UNL     1      41.893 -16.049   5.210  1.00  0.00    -0.330 N 
HETATM    2  C   UNL     1      42.032 -17.411   4.860  1.00  0.00     0.323 C 
HETATM    3  N   UNL     1      43.307 -17.748   4.457  1.00  0.00    -0.309 N 
HETATM    4  O   UNL     1      41.126 -18.226   5.025  1.00  0.00    -0.247 OA
HETATM    5  H   UNL     1      44.059 -17.166   4.803  1.00  0.00     0.170 HD
ENDROOT
BRANCH   1   6
HETATM    6  C   UNL     1      40.625 -15.488   5.726  1.00  0.00     0.129 C 
BRANCH   6   7
HETATM    7  C   UNL     1      40.585 -14.052   6.254  1.00  0.00     0.048 C 
BRANCH   7   8
HETATM    8  C   UNL     1      39.502 -13.188   5.611  1.00  0.00     0.236 C 
BRANCH   8   9
HETATM    9  N   UNL     1      39.977 -11.753   5.457  1.00  0.00    -0.072 N 
HETATM   10  H   UNL     1      40.937 -11.856   5.078  1.00  0.00     0.279 HD
BRANCH   9  11
HETATM   11  C   UNL     1      40.127 -10.974   6.749  1.00  0.00     0.230 C 
HETATM   12  C   UNL     1      41.241  -9.944   6.682  1.00  0.00     0.034 C 
ENDBRANCH   9  11
BRANCH   9  13
HETATM   13  C   UNL     1      39.197 -10.981   4.409  1.00  0.00     0.230 C 
HETATM   14  C   UNL     1      38.791 -11.882   3.257  1.00  0.00     0.034 C 
ENDBRANCH   9  13
ENDBRANCH   8   9
ENDBRANCH   7   8
ENDBRANCH   6   7
ENDBRANCH   1   6
BRANCH   1  15
HETATM   15  C   UNL     1      42.799 -15.029   4.630  1.00  0.00     0.170 C 
BRANCH  15  16
HETATM   16  C   UNL     1      42.332 -14.361   3.361  1.00  0.00     0.013 A 
HETATM   17  C   UNL     1      42.358 -12.998   3.106  1.00  0.00     0.170 A 
HETATM   18  N   UNL     1      42.106 -12.428   1.917  1.00  0.00    -0.224 NA
HETATM   19  C   UNL     1      41.787 -13.220   0.883  1.00  0.00     0.072 A 
HETATM   20  C   UNL     1      41.687 -14.618   1.021  1.00  0.00    -0.004 A 
HETATM   21  C   UNL     1      41.563 -12.658  -0.366  1.00  0.00     0.072 A 
HETATM   22  C   UNL     1      41.971 -15.175   2.276  1.00  0.00     0.027 A 
HETATM   23  C   UNL     1      41.333 -15.417  -0.080  1.00  0.00     0.053 A 
HETATM   24  C   UNL     1      41.097 -14.829  -1.319  1.00  0.00     0.103 A 
HETATM   25  C   UNL     1      41.243 -13.450  -1.468  1.00  0.00     0.104 A 
HETATM   26  O   UNL     1      40.744 -15.665  -2.343  1.00  0.00    -0.346 OA
HETATM   27  O   UNL     1      41.082 -12.806  -2.668  1.00  0.00    -0.346 OA
HETATM   28  C   UNL     1      41.116 -13.729  -3.764  1.00  0.00     0.202 C 
HETATM   29  C   UNL     1      40.238 -14.934  -3.469  1.00  0.00     0.202 C 
BRANCH  17  30
HETATM   30  O   UNL     1      42.667 -12.093   4.075  1.00  0.00    -0.344 OA
HETATM   31  H   UNL     1      43.042 -12.610   4.800  1.00  0.00     0.219 HD
ENDBRANCH  17  30
ENDBRANCH  15  16
ENDBRANCH   1  15
BRANCH   3  32
HETATM   32  C   UNL     1      43.738 -18.960   3.879  1.00  0.00     0.036 A 
HETATM   33  C   UNL     1      44.468 -19.931   4.570  1.00  0.00     0.032 A 
HETATM   34  C   UNL     1      44.827 -21.123   3.932  1.00  0.00     0.044 A 
HETATM   35  C   UNL     1      44.450 -21.341   2.613  1.00  0.00     0.116 A 
HETATM   36  F   UNL     1      44.794 -22.485   2.008  1.00  0.00    -0.206 F 
HETATM   37  C   UNL     1      43.718 -20.392   1.915  1.00  0.00     0.044 A 
HETATM   38  C   UNL     1      43.359 -19.201   2.550  1.00  0.00     0.032 A 
ENDBRANCH   3  32
TORSDOF 10
ENDMDL
MODEL 6
REMARK VINA RESULT:      -7.8      3.960      9.249
REMARK  10 active torsions:
REMARK  status: ('A' for Active; 'I' for Inactive)
REMARK    1  A    between atoms: C_2  and  N_3 
REMARK    2  A    between atoms: N_3  and  C_5 
REMARK    3  A    between atoms: N_3  and  C_35 
REMARK    4  A    between atoms: C_5  and  C_6 
REMARK    5  A    between atoms: C_6  and  C_7 
REMARK    6  A    between atoms: C_7  and  N_8 
REMARK       I    between atoms: N_8  and  C_9 
REMARK    7  A    between atoms: N_8  and  C_19 
REMARK       I    between atoms: C_9  and  N_10 
REMARK    8  A    between atoms: N_10  and  C_11 
REMARK    9  A    between atoms: C_19  and  C_20 
REMARK   10  A    between atoms: C_21  and  O_22 
ROOT
HETATM    1  N   UNL     1      41.816 -16.838   1.037  1.00  0.00    -0.330 N 
HETATM    2  C   UNL     1      42.928 -17.573   1.506  1.00  0.00     0.323 C 
HETATM    3  N   UNL     1      42.581 -18.702   2.218  1.00  0.00    -0.309 N 
HETATM    4  O   UNL     1      44.083 -17.286   1.194  1.00  0.00    -0.247 OA
HETATM    5  H   UNL     1      41.674 -19.103   2.016  1.00  0.00     0.170 HD
ENDROOT
BRANCH   1   6
HETATM    6  C   UNL     1      41.961 -15.626   0.201  1.00  0.00     0.129 C 
BRANCH   6   7
HETATM    7  C   UNL     1      41.132 -15.476  -1.077  1.00  0.00     0.048 C 
BRANCH   7   8
HETATM    8  C   UNL     1      40.401 -14.139  -1.184  1.00  0.00     0.236 C 
BRANCH   8   9
HETATM    9  N   UNL     1      38.956 -14.347  -1.605  1.00  0.00    -0.072 N 
HETATM   10  H   UNL     1      38.725 -15.283  -1.223  1.00  0.00     0.279 HD
BRANCH   9  11
HETATM   11  C   UNL     1      38.720 -14.444  -3.100  1.00  0.00     0.230 C 
HETATM   12  C   UNL     1      37.390 -15.094  -3.438  1.00  0.00     0.034 C 
ENDBRANCH   9  11
BRANCH   9  13
HETATM   13  C   UNL     1      38.000 -13.377  -0.936  1.00  0.00     0.230 C 
HETATM   14  C   UNL     1      37.403 -13.979   0.323  1.00  0.00     0.034 C 
ENDBRANCH   9  13
ENDBRANCH   8   9
ENDBRANCH   7   8
ENDBRANCH   6   7
ENDBRANCH   1   6
BRANCH   1  15
HETATM   15  C   UNL     1      40.512 -16.922   1.737  1.00  0.00     0.170 C 
BRANCH  15  16
HETATM   16  C   UNL     1      40.312 -15.978   2.897  1.00  0.00     0.013 A 
HETATM   17  C   UNL     1      40.628 -16.244   4.221  1.00  0.00     0.170 A 
HETATM   18  N   UNL     1      40.611 -15.343   5.216  1.00  0.00    -0.224 NA
HETATM   19  C   UNL     1      40.249 -14.084   4.933  1.00  0.00     0.072 A 
HETATM   20  C   UNL     1      39.866 -13.695   3.634  1.00  0.00    -0.004 A 
HETATM   21  C   UNL     1      40.264 -13.125   5.936  1.00  0.00     0.072 A 
HETATM   22  C   UNL     1      39.910 -14.663   2.620  1.00  0.00     0.027 A 
HETATM   23  C   UNL     1      39.475 -12.369   3.376  1.00  0.00     0.053 A 
HETATM   24  C   UNL     1      39.483 -11.429   4.402  1.00  0.00     0.103 A 
HETATM   25  C   UNL     1      39.908 -11.802   5.677  1.00  0.00     0.104 A 
HETATM   26  O   UNL     1      39.077 -10.162   4.082  1.00  0.00    -0.346 OA
HETATM   27  O   UNL     1      39.996 -10.921   6.723  1.00  0.00    -0.346 OA
HETATM   28  C   UNL     1      39.959  -9.562   6.266  1.00  0.00     0.202 C 
HETATM   29  C   UNL     1      38.838  -9.374   5.257  1.00  0.00     0.202 C 
BRANCH  17  30
HETATM   30  O   UNL     1      41.008 -17.485   4.632  1.00  0.00    -0.344 OA
HETATM   31  H   UNL     1      41.708 -17.336   5.284  1.00  0.00     0.219 HD
ENDBRANCH  17  30
ENDBRANCH  15  16
ENDBRANCH   1  15
BRANCH   3  32
HETATM   32  C   UNL     1      43.428 -19.545   2.966  1.00  0.00     0.036 A 
HETATM   33  C   UNL     1      43.921 -19.222   4.233  1.00  0.00     0.032 A 
HETATM   34  C   UNL     1      44.728 -20.132   4.924  1.00  0.00     0.044 A 
HETATM   35  C   UNL     1      45.032 -21.360   4.350  1.00  0.00     0.116 A 
HETATM   36  F   UNL     1      45.802 -22.229   5.017  1.00  0.00    -0.206 F 
HETATM   37  C   UNL     1      44.543 -21.701   3.097  1.00  0.00     0.044 A 
HETATM   38  C   UNL     1      43.738 -20.795   2.406  1.00  0.00     0.032 A 
ENDBRANCH   3  32
TORSDOF 10
ENDMDL
MODEL 7
REMARK VINA RESULT:      -7.7      4.036      8.706
REMARK  10 active torsions:
REMARK  status: ('A' for Active; 'I' for Inactive)
REMARK    1  A    between atoms: C_2  and  N_3 
REMARK    2  A    between atoms: N_3  and  C_5 
REMARK    3  A    between atoms: N_3  and  C_35 
REMARK    4  A    between atoms: C_5  and  C_6 
REMARK    5  A    between atoms: C_6  and  C_7 
REMARK    6  A    between atoms: C_7  and  N_8 
REMARK       I    between atoms: N_8  and  C_9 
REMARK    7  A    between atoms: N_8  and  C_19 
REMARK       I    between atoms: C_9  and  N_10 
REMARK    8  A    between atoms: N_10  and  C_11 
REMARK    9  A    between atoms: C_19  and  C_20 
REMARK   10  A    between atoms: C_21  and  O_22 
ROOT
HETATM    1  N   UNL     1      42.290 -15.767   2.628  1.00  0.00    -0.330 N 
HETATM    2  C   UNL     1      43.070 -16.894   2.283  1.00  0.00     0.323 C 
HETATM    3  N   UNL     1      42.689 -18.048   2.934  1.00  0.00    -0.309 N 
HETATM    4  O   UNL     1      43.919 -16.856   1.394  1.00  0.00    -0.247 OA
HETATM    5  H   UNL     1      41.728 -18.091   3.252  1.00  0.00     0.170 HD
ENDROOT
BRANCH   1   6
HETATM    6  C   UNL     1      42.491 -14.442   2.002  1.00  0.00     0.129 C 
BRANCH   6   7
HETATM    7  C   UNL     1      41.559 -13.979   0.879  1.00  0.00     0.048 C 
BRANCH   7   8
HETATM    8  C   UNL     1      40.265 -14.786   0.780  1.00  0.00     0.236 C 
BRANCH   8   9
HETATM    9  N   UNL     1      39.706 -14.736  -0.632  1.00  0.00    -0.072 N 
HETATM   10  H   UNL     1      39.399 -15.711  -0.806  1.00  0.00     0.279 HD
BRANCH   9  11
HETATM   11  C   UNL     1      40.713 -14.422  -1.721  1.00  0.00     0.230 C 
HETATM   12  C   UNL     1      40.840 -15.545  -2.737  1.00  0.00     0.034 C 
ENDBRANCH   9  11
BRANCH   9  13
HETATM   13  C   UNL     1      38.456 -13.881  -0.743  1.00  0.00     0.230 C 
HETATM   14  C   UNL     1      37.683 -13.872   0.564  1.00  0.00     0.034 C 
ENDBRANCH   9  13
ENDBRANCH   8   9
ENDBRANCH   7   8
ENDBRANCH   6   7
ENDBRANCH   1   6
BRANCH   1  15
HETATM   15  C   UNL     1      41.601 -15.705   3.939  1.00  0.00     0.170 C 
BRANCH  15  16
HETATM   16  C   UNL     1      41.894 -14.496   4.793  1.00  0.00     0.013 A 
HETATM   17  C   UNL     1      41.074 -13.386   4.934  1.00  0.00     0.170 A 
HETATM   18  N   UNL     1      41.255 -12.398   5.825  1.00  0.00    -0.224 NA
HETATM   19  C   UNL     1      42.315 -12.462   6.643  1.00  0.00     0.072 A 
HETATM   20  C   UNL     1      43.246 -13.517   6.574  1.00  0.00    -0.004 A 
HETATM   21  C   UNL     1      42.501 -11.474   7.601  1.00  0.00     0.072 A 
HETATM   22  C   UNL     1      43.013 -14.536   5.638  1.00  0.00     0.027 A 
HETATM   23  C   UNL     1      44.356 -13.543   7.436  1.00  0.00     0.053 A 
HETATM   24  C   UNL     1      44.529 -12.533   8.377  1.00  0.00     0.103 A 
HETATM   25  C   UNL     1      43.583 -11.513   8.479  1.00  0.00     0.104 A 
HETATM   26  O   UNL     1      45.639 -12.615   9.174  1.00  0.00    -0.346 OA
HETATM   27  O   UNL     1      43.656 -10.516   9.416  1.00  0.00    -0.346 OA
HETATM   28  C   UNL     1      44.576 -10.850  10.464  1.00  0.00     0.202 C 
HETATM   29  C   UNL     1      45.872 -11.387   9.879  1.00  0.00     0.202 C 
BRANCH  17  30
HETATM   30  O   UNL     1      39.968 -13.208   4.159  1.00  0.00    -0.344 OA
HETATM   31  H   UNL     1      40.191 -12.487   3.555  1.00  0.00     0.219 HD
ENDBRANCH  17  30
ENDBRANCH  15  16
ENDBRANCH   1  15
BRANCH   3  32
HETATM   32  C   UNL     1      43.357 -19.289   2.956  1.00  0.00     0.036 A 
HETATM   33  C   UNL     1      44.202 -19.696   3.993  1.00  0.00     0.032 A 
HETATM   34  C   UNL     1      44.799 -20.960   3.954  1.00  0.00     0.044 A 
HETATM   35  C   UNL     1      44.546 -21.812   2.886  1.00  0.00     0.116 A 
HETATM   36  F   UNL     1      45.118 -23.022   2.855  1.00  0.00    -0.206 F 
HETATM   37  C   UNL     1      43.702 -21.428   1.853  1.00  0.00     0.044 A 
HETATM   38  C   UNL     1      43.105 -20.166   1.890  1.00  0.00     0.032 A 
ENDBRANCH   3  32
TORSDOF 10
ENDMDL
MODEL 8
REMARK VINA RESULT:      -7.7      3.654      8.909
REMARK  10 active torsions:
REMARK  status: ('A' for Active; 'I' for Inactive)
REMARK    1  A    between atoms: C_2  and  N_3 
REMARK    2  A    between atoms: N_3  and  C_5 
REMARK    3  A    between atoms: N_3  and  C_35 
REMARK    4  A    between atoms: C_5  and  C_6 
REMARK    5  A    between atoms: C_6  and  C_7 
REMARK    6  A    between atoms: C_7  and  N_8 
REMARK       I    between atoms: N_8  and  C_9 
REMARK    7  A    between atoms: N_8  and  C_19 
REMARK       I    between atoms: C_9  and  N_10 
REMARK    8  A    between atoms: N_10  and  C_11 
REMARK    9  A    between atoms: C_19  and  C_20 
REMARK   10  A    between atoms: C_21  and  O_22 
ROOT
HETATM    1  N   UNL     1      41.745 -16.630   0.888  1.00  0.00    -0.330 N 
HETATM    2  C   UNL     1      42.828 -17.414   1.346  1.00  0.00     0.323 C 
HETATM    3  N   UNL     1      42.450 -18.437   2.190  1.00  0.00    -0.309 N 
HETATM    4  O   UNL     1      43.973 -17.261   0.924  1.00  0.00    -0.247 OA
HETATM    5  H   UNL     1      41.499 -18.772   2.095  1.00  0.00     0.170 HD
ENDROOT
BRANCH   1   6
HETATM    6  C   UNL     1      41.920 -15.519  -0.073  1.00  0.00     0.129 C 
BRANCH   6   7
HETATM    7  C   UNL     1      41.109 -15.497  -1.370  1.00  0.00     0.048 C 
BRANCH   7   8
HETATM    8  C   UNL     1      40.817 -14.091  -1.891  1.00  0.00     0.236 C 
BRANCH   8   9
HETATM    9  N   UNL     1      41.776 -13.081  -1.285  1.00  0.00    -0.072 N 
HETATM   10  H   UNL     1      42.326 -13.644  -0.609  1.00  0.00     0.279 HD
BRANCH   9  11
HETATM   11  C   UNL     1      41.131 -11.977  -0.469  1.00  0.00     0.230 C 
HETATM   12  C   UNL     1      41.797 -11.789   0.884  1.00  0.00     0.034 C 
ENDBRANCH   9  11
BRANCH   9  13
HETATM   13  C   UNL     1      42.779 -12.540  -2.288  1.00  0.00     0.230 C 
HETATM   14  C   UNL     1      42.096 -12.150  -3.586  1.00  0.00     0.034 C 
ENDBRANCH   9  13
ENDBRANCH   8   9
ENDBRANCH   7   8
ENDBRANCH   6   7
ENDBRANCH   1   6
BRANCH   1  15
HETATM   15  C   UNL     1      40.499 -16.532   1.686  1.00  0.00     0.170 C 
BRANCH  15  16
HETATM   16  C   UNL     1      40.162 -15.169   2.237  1.00  0.00     0.013 A 
HETATM   17  C   UNL     1      39.126 -14.354   1.804  1.00  0.00     0.170 A 
HETATM   18  N   UNL     1      38.724 -13.226   2.410  1.00  0.00    -0.224 NA
HETATM   19  C   UNL     1      39.370 -12.829   3.515  1.00  0.00     0.072 A 
HETATM   20  C   UNL     1      40.464 -13.547   4.036  1.00  0.00    -0.004 A 
HETATM   21  C   UNL     1      38.946 -11.689   4.184  1.00  0.00     0.072 A 
HETATM   22  C   UNL     1      40.845 -14.727   3.380  1.00  0.00     0.027 A 
HETATM   23  C   UNL     1      41.130 -13.093   5.187  1.00  0.00     0.053 A 
HETATM   24  C   UNL     1      40.696 -11.937   5.831  1.00  0.00     0.103 A 
HETATM   25  C   UNL     1      39.583 -11.252   5.345  1.00  0.00     0.104 A 
HETATM   26  O   UNL     1      41.399 -11.546   6.938  1.00  0.00    -0.346 OA
HETATM   27  O   UNL     1      39.064 -10.140   5.955  1.00  0.00    -0.346 OA
HETATM   28  C   UNL     1      39.555 -10.003   7.295  1.00  0.00     0.202 C 
HETATM   29  C   UNL     1      41.061 -10.208   7.329  1.00  0.00     0.202 C 
BRANCH  17  30
HETATM   30  O   UNL     1      38.397 -14.650   0.692  1.00  0.00    -0.344 OA
HETATM   31  H   UNL     1      37.951 -15.484   0.893  1.00  0.00     0.219 HD
ENDBRANCH  17  30
ENDBRANCH  15  16
ENDBRANCH   1  15
BRANCH   3  32
HETATM   32  C   UNL     1      43.282 -19.279   2.954  1.00  0.00     0.036 A 
HETATM   33  C   UNL     1      43.642 -19.017   4.280  1.00  0.00     0.032 A 
HETATM   34  C   UNL     1      44.445 -19.923   4.979  1.00  0.00     0.044 A 
HETATM   35  C   UNL     1      44.878 -21.088   4.356  1.00  0.00     0.116 A 
HETATM   36  F   UNL     1      45.644 -21.953   5.032  1.00  0.00    -0.206 F 
HETATM   37  C   UNL     1      44.522 -21.368   3.045  1.00  0.00     0.044 A 
HETATM   38  C   UNL     1      43.721 -20.464   2.344  1.00  0.00     0.032 A 
ENDBRANCH   3  32
TORSDOF 10
ENDMDL
MODEL 9
REMARK VINA RESULT:      -7.4      3.780      8.198
REMARK  10 active torsions:
REMARK  status: ('A' for Active; 'I' for Inactive)
REMARK    1  A    between atoms: C_2  and  N_3 
REMARK    2  A    between atoms: N_3  and  C_5 
REMARK    3  A    between atoms: N_3  and  C_35 
REMARK    4  A    between atoms: C_5  and  C_6 
REMARK    5  A    between atoms: C_6  and  C_7 
REMARK    6  A    between atoms: C_7  and  N_8 
REMARK       I    between atoms: N_8  and  C_9 
REMARK    7  A    between atoms: N_8  and  C_19 
REMARK       I    between atoms: C_9  and  N_10 
REMARK    8  A    between atoms: N_10  and  C_11 
REMARK    9  A    between atoms: C_19  and  C_20 
REMARK   10  A    between atoms: C_21  and  O_22 
ROOT
HETATM    1  N   UNL     1      43.204 -15.749   5.170  1.00  0.00    -0.330 N 
HETATM    2  C   UNL     1      43.604 -15.228   6.422  1.00  0.00     0.323 C 
HETATM    3  N   UNL     1      43.857 -13.873   6.400  1.00  0.00    -0.309 N 
HETATM    4  O   UNL     1      43.600 -15.909   7.447  1.00  0.00    -0.247 OA
HETATM    5  H   UNL     1      43.386 -13.338   5.680  1.00  0.00     0.170 HD
ENDROOT
BRANCH   1   6
HETATM    6  C   UNL     1      42.827 -17.167   4.985  1.00  0.00     0.129 C 
BRANCH   6   7
HETATM    7  C   UNL     1      43.910 -18.248   4.955  1.00  0.00     0.048 C 
BRANCH   7   8
HETATM    8  C   UNL     1      43.991 -19.004   3.630  1.00  0.00     0.236 C 
BRANCH   8   9
HETATM    9  N   UNL     1      44.795 -20.284   3.788  1.00  0.00    -0.072 N 
HETATM   10  H   UNL     1      45.776 -19.969   3.670  1.00  0.00     0.279 HD
BRANCH   9  11
HETATM   11  C   UNL     1      44.569 -21.332   2.715  1.00  0.00     0.230 C 
HETATM   12  C   UNL     1      43.442 -20.959   1.766  1.00  0.00     0.034 C 
ENDBRANCH   9  11
BRANCH   9  13
HETATM   13  C   UNL     1      44.710 -20.867   5.186  1.00  0.00     0.230 C 
HETATM   14  C   UNL     1      45.077 -22.340   5.187  1.00  0.00     0.034 C 
ENDBRANCH   9  13
ENDBRANCH   8   9
ENDBRANCH   7   8
ENDBRANCH   6   7
ENDBRANCH   1   6
BRANCH   1  15
HETATM   15  C   UNL     1      43.608 -15.074   3.914  1.00  0.00     0.170 C 
BRANCH  15  16
HETATM   16  C   UNL     1      42.500 -14.745   2.944  1.00  0.00     0.013 A 
HETATM   17  C   UNL     1      41.560 -13.738   3.100  1.00  0.00     0.170 A 
HETATM   18  N   UNL     1      40.690 -13.338   2.159  1.00  0.00    -0.224 NA
HETATM   19  C   UNL     1      40.705 -13.959   0.970  1.00  0.00     0.072 A 
HETATM   20  C   UNL     1      41.585 -15.024   0.698  1.00  0.00    -0.004 A 
HETATM   21  C   UNL     1      39.844 -13.536  -0.034  1.00  0.00     0.072 A 
HETATM   22  C   UNL     1      42.487 -15.402   1.704  1.00  0.00     0.027 A 
HETATM   23  C   UNL     1      41.562 -15.664  -0.553  1.00  0.00     0.053 A 
HETATM   24  C   UNL     1      40.678 -15.232  -1.538  1.00  0.00     0.103 A 
HETATM   25  C   UNL     1      39.840 -14.147  -1.287  1.00  0.00     0.104 A 
HETATM   26  O   UNL     1      40.701 -15.909  -2.728  1.00  0.00    -0.346 OA
HETATM   27  O   UNL     1      38.984 -13.630  -2.225  1.00  0.00    -0.346 OA
HETATM   28  C   UNL     1      39.318 -14.084  -3.543  1.00  0.00     0.202 C 
HETATM   29  C   UNL     1      39.563 -15.584  -3.539  1.00  0.00     0.202 C 
BRANCH  17  30
HETATM   30  O   UNL     1      41.446 -13.036   4.262  1.00  0.00    -0.344 OA
HETATM   31  H   UNL     1      41.468 -13.699   4.965  1.00  0.00     0.219 HD
ENDBRANCH  17  30
ENDBRANCH  15  16
ENDBRANCH   1  15
BRANCH   3  32
HETATM   32  C   UNL     1      44.437 -13.086   7.414  1.00  0.00     0.036 A 
HETATM   33  C   UNL     1      45.815 -12.990   7.628  1.00  0.00     0.032 A 
HETATM   34  C   UNL     1      46.311 -12.157   8.636  1.00  0.00     0.044 A 
HETATM   35  C   UNL     1      45.431 -11.420   9.419  1.00  0.00     0.116 A 
HETATM   36  F   UNL     1      45.912 -10.622  10.381  1.00  0.00    -0.206 F 
HETATM   37  C   UNL     1      44.061 -11.496   9.214  1.00  0.00     0.044 A 
HETATM   38  C   UNL     1      43.564 -12.327   8.209  1.00  0.00     0.032 A 
ENDBRANCH   3  32
TORSDOF 10
ENDMDL
MODEL 10
REMARK VINA RESULT:      -7.4      3.795      6.753
REMARK  10 active torsions:
REMARK  status: ('A' for Active; 'I' for Inactive)
REMARK    1  A    between atoms: C_2  and  N_3 
REMARK    2  A    between atoms: N_3  and  C_5 
REMARK    3  A    between atoms: N_3  and  C_35 
REMARK    4  A    between atoms: C_5  and  C_6 
REMARK    5  A    between atoms: C_6  and  C_7 
REMARK    6  A    between atoms: C_7  and  N_8 
REMARK       I    between atoms: N_8  and  C_9 
REMARK    7  A    between atoms: N_8  and  C_19 
REMARK       I    between atoms: C_9  and  N_10 
REMARK    8  A    between atoms: N_10  and  C_11 
REMARK    9  A    between atoms: C_19  and  C_20 
REMARK   10  A    between atoms: C_21  and  O_22 
ROOT
HETATM    1  N   UNL     1      41.896 -13.194   4.518  1.00  0.00    -0.330 N 
HETATM    2  C   UNL     1      41.617 -12.014   5.245  1.00  0.00     0.323 C 
HETATM    3  N   UNL     1      41.348 -12.240   6.578  1.00  0.00    -0.309 N 
HETATM    4  O   UNL     1      41.733 -10.895   4.748  1.00  0.00    -0.247 OA
HETATM    5  H   UNL     1      41.737 -13.083   6.981  1.00  0.00     0.170 HD
ENDROOT
BRANCH   1   6
HETATM    6  C   UNL     1      42.269 -13.174   3.086  1.00  0.00     0.129 C 
BRANCH   6   7
HETATM    7  C   UNL     1      41.190 -13.334   2.013  1.00  0.00     0.048 C 
BRANCH   7   8
HETATM    8  C   UNL     1      41.625 -12.865   0.626  1.00  0.00     0.236 C 
BRANCH   8   9
HETATM    9  N   UNL     1      41.762 -14.043  -0.323  1.00  0.00    -0.072 N 
HETATM   10  H   UNL     1      42.730 -14.377  -0.155  1.00  0.00     0.279 HD
BRANCH   9  11
HETATM   11  C   UNL     1      41.696 -13.701  -1.799  1.00  0.00     0.230 C 
HETATM   12  C   UNL     1      40.773 -14.630  -2.570  1.00  0.00     0.034 C 
ENDBRANCH   9  11
BRANCH   9  13
HETATM   13  C   UNL     1      40.853 -15.203   0.038  1.00  0.00     0.230 C 
HETATM   14  C   UNL     1      41.653 -16.472   0.269  1.00  0.00     0.034 C 
ENDBRANCH   9  13
ENDBRANCH   8   9
ENDBRANCH   7   8
ENDBRANCH   6   7
ENDBRANCH   1   6
BRANCH   1  15
HETATM   15  C   UNL     1      41.359 -14.499   4.972  1.00  0.00     0.170 C 
BRANCH  15  16
HETATM   16  C   UNL     1      42.320 -15.662   4.952  1.00  0.00     0.013 A 
HETATM   17  C   UNL     1      43.223 -15.983   5.955  1.00  0.00     0.170 A 
HETATM   18  N   UNL     1      43.949 -17.112   6.011  1.00  0.00    -0.224 NA
HETATM   19  C   UNL     1      43.816 -18.006   5.021  1.00  0.00     0.072 A 
HETATM   20  C   UNL     1      42.962 -17.780   3.924  1.00  0.00    -0.004 A 
HETATM   21  C   UNL     1      44.524 -19.199   5.077  1.00  0.00     0.072 A 
HETATM   22  C   UNL     1      42.212 -16.595   3.910  1.00  0.00     0.027 A 
HETATM   23  C   UNL     1      42.860 -18.732   2.895  1.00  0.00     0.053 A 
HETATM   24  C   UNL     1      43.593 -19.914   2.966  1.00  0.00     0.103 A 
HETATM   25  C   UNL     1      44.402 -20.160   4.074  1.00  0.00     0.104 A 
HETATM   26  O   UNL     1      43.455 -20.789   1.922  1.00  0.00    -0.346 OA
HETATM   27  O   UNL     1      45.108 -21.322   4.241  1.00  0.00    -0.346 OA
HETATM   28  C   UNL     1      44.636 -22.351   3.362  1.00  0.00     0.202 C 
HETATM   29  C   UNL     1      44.466 -21.806   1.953  1.00  0.00     0.202 C 
BRANCH  17  30
HETATM   30  O   UNL     1      43.446 -15.155   7.012  1.00  0.00    -0.344 OA
HETATM   31  H   UNL     1      44.065 -15.629   7.585  1.00  0.00     0.219 HD
ENDBRANCH  17  30
ENDBRANCH  15  16
ENDBRANCH   1  15
BRANCH   3  32
HETATM   32  C   UNL     1      40.863 -11.320   7.529  1.00  0.00     0.036 A 
HETATM   33  C   UNL     1      39.510 -11.174   7.846  1.00  0.00     0.032 A 
HETATM   34  C   UNL     1      39.115 -10.260   8.829  1.00  0.00     0.044 A 
HETATM   35  C   UNL     1      40.073  -9.504   9.494  1.00  0.00     0.116 A 
HETATM   36  F   UNL     1      39.690  -8.633  10.436  1.00  0.00    -0.206 F 
HETATM   37  C   UNL     1      41.421  -9.643   9.199  1.00  0.00     0.044 A 
HETATM   38  C   UNL     1      41.817 -10.554   8.218  1.00  0.00     0.032 A 
ENDBRANCH   3  32
TORSDOF 10
ENDMDL
