MODEL 1
REMARK VINA RESULT:     -10.5      0.000      0.000
REMARK  8 active torsions:
REMARK  status: ('A' for Active; 'I' for Inactive)
REMARK    1  A    between atoms: C_8  and  N_9 
REMARK       I    between atoms: N_9  and  C_10 
REMARK    2  A    between atoms: C_10  and  C_11 
REMARK    3  A    between atoms: C_11  and  N_12 
REMARK    4  A    between atoms: N_16  and  C_17 
REMARK    5  A    between atoms: C_19  and  N_20 
REMARK    6  A    between atoms: N_20  and  C_21 
REMARK    7  A    between atoms: C_28  and  N_29 
REMARK    8  A    between atoms: N_29  and  C_30 
ROOT
HETATM    1  C   UNL     1      41.481 -15.040   3.308  1.00  0.00     0.756 A 
HETATM    2  N   UNL     1      42.312 -15.957   3.781  1.00  0.00     0.131 NA
HETATM    3  C   UNL     1      42.738 -16.877   2.919  1.00  0.00     0.758 A 
HETATM    4  N   UNL     1      42.300 -16.968   1.673  1.00  0.00     0.131 NA
HETATM    5  C   UNL     1      41.467 -16.022   1.275  1.00  0.00     0.758 A 
HETATM    6  N   UNL     1      41.050 -15.033   2.058  1.00  0.00     0.131 NA
ENDROOT
BRANCH   1   7
HETATM    7  N   UNL     1      41.063 -14.013   4.164  1.00  0.00    -0.210 N 
HETATM    8  C   UNL     1      40.119 -14.437   5.209  1.00  0.00     0.169 C 
HETATM    9  C   UNL     1      39.542 -13.211   5.948  1.00  0.00     0.256 C 
HETATM   10  N   UNL     1      40.680 -12.328   6.470  1.00  0.00    -0.060 N 
HETATM   11  H   UNL     1      41.262 -12.934   7.059  1.00  0.00     0.280 HD
HETATM   12  C   UNL     1      41.553 -11.868   5.305  1.00  0.00     0.256 C 
HETATM   13  C   UNL     1      42.130 -13.086   4.553  1.00  0.00     0.169 C 
BRANCH  10  14
HETATM   14  C   UNL     1      40.201 -11.174   7.353  1.00  0.00     0.337 C 
BRANCH  14  15
HETATM   15  C   UNL     1      41.240 -10.575   8.317  1.00  0.00     0.248 C 
HETATM   16  N   UNL     1      41.177 -11.111   9.594  1.00  0.00    -0.325 N 
HETATM   17  H   UNL     1      40.528 -11.871   9.757  1.00  0.00     0.169 HD
HETATM   18  O   UNL     1      42.027  -9.720   7.926  1.00  0.00    -0.271 OA
BRANCH  16  19
HETATM   19  C   UNL     1      41.946 -10.727  10.729  1.00  0.00     0.042 A 
HETATM   20  C   UNL     1      41.295 -10.093  11.822  1.00  0.00    -0.014 A 
HETATM   21  C   UNL     1      39.800  -9.880  11.819  1.00  0.00     0.052 C 
HETATM   22  C   UNL     1      42.080  -9.641  12.905  1.00  0.00     0.042 A 
HETATM   23 CL   UNL     1      41.401  -8.797  14.255  1.00  0.00    -0.084 Cl
HETATM   24  C   UNL     1      43.460  -9.847  12.932  1.00  0.00     0.024 A 
HETATM   25  C   UNL     1      44.084 -10.495  11.874  1.00  0.00     0.004 A 
HETATM   26  C   UNL     1      43.333 -10.926  10.782  1.00  0.00     0.030 A 
ENDBRANCH  16  19
ENDBRANCH  14  15
ENDBRANCH  10  14
ENDBRANCH   1   7
BRANCH   3  27
HETATM   27  N   UNL     1      43.681 -17.772   3.425  1.00  0.00    -0.187 N 
HETATM   28  H   UNL     1      44.509 -17.260   3.699  1.00  0.00     0.184 HD
BRANCH  27  29
HETATM   29  C   UNL     1      43.911 -19.133   3.166  1.00  0.00     0.049 A 
HETATM   30  C   UNL     1      43.491 -19.790   2.004  1.00  0.00     0.030 A 
HETATM   31  C   UNL     1      43.738 -21.155   1.815  1.00  0.00     0.002 A 
HETATM   32  C   UNL     1      44.390 -21.892   2.798  1.00  0.00     0.000 A 
HETATM   33  C   UNL     1      44.786 -21.267   3.975  1.00  0.00     0.002 A 
HETATM   34  C   UNL     1      44.539 -19.903   4.159  1.00  0.00     0.030 A 
ENDBRANCH  27  29
ENDBRANCH   3  27
BRANCH   5  35
HETATM   35  N   UNL     1      40.980 -16.142  -0.025  1.00  0.00    -0.187 N 
HETATM   36  H   UNL     1      40.806 -17.115  -0.242  1.00  0.00     0.184 HD
BRANCH  35  37
HETATM   37  C   UNL     1      41.117 -15.303  -1.140  1.00  0.00     0.049 A 
HETATM   38  C   UNL     1      40.745 -15.682  -2.435  1.00  0.00     0.030 A 
HETATM   39  C   UNL     1      40.916 -14.812  -3.518  1.00  0.00     0.002 A 
HETATM   40  C   UNL     1      41.491 -13.560  -3.322  1.00  0.00     0.000 A 
HETATM   41  C   UNL     1      41.895 -13.177  -2.047  1.00  0.00     0.002 A 
HETATM   42  C   UNL     1      41.708 -14.043  -0.966  1.00  0.00     0.030 A 
ENDBRANCH  35  37
ENDBRANCH   5  35
TORSDOF 8
ENDMDL
MODEL 2
REMARK VINA RESULT:     -10.5      0.212      5.021
REMARK  8 active torsions:
REMARK  status: ('A' for Active; 'I' for Inactive)
REMARK    1  A    between atoms: C_8  and  N_9 
REMARK       I    between atoms: N_9  and  C_10 
REMARK    2  A    between atoms: C_10  and  C_11 
REMARK    3  A    between atoms: C_11  and  N_12 
REMARK    4  A    between atoms: N_16  and  C_17 
REMARK    5  A    between atoms: C_19  and  N_20 
REMARK    6  A    between atoms: N_20  and  C_21 
REMARK    7  A    between atoms: C_28  and  N_29 
REMARK    8  A    between atoms: N_29  and  C_30 
ROOT
HETATM    1  C   UNL     1      41.594 -14.972   3.432  1.00  0.00     0.756 A 
HETATM    2  N   UNL     1      41.121 -15.006   2.194  1.00  0.00     0.131 NA
HETATM    3  C   UNL     1      41.524 -16.019   1.430  1.00  0.00     0.758 A 
HETATM    4  N   UNL     1      42.428 -16.907   1.812  1.00  0.00     0.131 NA
HETATM    5  C   UNL     1      42.860 -16.805   3.058  1.00  0.00     0.758 A 
HETATM    6  N   UNL     1      42.452 -15.863   3.901  1.00  0.00     0.131 NA
ENDROOT
BRANCH   1   7
HETATM    7  N   UNL     1      41.142 -13.963   4.291  1.00  0.00    -0.210 N 
HETATM    8  C   UNL     1      40.320 -14.439   5.413  1.00  0.00     0.169 C 
HETATM    9  C   UNL     1      39.682 -13.251   6.162  1.00  0.00     0.256 C 
HETATM   10  N   UNL     1      40.764 -12.248   6.576  1.00  0.00    -0.060 N 
HETATM   11  H   UNL     1      41.443 -12.777   7.135  1.00  0.00     0.280 HD
HETATM   12  C   UNL     1      41.504 -11.745   5.338  1.00  0.00     0.256 C 
HETATM   13  C   UNL     1      42.140 -12.927   4.576  1.00  0.00     0.169 C 
BRANCH  10  14
HETATM   14  C   UNL     1      40.241 -11.116   7.463  1.00  0.00     0.337 C 
BRANCH  14  15
HETATM   15  C   UNL     1      41.245 -10.508   8.457  1.00  0.00     0.248 C 
HETATM   16  N   UNL     1      41.185 -11.083   9.717  1.00  0.00    -0.325 N 
HETATM   17  H   UNL     1      40.562 -11.870   9.850  1.00  0.00     0.169 HD
HETATM   18  O   UNL     1      42.005  -9.614   8.101  1.00  0.00    -0.271 OA
BRANCH  16  19
HETATM   19  C   UNL     1      41.925 -10.704  10.874  1.00  0.00     0.042 A 
HETATM   20  C   UNL     1      41.224 -10.263  12.028  1.00  0.00    -0.014 A 
HETATM   21  C   UNL     1      39.714 -10.251  12.064  1.00  0.00     0.052 C 
HETATM   22  C   UNL     1      41.969  -9.810  13.139  1.00  0.00     0.042 A 
HETATM   23 CL   UNL     1      41.220  -9.190  14.570  1.00  0.00    -0.084 Cl
HETATM   24  C   UNL     1      43.365  -9.834  13.129  1.00  0.00     0.024 A 
HETATM   25  C   UNL     1      44.042 -10.294  12.008  1.00  0.00     0.004 A 
HETATM   26  C   UNL     1      43.327 -10.721  10.890  1.00  0.00     0.030 A 
ENDBRANCH  16  19
ENDBRANCH  14  15
ENDBRANCH  10  14
ENDBRANCH   1   7
BRANCH   3  27
HETATM   27  N   UNL     1      40.938 -16.076   0.165  1.00  0.00    -0.187 N 
HETATM   28  H   UNL     1      40.650 -17.025  -0.024  1.00  0.00     0.184 HD
BRANCH  27  29
HETATM   29  C   UNL     1      41.129 -15.296  -0.989  1.00  0.00     0.049 A 
HETATM   30  C   UNL     1      40.841 -15.735  -2.286  1.00  0.00     0.030 A 
HETATM   31  C   UNL     1      41.070 -14.913  -3.395  1.00  0.00     0.002 A 
HETATM   32  C   UNL     1      41.614 -13.644  -3.227  1.00  0.00     0.000 A 
HETATM   33  C   UNL     1      41.939 -13.201  -1.949  1.00  0.00     0.002 A 
HETATM   34  C   UNL     1      41.706 -14.024  -0.844  1.00  0.00     0.030 A 
ENDBRANCH  27  29
ENDBRANCH   3  27
BRANCH   5  35
HETATM   35  N   UNL     1      43.837 -17.719   3.445  1.00  0.00    -0.187 N 
HETATM   36  H   UNL     1      44.697 -17.235   3.664  1.00  0.00     0.184 HD
BRANCH  35  37
HETATM   37  C   UNL     1      43.982 -19.084   3.162  1.00  0.00     0.049 A 
HETATM   38  C   UNL     1      43.491 -19.684   1.996  1.00  0.00     0.030 A 
HETATM   39  C   UNL     1      43.650 -21.055   1.768  1.00  0.00     0.002 A 
HETATM   40  C   UNL     1      44.278 -21.852   2.721  1.00  0.00     0.000 A 
HETATM   41  C   UNL     1      44.746 -21.280   3.899  1.00  0.00     0.002 A 
HETATM   42  C   UNL     1      44.600 -19.907   4.116  1.00  0.00     0.030 A 
ENDBRANCH  35  37
ENDBRANCH   5  35
TORSDOF 8
ENDMDL
MODEL 3
REMARK VINA RESULT:     -10.5      1.454      5.385
REMARK  8 active torsions:
REMARK  status: ('A' for Active; 'I' for Inactive)
REMARK    1  A    between atoms: C_8  and  N_9 
REMARK       I    between atoms: N_9  and  C_10 
REMARK    2  A    between atoms: C_10  and  C_11 
REMARK    3  A    between atoms: C_11  and  N_12 
REMARK    4  A    between atoms: N_16  and  C_17 
REMARK    5  A    between atoms: C_19  and  N_20 
REMARK    6  A    between atoms: N_20  and  C_21 
REMARK    7  A    between atoms: C_28  and  N_29 
REMARK    8  A    between atoms: N_29  and  C_30 
ROOT
HETATM    1  C   UNL     1      41.103 -14.818   2.298  1.00  0.00     0.756 A 
HETATM    2  N   UNL     1      41.180 -14.514   1.010  1.00  0.00     0.131 NA
HETATM    3  C   UNL     1      41.366 -15.528   0.169  1.00  0.00     0.758 A 
HETATM    4  N   UNL     1      41.574 -16.774   0.562  1.00  0.00     0.131 NA
HETATM    5  C   UNL     1      41.490 -17.000   1.863  1.00  0.00     0.758 A 
HETATM    6  N   UNL     1      41.239 -16.051   2.758  1.00  0.00     0.131 NA
ENDROOT
BRANCH   1   7
HETATM    7  N   UNL     1      40.838 -13.790   3.212  1.00  0.00    -0.210 N 
HETATM    8  C   UNL     1      40.024 -14.196   4.368  1.00  0.00     0.169 C 
HETATM    9  C   UNL     1      39.593 -12.962   5.188  1.00  0.00     0.256 C 
HETATM   10  N   UNL     1      40.820 -12.125   5.564  1.00  0.00    -0.060 N 
HETATM   11  H   UNL     1      41.453 -12.758   6.065  1.00  0.00     0.280 HD
HETATM   12  C   UNL     1      41.549 -11.679   4.298  1.00  0.00     0.256 C 
HETATM   13  C   UNL     1      41.979 -12.905   3.465  1.00  0.00     0.169 C 
BRANCH  10  14
HETATM   14  C   UNL     1      40.503 -10.967   6.513  1.00  0.00     0.337 C 
BRANCH  14  15
HETATM   15  C   UNL     1      41.665 -10.458   7.382  1.00  0.00     0.248 C 
HETATM   16  N   UNL     1      42.170 -11.421   8.242  1.00  0.00    -0.325 N 
HETATM   17  H   UNL     1      41.794 -12.359   8.177  1.00  0.00     0.169 HD
HETATM   18  O   UNL     1      42.067  -9.306   7.264  1.00  0.00    -0.271 OA
BRANCH  16  19
HETATM   19  C   UNL     1      43.192 -11.253   9.220  1.00  0.00     0.042 A 
HETATM   20  C   UNL     1      42.848 -10.725  10.494  1.00  0.00    -0.014 A 
HETATM   21  C   UNL     1      41.415 -10.401  10.840  1.00  0.00     0.052 C 
HETATM   22  C   UNL     1      43.882 -10.484  11.425  1.00  0.00     0.042 A 
HETATM   23 CL   UNL     1      43.587  -9.781  12.978  1.00  0.00    -0.084 Cl
HETATM   24  C   UNL     1      45.210 -10.796  11.127  1.00  0.00     0.024 A 
HETATM   25  C   UNL     1      45.532 -11.340   9.892  1.00  0.00     0.004 A 
HETATM   26  C   UNL     1      44.532 -11.562   8.946  1.00  0.00     0.030 A 
ENDBRANCH  16  19
ENDBRANCH  14  15
ENDBRANCH  10  14
ENDBRANCH   1   7
BRANCH   3  27
HETATM   27  N   UNL     1      41.351 -15.185  -1.183  1.00  0.00    -0.187 N 
HETATM   28  H   UNL     1      42.063 -14.489  -1.356  1.00  0.00     0.184 HD
BRANCH  27  29
HETATM   29  C   UNL     1      40.321 -15.198  -2.139  1.00  0.00     0.049 A 
HETATM   30  C   UNL     1      40.264 -16.089  -3.217  1.00  0.00     0.030 A 
HETATM   31  C   UNL     1      39.217 -16.038  -4.143  1.00  0.00     0.002 A 
HETATM   32  C   UNL     1      38.219 -15.077  -4.021  1.00  0.00     0.000 A 
HETATM   33  C   UNL     1      38.274 -14.160  -2.977  1.00  0.00     0.002 A 
HETATM   34  C   UNL     1      39.320 -14.216  -2.052  1.00  0.00     0.030 A 
ENDBRANCH  27  29
ENDBRANCH   3  27
BRANCH   5  35
HETATM   35  N   UNL     1      41.744 -18.306   2.275  1.00  0.00    -0.187 N 
HETATM   36  H   UNL     1      40.875 -18.779   2.484  1.00  0.00     0.184 HD
BRANCH  35  37
HETATM   37  C   UNL     1      42.885 -18.883   2.851  1.00  0.00     0.049 A 
HETATM   38  C   UNL     1      43.691 -19.817   2.188  1.00  0.00     0.030 A 
HETATM   39  C   UNL     1      44.811 -20.375   2.814  1.00  0.00     0.002 A 
HETATM   40  C   UNL     1      45.123 -20.028   4.125  1.00  0.00     0.000 A 
HETATM   41  C   UNL     1      44.317 -19.125   4.810  1.00  0.00     0.002 A 
HETATM   42  C   UNL     1      43.208 -18.557   4.177  1.00  0.00     0.030 A 
ENDBRANCH  35  37
ENDBRANCH   5  35
TORSDOF 8
ENDMDL
MODEL 4
REMARK VINA RESULT:     -10.4      1.299      2.023
REMARK  8 active torsions:
REMARK  status: ('A' for Active; 'I' for Inactive)
REMARK    1  A    between atoms: C_8  and  N_9 
REMARK       I    between atoms: N_9  and  C_10 
REMARK    2  A    between atoms: C_10  and  C_11 
REMARK    3  A    between atoms: C_11  and  N_12 
REMARK    4  A    between atoms: N_16  and  C_17 
REMARK    5  A    between atoms: C_19  and  N_20 
REMARK    6  A    between atoms: N_20  and  C_21 
REMARK    7  A    between atoms: C_28  and  N_29 
REMARK    8  A    between atoms: N_29  and  C_30 
ROOT
HETATM    1  C   UNL     1      41.380 -14.633   2.907  1.00  0.00     0.756 A 
HETATM    2  N   UNL     1      41.403 -15.920   3.225  1.00  0.00     0.131 NA
HETATM    3  C   UNL     1      41.631 -16.775   2.231  1.00  0.00     0.758 A 
HETATM    4  N   UNL     1      41.730 -16.410   0.963  1.00  0.00     0.131 NA
HETATM    5  C   UNL     1      41.690 -15.111   0.722  1.00  0.00     0.758 A 
HETATM    6  N   UNL     1      41.534 -14.193   1.669  1.00  0.00     0.131 NA
ENDROOT
BRANCH   1   7
HETATM    7  N   UNL     1      41.213 -13.695   3.934  1.00  0.00    -0.210 N 
HETATM    8  C   UNL     1      41.498 -12.306   3.544  1.00  0.00     0.169 C 
HETATM    9  C   UNL     1      41.514 -11.388   4.784  1.00  0.00     0.256 C 
HETATM   10  N   UNL     1      40.211 -11.549   5.574  1.00  0.00    -0.060 N 
HETATM   11  H   UNL     1      39.452 -11.346   4.914  1.00  0.00     0.280 HD
HETATM   12  C   UNL     1      40.046 -13.003   6.008  1.00  0.00     0.256 C 
HETATM   13  C   UNL     1      40.037 -13.933   4.777  1.00  0.00     0.169 C 
BRANCH  10  14
HETATM   14  C   UNL     1      40.072 -10.558   6.732  1.00  0.00     0.337 C 
BRANCH  14  15
HETATM   15  C   UNL     1      41.367 -10.194   7.478  1.00  0.00     0.248 C 
HETATM   16  N   UNL     1      41.721 -11.119   8.447  1.00  0.00    -0.325 N 
HETATM   17  H   UNL     1      41.161 -11.959   8.528  1.00  0.00     0.169 HD
HETATM   18  O   UNL     1      41.984  -9.175   7.185  1.00  0.00    -0.271 OA
BRANCH  16  19
HETATM   19  C   UNL     1      42.817 -11.042   9.354  1.00  0.00     0.042 A 
HETATM   20  C   UNL     1      42.598 -10.522  10.658  1.00  0.00    -0.014 A 
HETATM   21  C   UNL     1      41.217 -10.111  11.109  1.00  0.00     0.052 C 
HETATM   22  C   UNL     1      43.708 -10.371  11.519  1.00  0.00     0.042 A 
HETATM   23 CL   UNL     1      43.568  -9.686  13.101  1.00  0.00    -0.084 Cl
HETATM   24  C   UNL     1      44.987 -10.765  11.123  1.00  0.00     0.024 A 
HETATM   25  C   UNL     1      45.186 -11.301   9.858  1.00  0.00     0.004 A 
HETATM   26  C   UNL     1      44.111 -11.434   8.981  1.00  0.00     0.030 A 
ENDBRANCH  16  19
ENDBRANCH  14  15
ENDBRANCH  10  14
ENDBRANCH   1   7
BRANCH   3  27
HETATM   27  N   UNL     1      41.739 -18.112   2.614  1.00  0.00    -0.187 N 
HETATM   28  H   UNL     1      40.847 -18.428   2.968  1.00  0.00     0.184 HD
BRANCH  27  29
HETATM   29  C   UNL     1      42.833 -18.869   3.065  1.00  0.00     0.049 A 
HETATM   30  C   UNL     1      43.419 -18.722   4.327  1.00  0.00     0.030 A 
HETATM   31  C   UNL     1      44.519 -19.498   4.709  1.00  0.00     0.002 A 
HETATM   32  C   UNL     1      45.069 -20.420   3.823  1.00  0.00     0.000 A 
HETATM   33  C   UNL     1      44.523 -20.558   2.551  1.00  0.00     0.002 A 
HETATM   34  C   UNL     1      43.423 -19.783   2.175  1.00  0.00     0.030 A 
ENDBRANCH  27  29
ENDBRANCH   3  27
BRANCH   5  35
HETATM   35  N   UNL     1      41.759 -14.733  -0.617  1.00  0.00    -0.187 N 
HETATM   36  H   UNL     1      42.483 -14.038  -0.745  1.00  0.00     0.184 HD
BRANCH  35  37
HETATM   37  C   UNL     1      40.798 -14.780  -1.637  1.00  0.00     0.049 A 
HETATM   38  C   UNL     1      39.748 -13.861  -1.745  1.00  0.00     0.030 A 
HETATM   39  C   UNL     1      38.806 -13.960  -2.775  1.00  0.00     0.002 A 
HETATM   40  C   UNL     1      38.886 -15.001  -3.695  1.00  0.00     0.000 A 
HETATM   41  C   UNL     1      39.905 -15.942  -3.587  1.00  0.00     0.002 A 
HETATM   42  C   UNL     1      40.853 -15.830  -2.566  1.00  0.00     0.030 A 
ENDBRANCH  35  37
ENDBRANCH   5  35
TORSDOF 8
ENDMDL
MODEL 5
REMARK VINA RESULT:     -10.0      4.282      9.399
REMARK  8 active torsions:
REMARK  status: ('A' for Active; 'I' for Inactive)
REMARK    1  A    between atoms: C_8  and  N_9 
REMARK       I    between atoms: N_9  and  C_10 
REMARK    2  A    between atoms: C_10  and  C_11 
REMARK    3  A    between atoms: C_11  and  N_12 
REMARK    4  A    between atoms: N_16  and  C_17 
REMARK    5  A    between atoms: C_19  and  N_20 
REMARK    6  A    between atoms: N_20  and  C_21 
REMARK    7  A    between atoms: C_28  and  N_29 
REMARK    8  A    between atoms: N_29  and  C_30 
ROOT
HETATM    1  C   UNL     1      42.880 -16.266   3.895  1.00  0.00     0.756 A 
HETATM    2  N   UNL     1      43.498 -17.420   4.103  1.00  0.00     0.131 NA
HETATM    3  C   UNL     1      44.018 -17.607   5.314  1.00  0.00     0.758 A 
HETATM    4  N   UNL     1      44.031 -16.676   6.254  1.00  0.00     0.131 NA
HETATM    5  C   UNL     1      43.401 -15.549   5.972  1.00  0.00     0.758 A 
HETATM    6  N   UNL     1      42.800 -15.315   4.811  1.00  0.00     0.131 NA
ENDROOT
BRANCH   1   7
HETATM    7  N   UNL     1      42.258 -16.056   2.658  1.00  0.00    -0.210 N 
HETATM    8  C   UNL     1      42.357 -14.679   2.151  1.00  0.00     0.169 C 
HETATM    9  C   UNL     1      41.455 -14.491   0.913  1.00  0.00     0.256 C 
HETATM   10  N   UNL     1      41.777 -15.557  -0.139  1.00  0.00    -0.060 N 
HETATM   11  H   UNL     1      42.780 -15.468  -0.337  1.00  0.00     0.280 HD
HETATM   12  C   UNL     1      41.563 -16.949   0.452  1.00  0.00     0.256 C 
HETATM   13  C   UNL     1      42.454 -17.146   1.696  1.00  0.00     0.169 C 
BRANCH  10  14
HETATM   14  C   UNL     1      41.042 -15.350  -1.465  1.00  0.00     0.337 C 
BRANCH  14  15
HETATM   15  C   UNL     1      40.926 -13.899  -1.962  1.00  0.00     0.248 C 
HETATM   16  N   UNL     1      42.133 -13.368  -2.391  1.00  0.00    -0.325 N 
HETATM   17  H   UNL     1      42.940 -13.979  -2.408  1.00  0.00     0.169 HD
HETATM   18  O   UNL     1      39.839 -13.330  -1.966  1.00  0.00    -0.271 OA
BRANCH  16  19
HETATM   19  C   UNL     1      42.379 -12.039  -2.841  1.00  0.00     0.042 A 
HETATM   20  C   UNL     1      42.704 -11.037  -1.887  1.00  0.00    -0.014 A 
HETATM   21  C   UNL     1      42.851 -11.376  -0.424  1.00  0.00     0.052 C 
HETATM   22  C   UNL     1      42.863  -9.707  -2.334  1.00  0.00     0.042 A 
HETATM   23 CL   UNL     1      43.193  -8.398  -1.252  1.00  0.00    -0.084 Cl
HETATM   24  C   UNL     1      42.750  -9.381  -3.687  1.00  0.00     0.024 A 
HETATM   25  C   UNL     1      42.462 -10.372  -4.615  1.00  0.00     0.004 A 
HETATM   26  C   UNL     1      42.274 -11.688  -4.194  1.00  0.00     0.030 A 
ENDBRANCH  16  19
ENDBRANCH  14  15
ENDBRANCH  10  14
ENDBRANCH   1   7
BRANCH   3  27
HETATM   27  N   UNL     1      44.581 -18.866   5.528  1.00  0.00    -0.187 N 
HETATM   28  H   UNL     1      45.385 -18.770   6.132  1.00  0.00     0.184 HD
BRANCH  27  29
HETATM   29  C   UNL     1      44.592 -20.030   4.741  1.00  0.00     0.049 A 
HETATM   30  C   UNL     1      44.450 -20.036   3.349  1.00  0.00     0.030 A 
HETATM   31  C   UNL     1      44.455 -21.233   2.626  1.00  0.00     0.002 A 
HETATM   32  C   UNL     1      44.577 -22.451   3.287  1.00  0.00     0.000 A 
HETATM   33  C   UNL     1      44.685 -22.471   4.674  1.00  0.00     0.002 A 
HETATM   34  C   UNL     1      44.683 -21.272   5.392  1.00  0.00     0.030 A 
ENDBRANCH  27  29
ENDBRANCH   3  27
BRANCH   5  35
HETATM   35  N   UNL     1      43.448 -14.559   6.951  1.00  0.00    -0.187 N 
HETATM   36  H   UNL     1      42.524 -14.173   7.098  1.00  0.00     0.184 HD
BRANCH  35  37
HETATM   37  C   UNL     1      44.504 -13.749   7.390  1.00  0.00     0.049 A 
HETATM   38  C   UNL     1      44.428 -12.942   8.532  1.00  0.00     0.030 A 
HETATM   39  C   UNL     1      45.506 -12.139   8.921  1.00  0.00     0.002 A 
HETATM   40  C   UNL     1      46.667 -12.110   8.153  1.00  0.00     0.000 A 
HETATM   41  C   UNL     1      46.750 -12.883   6.999  1.00  0.00     0.002 A 
HETATM   42  C   UNL     1      45.677 -13.695   6.622  1.00  0.00     0.030 A 
ENDBRANCH  35  37
ENDBRANCH   5  35
TORSDOF 8
ENDMDL
MODEL 6
REMARK VINA RESULT:      -9.9      4.393     10.182
REMARK  8 active torsions:
REMARK  status: ('A' for Active; 'I' for Inactive)
REMARK    1  A    between atoms: C_8  and  N_9 
REMARK       I    between atoms: N_9  and  C_10 
REMARK    2  A    between atoms: C_10  and  C_11 
REMARK    3  A    between atoms: C_11  and  N_12 
REMARK    4  A    between atoms: N_16  and  C_17 
REMARK    5  A    between atoms: C_19  and  N_20 
REMARK    6  A    between atoms: N_20  and  C_21 
REMARK    7  A    between atoms: C_28  and  N_29 
REMARK    8  A    between atoms: N_29  and  C_30 
ROOT
HETATM    1  C   UNL     1      43.022 -14.578   5.348  1.00  0.00     0.756 A 
HETATM    2  N   UNL     1      42.963 -15.871   5.636  1.00  0.00     0.131 NA
HETATM    3  C   UNL     1      43.582 -16.263   6.747  1.00  0.00     0.758 A 
HETATM    4  N   UNL     1      44.316 -15.456   7.497  1.00  0.00     0.131 NA
HETATM    5  C   UNL     1      44.333 -14.182   7.143  1.00  0.00     0.758 A 
HETATM    6  N   UNL     1      43.685 -13.704   6.087  1.00  0.00     0.131 NA
ENDROOT
BRANCH   1   7
HETATM    7  N   UNL     1      42.325 -14.112   4.226  1.00  0.00    -0.210 N 
HETATM    8  C   UNL     1      41.652 -12.819   4.419  1.00  0.00     0.169 C 
HETATM    9  C   UNL     1      40.731 -12.504   3.222  1.00  0.00     0.256 C 
HETATM   10  N   UNL     1      41.520 -12.596   1.912  1.00  0.00    -0.060 N 
HETATM   11  H   UNL     1      42.310 -11.949   2.011  1.00  0.00     0.280 HD
HETATM   12  C   UNL     1      42.107 -13.997   1.760  1.00  0.00     0.256 C 
HETATM   13  C   UNL     1      43.025 -14.328   2.955  1.00  0.00     0.169 C 
BRANCH  10  14
HETATM   14  C   UNL     1      40.724 -12.143   0.686  1.00  0.00     0.337 C 
BRANCH  14  15
HETATM   15  C   UNL     1      39.938 -13.234  -0.060  1.00  0.00     0.248 C 
HETATM   16  N   UNL     1      40.312 -13.370  -1.388  1.00  0.00    -0.325 N 
HETATM   17  H   UNL     1      41.089 -12.813  -1.721  1.00  0.00     0.169 HD
HETATM   18  O   UNL     1      39.086 -13.893   0.527  1.00  0.00    -0.271 OA
BRANCH  16  19
HETATM   19  C   UNL     1      39.735 -14.234  -2.362  1.00  0.00     0.042 A 
HETATM   20  C   UNL     1      38.479 -13.891  -2.931  1.00  0.00    -0.014 A 
HETATM   21  C   UNL     1      37.785 -12.602  -2.563  1.00  0.00     0.052 C 
HETATM   22  C   UNL     1      37.877 -14.797  -3.832  1.00  0.00     0.042 A 
HETATM   23 CL   UNL     1      36.320 -14.513  -4.532  1.00  0.00    -0.084 Cl
HETATM   24  C   UNL     1      38.515 -15.983  -4.197  1.00  0.00     0.024 A 
HETATM   25  C   UNL     1      39.756 -16.295  -3.660  1.00  0.00     0.004 A 
HETATM   26  C   UNL     1      40.357 -15.430  -2.748  1.00  0.00     0.030 A 
ENDBRANCH  16  19
ENDBRANCH  14  15
ENDBRANCH  10  14
ENDBRANCH   1   7
BRANCH   3  27
HETATM   27  N   UNL     1      43.424 -17.611   7.068  1.00  0.00    -0.187 N 
HETATM   28  H   UNL     1      43.292 -17.700   8.066  1.00  0.00     0.184 HD
BRANCH  27  29
HETATM   29  C   UNL     1      43.895 -18.781   6.448  1.00  0.00     0.049 A 
HETATM   30  C   UNL     1      44.590 -18.797   5.234  1.00  0.00     0.030 A 
HETATM   31  C   UNL     1      45.018 -20.000   4.661  1.00  0.00     0.002 A 
HETATM   32  C   UNL     1      44.735 -21.212   5.283  1.00  0.00     0.000 A 
HETATM   33  C   UNL     1      44.016 -21.221   6.473  1.00  0.00     0.002 A 
HETATM   34  C   UNL     1      43.593 -20.017   7.042  1.00  0.00     0.030 A 
ENDBRANCH  27  29
ENDBRANCH   3  27
BRANCH   5  35
HETATM   35  N   UNL     1      45.135 -13.344   7.914  1.00  0.00    -0.187 N 
HETATM   36  H   UNL     1      46.048 -13.760   8.044  1.00  0.00     0.184 HD
BRANCH  35  37
HETATM   37  C   UNL     1      44.800 -12.351   8.846  1.00  0.00     0.049 A 
HETATM   38  C   UNL     1      43.606 -11.622   8.795  1.00  0.00     0.030 A 
HETATM   39  C   UNL     1      43.326 -10.631   9.741  1.00  0.00     0.002 A 
HETATM   40  C   UNL     1      44.252 -10.335  10.737  1.00  0.00     0.000 A 
HETATM   41  C   UNL     1      45.457 -11.029  10.787  1.00  0.00     0.002 A 
HETATM   42  C   UNL     1      45.727 -12.029   9.849  1.00  0.00     0.030 A 
ENDBRANCH  35  37
ENDBRANCH   5  35
TORSDOF 8
ENDMDL
MODEL 7
REMARK VINA RESULT:      -9.9      4.113      8.975
REMARK  8 active torsions:
REMARK  status: ('A' for Active; 'I' for Inactive)
REMARK    1  A    between atoms: C_8  and  N_9 
REMARK       I    between atoms: N_9  and  C_10 
REMARK    2  A    between atoms: C_10  and  C_11 
REMARK    3  A    between atoms: C_11  and  N_12 
REMARK    4  A    between atoms: N_16  and  C_17 
REMARK    5  A    between atoms: C_19  and  N_20 
REMARK    6  A    between atoms: N_20  and  C_21 
REMARK    7  A    between atoms: C_28  and  N_29 
REMARK    8  A    between atoms: N_29  and  C_30 
ROOT
HETATM    1  C   UNL     1      42.503 -15.865   4.732  1.00  0.00     0.756 A 
HETATM    2  N   UNL     1      43.144 -17.014   4.573  1.00  0.00     0.131 NA
HETATM    3  C   UNL     1      43.974 -17.373   5.549  1.00  0.00     0.758 A 
HETATM    4  N   UNL     1      44.253 -16.605   6.590  1.00  0.00     0.131 NA
HETATM    5  C   UNL     1      43.581 -15.470   6.677  1.00  0.00     0.758 A 
HETATM    6  N   UNL     1      42.686 -15.076   5.778  1.00  0.00     0.131 NA
ENDROOT
BRANCH   1   7
HETATM    7  N   UNL     1      41.568 -15.483   3.762  1.00  0.00    -0.210 N 
HETATM    8  C   UNL     1      40.989 -16.599   2.999  1.00  0.00     0.169 C 
HETATM    9  C   UNL     1      40.157 -16.071   1.813  1.00  0.00     0.256 C 
HETATM   10  N   UNL     1      39.116 -15.061   2.308  1.00  0.00    -0.060 N 
HETATM   11  H   UNL     1      38.563 -15.550   3.020  1.00  0.00     0.280 HD
HETATM   12  C   UNL     1      39.816 -13.899   3.009  1.00  0.00     0.256 C 
HETATM   13  C   UNL     1      40.659 -14.416   4.194  1.00  0.00     0.169 C 
BRANCH  10  14
HETATM   14  C   UNL     1      38.140 -14.606   1.221  1.00  0.00     0.337 C 
BRANCH  14  15
HETATM   15  C   UNL     1      38.641 -13.503   0.272  1.00  0.00     0.248 C 
HETATM   16  N   UNL     1      39.666 -13.921  -0.563  1.00  0.00    -0.325 N 
HETATM   17  H   UNL     1      39.937 -14.896  -0.529  1.00  0.00     0.169 HD
HETATM   18  O   UNL     1      38.130 -12.388   0.295  1.00  0.00    -0.271 OA
BRANCH  16  19
HETATM   19  C   UNL     1      40.390 -13.130  -1.500  1.00  0.00     0.042 A 
HETATM   20  C   UNL     1      41.520 -12.393  -1.054  1.00  0.00    -0.014 A 
HETATM   21  C   UNL     1      41.993 -12.486   0.377  1.00  0.00     0.052 C 
HETATM   22  C   UNL     1      42.180 -11.547  -1.973  1.00  0.00     0.042 A 
HETATM   23 CL   UNL     1      43.522 -10.554  -1.521  1.00  0.00    -0.084 Cl
HETATM   24  C   UNL     1      41.766 -11.466  -3.303  1.00  0.00     0.024 A 
HETATM   25  C   UNL     1      40.680 -12.213  -3.738  1.00  0.00     0.004 A 
HETATM   26  C   UNL     1      39.997 -13.034  -2.843  1.00  0.00     0.030 A 
ENDBRANCH  16  19
ENDBRANCH  14  15
ENDBRANCH  10  14
ENDBRANCH   1   7
BRANCH   3  27
HETATM   27  N   UNL     1      44.562 -18.629   5.394  1.00  0.00    -0.187 N 
HETATM   28  H   UNL     1      45.450 -18.640   5.876  1.00  0.00     0.184 HD
BRANCH  27  29
HETATM   29  C   UNL     1      44.451 -19.593   4.378  1.00  0.00     0.049 A 
HETATM   30  C   UNL     1      43.945 -19.330   3.100  1.00  0.00     0.030 A 
HETATM   31  C   UNL     1      43.847 -20.341   2.138  1.00  0.00     0.002 A 
HETATM   32  C   UNL     1      44.231 -21.642   2.447  1.00  0.00     0.000 A 
HETATM   33  C   UNL     1      44.704 -21.934   3.721  1.00  0.00     0.002 A 
HETATM   34  C   UNL     1      44.804 -20.920   4.678  1.00  0.00     0.030 A 
ENDBRANCH  27  29
ENDBRANCH   3  27
BRANCH   5  35
HETATM   35  N   UNL     1      43.903 -14.648   7.754  1.00  0.00    -0.187 N 
HETATM   36  H   UNL     1      43.111 -14.569   8.379  1.00  0.00     0.184 HD
BRANCH  35  37
HETATM   37  C   UNL     1      44.861 -13.632   7.883  1.00  0.00     0.049 A 
HETATM   38  C   UNL     1      45.991 -13.534   7.062  1.00  0.00     0.030 A 
HETATM   39  C   UNL     1      46.925 -12.508   7.241  1.00  0.00     0.002 A 
HETATM   40  C   UNL     1      46.756 -11.582   8.265  1.00  0.00     0.000 A 
HETATM   41  C   UNL     1      45.655 -11.680   9.110  1.00  0.00     0.002 A 
HETATM   42  C   UNL     1      44.715 -12.697   8.918  1.00  0.00     0.030 A 
ENDBRANCH  35  37
ENDBRANCH   5  35
TORSDOF 8
ENDMDL
MODEL 8
REMARK VINA RESULT:      -9.7      3.818     10.043
REMARK  8 active torsions:
REMARK  status: ('A' for Active; 'I' for Inactive)
REMARK    1  A    between atoms: C_8  and  N_9 
REMARK       I    between atoms: N_9  and  C_10 
REMARK    2  A    between atoms: C_10  and  C_11 
REMARK    3  A    between atoms: C_11  and  N_12 
REMARK    4  A    between atoms: N_16  and  C_17 
REMARK    5  A    between atoms: C_19  and  N_20 
REMARK    6  A    between atoms: N_20  and  C_21 
REMARK    7  A    between atoms: C_28  and  N_29 
REMARK    8  A    between atoms: N_29  and  C_30 
ROOT
HETATM    1  C   UNL     1      42.818 -15.041   5.416  1.00  0.00     0.756 A 
HETATM    2  N   UNL     1      43.275 -13.922   5.961  1.00  0.00     0.131 NA
HETATM    3  C   UNL     1      44.213 -14.054   6.895  1.00  0.00     0.758 A 
HETATM    4  N   UNL     1      44.622 -15.224   7.359  1.00  0.00     0.131 NA
HETATM    5  C   UNL     1      44.116 -16.296   6.773  1.00  0.00     0.758 A 
HETATM    6  N   UNL     1      43.227 -16.243   5.787  1.00  0.00     0.131 NA
ENDROOT
BRANCH   1   7
HETATM    7  N   UNL     1      41.880 -14.944   4.380  1.00  0.00    -0.210 N 
HETATM    8  C   UNL     1      41.500 -16.231   3.779  1.00  0.00     0.169 C 
HETATM    9  C   UNL     1      40.652 -16.007   2.510  1.00  0.00     0.256 C 
HETATM   10  N   UNL     1      39.458 -15.101   2.828  1.00  0.00    -0.060 N 
HETATM   11  H   UNL     1      38.950 -15.559   3.592  1.00  0.00     0.280 HD
HETATM   12  C   UNL     1      39.955 -13.760   3.363  1.00  0.00     0.256 C 
HETATM   13  C   UNL     1      40.811 -13.971   4.629  1.00  0.00     0.169 C 
BRANCH  10  14
HETATM   14  C   UNL     1      38.475 -14.955   1.664  1.00  0.00     0.337 C 
BRANCH  14  15
HETATM   15  C   UNL     1      38.924 -14.056   0.499  1.00  0.00     0.248 C 
HETATM   16  N   UNL     1      40.051 -14.528  -0.155  1.00  0.00    -0.325 N 
HETATM   17  H   UNL     1      40.425 -15.424   0.131  1.00  0.00     0.169 HD
HETATM   18  O   UNL     1      38.292 -13.042   0.221  1.00  0.00    -0.271 OA
BRANCH  16  19
HETATM   19  C   UNL     1      40.755 -13.898  -1.221  1.00  0.00     0.042 A 
HETATM   20  C   UNL     1      41.668 -12.851  -0.922  1.00  0.00    -0.014 A 
HETATM   21  C   UNL     1      41.943 -12.444   0.505  1.00  0.00     0.052 C 
HETATM   22  C   UNL     1      42.298 -12.178  -1.993  1.00  0.00     0.042 A 
HETATM   23 CL   UNL     1      43.374 -10.846  -1.747  1.00  0.00    -0.084 Cl
HETATM   24  C   UNL     1      42.069 -12.557  -3.317  1.00  0.00     0.024 A 
HETATM   25  C   UNL     1      41.199 -13.601  -3.598  1.00  0.00     0.004 A 
HETATM   26  C   UNL     1      40.546 -14.262  -2.559  1.00  0.00     0.030 A 
ENDBRANCH  16  19
ENDBRANCH  14  15
ENDBRANCH  10  14
ENDBRANCH   1   7
BRANCH   3  27
HETATM   27  N   UNL     1      44.737 -12.855   7.382  1.00  0.00    -0.187 N 
HETATM   28  H   UNL     1      45.646 -12.700   6.969  1.00  0.00     0.184 HD
BRANCH  27  29
HETATM   29  C   UNL     1      44.533 -12.170   8.591  1.00  0.00     0.049 A 
HETATM   30  C   UNL     1      45.427 -12.200   9.668  1.00  0.00     0.030 A 
HETATM   31  C   UNL     1      45.156 -11.507  10.853  1.00  0.00     0.002 A 
HETATM   32  C   UNL     1      43.972 -10.790  10.990  1.00  0.00     0.000 A 
HETATM   33  C   UNL     1      43.054 -10.774   9.946  1.00  0.00     0.002 A 
HETATM   34  C   UNL     1      43.330 -11.466   8.763  1.00  0.00     0.030 A 
ENDBRANCH  27  29
ENDBRANCH   3  27
BRANCH   5  35
HETATM   35  N   UNL     1      44.521 -17.525   7.288  1.00  0.00    -0.187 N 
HETATM   36  H   UNL     1      45.283 -17.392   7.941  1.00  0.00     0.184 HD
BRANCH  35  37
HETATM   37  C   UNL     1      44.404 -18.823   6.771  1.00  0.00     0.049 A 
HETATM   38  C   UNL     1      43.789 -19.872   7.465  1.00  0.00     0.030 A 
HETATM   39  C   UNL     1      43.710 -21.154   6.911  1.00  0.00     0.002 A 
HETATM   40  C   UNL     1      44.275 -21.411   5.665  1.00  0.00     0.000 A 
HETATM   41  C   UNL     1      44.916 -20.389   4.973  1.00  0.00     0.002 A 
HETATM   42  C   UNL     1      44.979 -19.105   5.523  1.00  0.00     0.030 A 
ENDBRANCH  35  37
ENDBRANCH   5  35
TORSDOF 8
ENDMDL
MODEL 9
REMARK VINA RESULT:      -9.7      4.339     10.204
REMARK  8 active torsions:
REMARK  status: ('A' for Active; 'I' for Inactive)
REMARK    1  A    between atoms: C_8  and  N_9 
REMARK       I    between atoms: N_9  and  C_10 
REMARK    2  A    between atoms: C_10  and  C_11 
REMARK    3  A    between atoms: C_11  and  N_12 
REMARK    4  A    between atoms: N_16  and  C_17 
REMARK    5  A    between atoms: C_19  and  N_20 
REMARK    6  A    between atoms: N_20  and  C_21 
REMARK    7  A    between atoms: C_28  and  N_29 
REMARK    8  A    between atoms: N_29  and  C_30 
ROOT
HETATM    1  C   UNL     1      43.023 -14.195   5.054  1.00  0.00     0.756 A 
HETATM    2  N   UNL     1      43.685 -13.492   5.963  1.00  0.00     0.131 NA
HETATM    3  C   UNL     1      44.409 -14.183   6.840  1.00  0.00     0.758 A 
HETATM    4  N   UNL     1      44.413 -15.505   6.902  1.00  0.00     0.131 NA
HETATM    5  C   UNL     1      43.723 -16.138   5.968  1.00  0.00     0.758 A 
HETATM    6  N   UNL     1      43.032 -15.517   5.018  1.00  0.00     0.131 NA
ENDROOT
BRANCH   1   7
HETATM    7  N   UNL     1      42.305 -13.504   4.070  1.00  0.00    -0.210 N 
HETATM    8  C   UNL     1      41.858 -12.161   4.470  1.00  0.00     0.169 C 
HETATM    9  C   UNL     1      40.889 -11.578   3.421  1.00  0.00     0.256 C 
HETATM   10  N   UNL     1      41.530 -11.622   2.030  1.00  0.00    -0.060 N 
HETATM   11  H   UNL     1      42.415 -11.110   2.109  1.00  0.00     0.280 HD
HETATM   12  C   UNL     1      41.879 -13.064   1.668  1.00  0.00     0.256 C 
HETATM   13  C   UNL     1      42.843 -13.662   2.715  1.00  0.00     0.169 C 
BRANCH  10  14
HETATM   14  C   UNL     1      40.702 -10.918   0.953  1.00  0.00     0.337 C 
BRANCH  14  15
HETATM   15  C   UNL     1      39.606 -11.757   0.276  1.00  0.00     0.248 C 
HETATM   16  N   UNL     1      39.899 -12.087  -1.038  1.00  0.00    -0.325 N 
HETATM   17  H   UNL     1      40.806 -11.820  -1.402  1.00  0.00     0.169 HD
HETATM   18  O   UNL     1      38.600 -12.081   0.899  1.00  0.00    -0.271 OA
BRANCH  16  19
HETATM   19  C   UNL     1      39.069 -12.789  -1.957  1.00  0.00     0.042 A 
HETATM   20  C   UNL     1      39.452 -14.091  -2.378  1.00  0.00    -0.014 A 
HETATM   21  C   UNL     1      40.687 -14.756  -1.819  1.00  0.00     0.052 C 
HETATM   22  C   UNL     1      38.666 -14.745  -3.353  1.00  0.00     0.042 A 
HETATM   23 CL   UNL     1      39.077 -16.301  -3.986  1.00  0.00    -0.084 Cl
HETATM   24  C   UNL     1      37.511 -14.151  -3.864  1.00  0.00     0.024 A 
HETATM   25  C   UNL     1      37.127 -12.892  -3.425  1.00  0.00     0.004 A 
HETATM   26  C   UNL     1      37.902 -12.217  -2.483  1.00  0.00     0.030 A 
ENDBRANCH  16  19
ENDBRANCH  14  15
ENDBRANCH  10  14
ENDBRANCH   1   7
BRANCH   3  27
HETATM   27  N   UNL     1      45.164 -13.411   7.724  1.00  0.00    -0.187 N 
HETATM   28  H   UNL     1      46.013 -13.908   7.954  1.00  0.00     0.184 HD
BRANCH  27  29
HETATM   29  C   UNL     1      44.791 -12.446   8.674  1.00  0.00     0.049 A 
HETATM   30  C   UNL     1      43.596 -11.718   8.623  1.00  0.00     0.030 A 
HETATM   31  C   UNL     1      43.292 -10.758   9.594  1.00  0.00     0.002 A 
HETATM   32  C   UNL     1      44.192 -10.491  10.622  1.00  0.00     0.000 A 
HETATM   33  C   UNL     1      45.400 -11.177  10.672  1.00  0.00     0.002 A 
HETATM   34  C   UNL     1      45.698 -12.138   9.701  1.00  0.00     0.030 A 
ENDBRANCH  27  29
ENDBRANCH   3  27
BRANCH   5  35
HETATM   35  N   UNL     1      43.701 -17.527   6.058  1.00  0.00    -0.187 N 
HETATM   36  H   UNL     1      43.797 -17.814   7.024  1.00  0.00     0.184 HD
BRANCH  35  37
HETATM   37  C   UNL     1      44.014 -18.516   5.114  1.00  0.00     0.049 A 
HETATM   38  C   UNL     1      43.636 -18.440   3.769  1.00  0.00     0.030 A 
HETATM   39  C   UNL     1      43.961 -19.461   2.869  1.00  0.00     0.002 A 
HETATM   40  C   UNL     1      44.646 -20.589   3.313  1.00  0.00     0.000 A 
HETATM   41  C   UNL     1      45.005 -20.696   4.652  1.00  0.00     0.002 A 
HETATM   42  C   UNL     1      44.692 -19.667   5.545  1.00  0.00     0.030 A 
ENDBRANCH  35  37
ENDBRANCH   5  35
TORSDOF 8
ENDMDL
MODEL 10
REMARK VINA RESULT:      -9.7      4.346      9.928
REMARK  8 active torsions:
REMARK  status: ('A' for Active; 'I' for Inactive)
REMARK    1  A    between atoms: C_8  and  N_9 
REMARK       I    between atoms: N_9  and  C_10 
REMARK    2  A    between atoms: C_10  and  C_11 
REMARK    3  A    between atoms: C_11  and  N_12 
REMARK    4  A    between atoms: N_16  and  C_17 
REMARK    5  A    between atoms: C_19  and  N_20 
REMARK    6  A    between atoms: N_20  and  C_21 
REMARK    7  A    between atoms: C_28  and  N_29 
REMARK    8  A    between atoms: N_29  and  C_30 
ROOT
HETATM    1  C   UNL     1      42.992 -14.153   4.961  1.00  0.00     0.756 A 
HETATM    2  N   UNL     1      42.952 -15.478   4.970  1.00  0.00     0.131 NA
HETATM    3  C   UNL     1      43.584 -16.085   5.971  1.00  0.00     0.758 A 
HETATM    4  N   UNL     1      44.313 -15.444   6.871  1.00  0.00     0.131 NA
HETATM    5  C   UNL     1      44.311 -14.124   6.793  1.00  0.00     0.758 A 
HETATM    6  N   UNL     1      43.649 -13.444   5.864  1.00  0.00     0.131 NA
ENDROOT
BRANCH   1   7
HETATM    7  N   UNL     1      42.282 -13.471   3.964  1.00  0.00    -0.210 N 
HETATM    8  C   UNL     1      41.812 -12.134   4.355  1.00  0.00     0.169 C 
HETATM    9  C   UNL     1      40.853 -11.563   3.290  1.00  0.00     0.256 C 
HETATM   10  N   UNL     1      41.517 -11.601   1.910  1.00  0.00    -0.060 N 
HETATM   11  H   UNL     1      42.395 -11.078   2.003  1.00  0.00     0.280 HD
HETATM   12  C   UNL     1      41.890 -13.038   1.555  1.00  0.00     0.256 C 
HETATM   13  C   UNL     1      42.843 -13.624   2.618  1.00  0.00     0.169 C 
BRANCH  10  14
HETATM   14  C   UNL     1      40.699 -10.907   0.819  1.00  0.00     0.337 C 
BRANCH  14  15
HETATM   15  C   UNL     1      39.591 -11.745   0.159  1.00  0.00     0.248 C 
HETATM   16  N   UNL     1      39.905 -12.155  -1.128  1.00  0.00    -0.325 N 
HETATM   17  H   UNL     1      40.828 -11.939  -1.481  1.00  0.00     0.169 HD
HETATM   18  O   UNL     1      38.560 -12.000   0.772  1.00  0.00    -0.271 OA
BRANCH  16  19
HETATM   19  C   UNL     1      39.073 -12.879  -2.029  1.00  0.00     0.042 A 
HETATM   20  C   UNL     1      39.469 -14.180  -2.440  1.00  0.00    -0.014 A 
HETATM   21  C   UNL     1      40.718 -14.823  -1.888  1.00  0.00     0.052 C 
HETATM   22  C   UNL     1      38.680 -14.854  -3.398  1.00  0.00     0.042 A 
HETATM   23 CL   UNL     1      39.104 -16.412  -4.019  1.00  0.00    -0.084 Cl
HETATM   24  C   UNL     1      37.511 -14.281  -3.903  1.00  0.00     0.024 A 
HETATM   25  C   UNL     1      37.116 -13.022  -3.473  1.00  0.00     0.004 A 
HETATM   26  C   UNL     1      37.893 -12.327  -2.548  1.00  0.00     0.030 A 
ENDBRANCH  16  19
ENDBRANCH  14  15
ENDBRANCH  10  14
ENDBRANCH   1   7
BRANCH   3  27
HETATM   27  N   UNL     1      43.446 -17.474   6.003  1.00  0.00    -0.187 N 
HETATM   28  H   UNL     1      43.413 -17.781   6.964  1.00  0.00     0.184 HD
BRANCH  27  29
HETATM   29  C   UNL     1      43.841 -18.472   5.097  1.00  0.00     0.049 A 
HETATM   30  C   UNL     1      44.777 -19.470   5.390  1.00  0.00     0.030 A 
HETATM   31  C   UNL     1      45.139 -20.427   4.436  1.00  0.00     0.002 A 
HETATM   32  C   UNL     1      44.587 -20.387   3.159  1.00  0.00     0.000 A 
HETATM   33  C   UNL     1      43.680 -19.383   2.835  1.00  0.00     0.002 A 
HETATM   34  C   UNL     1      43.320 -18.431   3.793  1.00  0.00     0.030 A 
ENDBRANCH  27  29
ENDBRANCH   3  27
BRANCH   5  35
HETATM   35  N   UNL     1      45.107 -13.455   7.720  1.00  0.00    -0.187 N 
HETATM   36  H   UNL     1      45.932 -14.003   7.928  1.00  0.00     0.184 HD
BRANCH  35  37
HETATM   37  C   UNL     1      44.786 -12.483   8.677  1.00  0.00     0.049 A 
HETATM   38  C   UNL     1      43.612 -11.721   8.633  1.00  0.00     0.030 A 
HETATM   39  C   UNL     1      43.344 -10.752   9.607  1.00  0.00     0.002 A 
HETATM   40  C   UNL     1      44.265 -10.512  10.623  1.00  0.00     0.000 A 
HETATM   41  C   UNL     1      45.450 -11.238  10.666  1.00  0.00     0.002 A 
HETATM   42  C   UNL     1      45.707 -12.216   9.701  1.00  0.00     0.030 A 
ENDBRANCH  35  37
ENDBRANCH   5  35
TORSDOF 8
ENDMDL
