MODEL 1
REMARK VINA RESULT:      -9.4      0.000      0.000
REMARK  9 active torsions:
REMARK  status: ('A' for Active; 'I' for Inactive)
REMARK    1  A    between atoms: O_2  and  C_3 
REMARK    2  A    between atoms: C_6  and  C_7 
REMARK    3  A    between atoms: C_8  and  C_9 
REMARK    4  A    between atoms: C_9  and  O_10 
REMARK    5  A    between atoms: O_10  and  C_11 
REMARK    6  A    between atoms: C_14  and  C_15 
REMARK    7  A    between atoms: C_17  and  O_18 
REMARK    8  A    between atoms: N_26  and  C_28 
REMARK    9  A    between atoms: C_28  and  C_29 
ROOT
HETATM    1  C   UNL     1      39.702 -10.398   7.606  1.00  0.00     0.243 C 
HETATM    2  N   UNL     1      40.581  -9.667   6.670  1.00  0.00    -0.235 NA
HETATM    3  C   UNL     1      40.930 -10.307   5.617  1.00  0.00     0.173 C 
HETATM    4  C   UNL     1      40.598 -11.678   5.322  1.00  0.00     0.057 A 
HETATM    5  C   UNL     1      39.986 -12.394   6.321  1.00  0.00     0.087 A 
HETATM    6  S   UNL     1      39.687 -14.009   5.904  1.00  0.00    -0.074 SA
HETATM    7  C   UNL     1      40.380 -13.783   4.369  1.00  0.00     0.018 A 
HETATM    8  C   UNL     1      40.818 -12.486   4.158  1.00  0.00    -0.024 A 
HETATM    9  C   UNL     1      41.478 -12.083   2.871  1.00  0.00     0.068 C 
HETATM   10  C   UNL     1      41.340 -13.168   1.780  1.00  0.00     0.240 C 
HETATM   11  N   UNL     1      41.539 -14.577   2.330  1.00  0.00    -0.063 N 
HETATM   12  H   UNL     1      41.369 -15.238   1.565  1.00  0.00     0.280 HD
HETATM   13  C   UNL     1      40.482 -14.891   3.382  1.00  0.00     0.282 C 
HETATM   14  N   UNL     1      39.696 -11.849   7.511  1.00  0.00    -0.357 N 
HETATM   15  H   UNL     1      39.120 -12.334   8.193  1.00  0.00     0.162 HD
ENDROOT
BRANCH   1  16
HETATM   16  C   UNL     1      39.995 -10.056   9.059  1.00  0.00    -0.014 A 
HETATM   17  C   UNL     1      39.880 -11.052  10.047  1.00  0.00     0.014 A 
HETATM   18  C   UNL     1      40.275 -10.807  11.365  1.00  0.00     0.038 A 
HETATM   19  C   UNL     1      40.780  -9.557  11.706  1.00  0.00     0.079 A 
HETATM   20  C   UNL     1      40.883  -8.547  10.748  1.00  0.00     0.038 A 
HETATM   21  C   UNL     1      40.497  -8.798   9.429  1.00  0.00     0.014 A 
BRANCH  19  22
HETATM   22  O   UNL     1      41.336  -9.246  12.969  1.00  0.00    -0.276 OA
BRANCH  22  23
HETATM   23  C   UNL     1      42.605  -9.616  13.390  1.00  0.00     0.288 C 
HETATM   24  O   UNL     1      43.123  -9.393  14.473  1.00  0.00    -0.260 OA
BRANCH  23  25
HETATM   25  C   UNL     1      43.271 -10.437  12.352  1.00  0.00     0.083 C 
HETATM   26  C   UNL     1      43.885  -9.931  11.272  1.00  0.00     0.017 C 
BRANCH  26  27
HETATM   27  C   UNL     1      44.447 -10.766  10.209  1.00  0.00    -0.036 A 
HETATM   28  C   UNL     1      45.823 -11.017  10.134  1.00  0.00     0.014 A 
HETATM   29  C   UNL     1      46.339 -11.890   9.169  1.00  0.00     0.037 A 
HETATM   30  C   UNL     1      45.482 -12.526   8.272  1.00  0.00     0.068 A 
HETATM   31  C   UNL     1      44.112 -12.264   8.335  1.00  0.00     0.037 A 
HETATM   32  C   UNL     1      43.592 -11.399   9.302  1.00  0.00     0.014 A 
BRANCH  30  33
HETATM   33  O   UNL     1      45.853 -13.413   7.299  1.00  0.00    -0.356 OA
HETATM   34  C   UNL     1      44.829 -14.250   6.774  1.00  0.00     0.210 C 
ENDBRANCH  30  33
ENDBRANCH  26  27
ENDBRANCH  23  25
ENDBRANCH  22  23
ENDBRANCH  19  22
ENDBRANCH   1  16
BRANCH   3  35
HETATM   35  O   UNL     1      41.687  -9.669   4.707  1.00  0.00    -0.344 OA
HETATM   36  H   UNL     1      41.075  -9.136   4.167  1.00  0.00     0.219 HD
ENDBRANCH   3  35
BRANCH  11  37
HETATM   37  C   UNL     1      42.960 -14.830   2.786  1.00  0.00     0.273 C 
BRANCH  37  38
HETATM   38  C   UNL     1      43.349 -16.283   2.788  1.00  0.00    -0.033 A 
HETATM   39  C   UNL     1      43.661 -16.950   1.593  1.00  0.00     0.009 A 
HETATM   40  C   UNL     1      43.990 -18.307   1.610  1.00  0.00     0.001 A 
HETATM   41  C   UNL     1      44.014 -19.006   2.815  1.00  0.00     0.000 A 
HETATM   42  C   UNL     1      43.713 -18.354   4.007  1.00  0.00     0.001 A 
HETATM   43  C   UNL     1      43.382 -16.999   3.996  1.00  0.00     0.009 A 
ENDBRANCH  37  38
ENDBRANCH  11  37
TORSDOF 9
ENDMDL
MODEL 2
REMARK VINA RESULT:      -9.4      3.376     10.167
REMARK  9 active torsions:
REMARK  status: ('A' for Active; 'I' for Inactive)
REMARK    1  A    between atoms: O_2  and  C_3 
REMARK    2  A    between atoms: C_6  and  C_7 
REMARK    3  A    between atoms: C_8  and  C_9 
REMARK    4  A    between atoms: C_9  and  O_10 
REMARK    5  A    between atoms: O_10  and  C_11 
REMARK    6  A    between atoms: C_14  and  C_15 
REMARK    7  A    between atoms: C_17  and  O_18 
REMARK    8  A    between atoms: N_26  and  C_28 
REMARK    9  A    between atoms: C_28  and  C_29 
ROOT
HETATM    1  C   UNL     1      39.567 -11.910   4.996  1.00  0.00     0.243 C 
HETATM    2  N   UNL     1      39.272 -12.716   6.199  1.00  0.00    -0.235 NA
HETATM    3  C   UNL     1      39.330 -12.094   7.316  1.00  0.00     0.173 C 
HETATM    4  C   UNL     1      39.725 -10.717   7.488  1.00  0.00     0.057 A 
HETATM    5  C   UNL     1      40.220 -10.074   6.381  1.00  0.00     0.087 A 
HETATM    6  S   UNL     1      40.710  -8.483   6.692  1.00  0.00    -0.074 SA
HETATM    7  C   UNL     1      40.273  -8.625   8.328  1.00  0.00     0.018 A 
HETATM    8  C   UNL     1      39.735  -9.863   8.639  1.00  0.00    -0.024 A 
HETATM    9  C   UNL     1      39.302 -10.199  10.037  1.00  0.00     0.068 C 
HETATM   10  C   UNL     1      39.266  -8.954  10.951  1.00  0.00     0.240 C 
HETATM   11  N   UNL     1      40.458  -8.029  10.725  1.00  0.00    -0.063 N 
HETATM   12  H   UNL     1      40.328  -7.202  11.316  1.00  0.00     0.280 HD
HETATM   13  C   UNL     1      40.460  -7.508   9.292  1.00  0.00     0.282 C 
HETATM   14  N   UNL     1      40.323 -10.684   5.191  1.00  0.00    -0.357 N 
HETATM   15  H   UNL     1      40.553 -10.168   4.347  1.00  0.00     0.162 HD
ENDROOT
BRANCH   1  16
HETATM   16  C   UNL     1      40.301 -12.712   3.930  1.00  0.00    -0.014 A 
HETATM   17  C   UNL     1      39.778 -13.948   3.504  1.00  0.00     0.014 A 
HETATM   18  C   UNL     1      40.349 -14.639   2.433  1.00  0.00     0.038 A 
HETATM   19  C   UNL     1      41.458 -14.103   1.787  1.00  0.00     0.079 A 
HETATM   20  C   UNL     1      42.007 -12.890   2.207  1.00  0.00     0.038 A 
HETATM   21  C   UNL     1      41.427 -12.196   3.271  1.00  0.00     0.014 A 
BRANCH  19  22
HETATM   22  O   UNL     1      42.028 -14.646   0.612  1.00  0.00    -0.276 OA
BRANCH  22  23
HETATM   23  C   UNL     1      41.807 -15.934   0.144  1.00  0.00     0.288 C 
HETATM   24  O   UNL     1      41.113 -16.272  -0.802  1.00  0.00    -0.260 OA
BRANCH  23  25
HETATM   25  C   UNL     1      42.626 -16.904   0.908  1.00  0.00     0.083 C 
HETATM   26  C   UNL     1      42.121 -17.961   1.564  1.00  0.00     0.017 C 
BRANCH  26  27
HETATM   27  C   UNL     1      42.938 -18.847   2.396  1.00  0.00    -0.036 A 
HETATM   28  C   UNL     1      43.422 -20.065   1.900  1.00  0.00     0.014 A 
HETATM   29  C   UNL     1      44.276 -20.861   2.672  1.00  0.00     0.037 A 
HETATM   30  C   UNL     1      44.660 -20.445   3.945  1.00  0.00     0.068 A 
HETATM   31  C   UNL     1      44.166 -19.239   4.447  1.00  0.00     0.037 A 
HETATM   32  C   UNL     1      43.318 -18.438   3.676  1.00  0.00     0.014 A 
BRANCH  30  33
HETATM   33  O   UNL     1      45.501 -21.116   4.790  1.00  0.00    -0.356 OA
HETATM   34  C   UNL     1      45.128 -22.443   5.141  1.00  0.00     0.210 C 
ENDBRANCH  30  33
ENDBRANCH  26  27
ENDBRANCH  23  25
ENDBRANCH  22  23
ENDBRANCH  19  22
ENDBRANCH   1  16
BRANCH   3  35
HETATM   35  O   UNL     1      39.020 -12.769   8.437  1.00  0.00    -0.344 OA
HETATM   36  H   UNL     1      38.283 -12.285   8.853  1.00  0.00     0.219 HD
ENDBRANCH   3  35
BRANCH  11  37
HETATM   37  C   UNL     1      41.768  -8.647  11.160  1.00  0.00     0.273 C 
BRANCH  37  38
HETATM   38  C   UNL     1      41.880  -8.854  12.646  1.00  0.00    -0.033 A 
HETATM   39  C   UNL     1      41.609  -7.811  13.544  1.00  0.00     0.009 A 
HETATM   40  C   UNL     1      41.749  -8.012  14.919  1.00  0.00     0.001 A 
HETATM   41  C   UNL     1      42.155  -9.253  15.407  1.00  0.00     0.000 A 
HETATM   42  C   UNL     1      42.419 -10.297  14.526  1.00  0.00     0.001 A 
HETATM   43  C   UNL     1      42.283 -10.102  13.152  1.00  0.00     0.009 A 
ENDBRANCH  37  38
ENDBRANCH  11  37
TORSDOF 9
ENDMDL
MODEL 3
REMARK VINA RESULT:      -9.3      3.323     10.011
REMARK  9 active torsions:
REMARK  status: ('A' for Active; 'I' for Inactive)
REMARK    1  A    between atoms: O_2  and  C_3 
REMARK    2  A    between atoms: C_6  and  C_7 
REMARK    3  A    between atoms: C_8  and  C_9 
REMARK    4  A    between atoms: C_9  and  O_10 
REMARK    5  A    between atoms: O_10  and  C_11 
REMARK    6  A    between atoms: C_14  and  C_15 
REMARK    7  A    between atoms: C_17  and  O_18 
REMARK    8  A    between atoms: N_26  and  C_28 
REMARK    9  A    between atoms: C_28  and  C_29 
ROOT
HETATM    1  C   UNL     1      39.294 -11.752   4.444  1.00  0.00     0.243 C 
HETATM    2  N   UNL     1      39.229 -12.689   5.585  1.00  0.00    -0.235 NA
HETATM    3  C   UNL     1      39.331 -12.161   6.747  1.00  0.00     0.173 C 
HETATM    4  C   UNL     1      39.573 -10.764   7.014  1.00  0.00     0.057 A 
HETATM    5  C   UNL     1      39.865  -9.971   5.933  1.00  0.00     0.087 A 
HETATM    6  S   UNL     1      40.191  -8.361   6.349  1.00  0.00    -0.074 SA
HETATM    7  C   UNL     1      39.952  -8.697   7.998  1.00  0.00     0.018 A 
HETATM    8  C   UNL     1      39.604 -10.017   8.237  1.00  0.00    -0.024 A 
HETATM    9  C   UNL     1      39.367 -10.522   9.630  1.00  0.00     0.068 C 
HETATM   10  C   UNL     1      39.279  -9.374  10.660  1.00  0.00     0.240 C 
HETATM   11  N   UNL     1      40.319  -8.286  10.412  1.00  0.00    -0.063 N 
HETATM   12  H   UNL     1      40.156  -7.536  11.091  1.00  0.00     0.280 HD
HETATM   13  C   UNL     1      40.106  -7.651   9.043  1.00  0.00     0.282 C 
HETATM   14  N   UNL     1      39.913 -10.459   4.685  1.00  0.00    -0.357 N 
HETATM   15  H   UNL     1      39.987  -9.848   3.877  1.00  0.00     0.162 HD
ENDROOT
BRANCH   1  16
HETATM   16  C   UNL     1      40.000 -12.359   3.240  1.00  0.00    -0.014 A 
HETATM   17  C   UNL     1      41.401 -12.269   3.137  1.00  0.00     0.014 A 
HETATM   18  C   UNL     1      42.091 -12.934   2.120  1.00  0.00     0.038 A 
HETATM   19  C   UNL     1      41.380 -13.685   1.189  1.00  0.00     0.079 A 
HETATM   20  C   UNL     1      39.989 -13.769   1.260  1.00  0.00     0.038 A 
HETATM   21  C   UNL     1      39.303 -13.113   2.284  1.00  0.00     0.014 A 
BRANCH  19  22
HETATM   22  O   UNL     1      41.983 -14.505   0.208  1.00  0.00    -0.276 OA
BRANCH  22  23
HETATM   23  C   UNL     1      41.629 -15.822  -0.053  1.00  0.00     0.288 C 
HETATM   24  O   UNL     1      41.101 -16.263  -1.061  1.00  0.00    -0.260 OA
BRANCH  23  25
HETATM   25  C   UNL     1      42.068 -16.700   1.056  1.00  0.00     0.083 C 
HETATM   26  C   UNL     1      43.220 -17.389   1.058  1.00  0.00     0.017 C 
BRANCH  26  27
HETATM   27  C   UNL     1      43.585 -18.329   2.120  1.00  0.00    -0.036 A 
HETATM   28  C   UNL     1      43.823 -19.681   1.842  1.00  0.00     0.014 A 
HETATM   29  C   UNL     1      44.260 -20.551   2.848  1.00  0.00     0.037 A 
HETATM   30  C   UNL     1      44.470 -20.076   4.141  1.00  0.00     0.068 A 
HETATM   31  C   UNL     1      44.218 -18.732   4.424  1.00  0.00     0.037 A 
HETATM   32  C   UNL     1      43.788 -17.859   3.420  1.00  0.00     0.014 A 
BRANCH  30  33
HETATM   33  O   UNL     1      44.912 -20.813   5.205  1.00  0.00    -0.356 OA
HETATM   34  C   UNL     1      44.911 -22.227   5.048  1.00  0.00     0.210 C 
ENDBRANCH  30  33
ENDBRANCH  26  27
ENDBRANCH  23  25
ENDBRANCH  22  23
ENDBRANCH  19  22
ENDBRANCH   1  16
BRANCH   3  35
HETATM   35  O   UNL     1      39.227 -12.962   7.822  1.00  0.00    -0.344 OA
HETATM   36  H   UNL     1      39.804 -12.578   8.507  1.00  0.00     0.219 HD
ENDBRANCH   3  35
BRANCH  11  37
HETATM   37  C   UNL     1      41.734  -8.764  10.657  1.00  0.00     0.273 C 
BRANCH  37  38
HETATM   38  C   UNL     1      42.044  -9.031  12.105  1.00  0.00    -0.033 A 
HETATM   39  C   UNL     1      42.465 -10.299  12.533  1.00  0.00     0.009 A 
HETATM   40  C   UNL     1      42.718 -10.537  13.886  1.00  0.00     0.001 A 
HETATM   41  C   UNL     1      42.558  -9.513  14.818  1.00  0.00     0.000 A 
HETATM   42  C   UNL     1      42.149  -8.249  14.404  1.00  0.00     0.001 A 
HETATM   43  C   UNL     1      41.892  -8.007  13.055  1.00  0.00     0.009 A 
ENDBRANCH  37  38
ENDBRANCH  11  37
TORSDOF 9
ENDMDL
MODEL 4
REMARK VINA RESULT:      -9.0      5.613      8.708
REMARK  9 active torsions:
REMARK  status: ('A' for Active; 'I' for Inactive)
REMARK    1  A    between atoms: O_2  and  C_3 
REMARK    2  A    between atoms: C_6  and  C_7 
REMARK    3  A    between atoms: C_8  and  C_9 
REMARK    4  A    between atoms: C_9  and  O_10 
REMARK    5  A    between atoms: O_10  and  C_11 
REMARK    6  A    between atoms: C_14  and  C_15 
REMARK    7  A    between atoms: C_17  and  O_18 
REMARK    8  A    between atoms: N_26  and  C_28 
REMARK    9  A    between atoms: C_28  and  C_29 
ROOT
HETATM    1  C   UNL     1      40.552 -15.633   2.019  1.00  0.00     0.243 C 
HETATM    2  N   UNL     1      39.155 -15.157   2.088  1.00  0.00    -0.235 NA
HETATM    3  C   UNL     1      38.709 -14.580   1.035  1.00  0.00     0.173 C 
HETATM    4  C   UNL     1      39.475 -14.301  -0.155  1.00  0.00     0.057 A 
HETATM    5  C   UNL     1      40.825 -14.541  -0.091  1.00  0.00     0.087 A 
HETATM    6  S   UNL     1      41.648 -14.131  -1.513  1.00  0.00    -0.074 SA
HETATM    7  C   UNL     1      40.206 -13.614  -2.248  1.00  0.00     0.018 A 
HETATM    8  C   UNL     1      39.097 -13.771  -1.432  1.00  0.00    -0.024 A 
HETATM    9  C   UNL     1      37.727 -13.357  -1.887  1.00  0.00     0.068 C 
HETATM   10  C   UNL     1      37.687 -13.033  -3.397  1.00  0.00     0.240 C 
HETATM   11  N   UNL     1      38.912 -12.249  -3.858  1.00  0.00    -0.063 N 
HETATM   12  H   UNL     1      38.843 -12.130  -4.874  1.00  0.00     0.280 HD
HETATM   13  C   UNL     1      40.180 -13.062  -3.628  1.00  0.00     0.282 C 
HETATM   14  N   UNL     1      41.410 -15.023   1.016  1.00  0.00    -0.357 N 
HETATM   15  H   UNL     1      42.377 -15.332   1.014  1.00  0.00     0.162 HD
ENDROOT
BRANCH   1  16
HETATM   16  C   UNL     1      41.274 -15.498   3.352  1.00  0.00    -0.014 A 
HETATM   17  C   UNL     1      40.527 -15.404   4.542  1.00  0.00     0.014 A 
HETATM   18  C   UNL     1      41.157 -15.420   5.789  1.00  0.00     0.038 A 
HETATM   19  C   UNL     1      42.543 -15.517   5.854  1.00  0.00     0.079 A 
HETATM   20  C   UNL     1      43.305 -15.588   4.686  1.00  0.00     0.038 A 
HETATM   21  C   UNL     1      42.672 -15.584   3.441  1.00  0.00     0.014 A 
BRANCH  19  22
HETATM   22  O   UNL     1      43.269 -15.680   7.056  1.00  0.00    -0.276 OA
BRANCH  22  23
HETATM   23  C   UNL     1      43.414 -16.880   7.739  1.00  0.00     0.288 C 
HETATM   24  O   UNL     1      43.435 -17.048   8.948  1.00  0.00    -0.260 OA
BRANCH  23  25
HETATM   25  C   UNL     1      43.455 -18.012   6.785  1.00  0.00     0.083 C 
HETATM   26  C   UNL     1      44.582 -18.630   6.399  1.00  0.00     0.017 C 
BRANCH  26  27
HETATM   27  C   UNL     1      44.607 -19.679   5.378  1.00  0.00    -0.036 A 
HETATM   28  C   UNL     1      44.714 -21.031   5.730  1.00  0.00     0.014 A 
HETATM   29  C   UNL     1      44.645 -22.031   4.752  1.00  0.00     0.037 A 
HETATM   30  C   UNL     1      44.462 -21.689   3.413  1.00  0.00     0.068 A 
HETATM   31  C   UNL     1      44.371 -20.341   3.059  1.00  0.00     0.037 A 
HETATM   32  C   UNL     1      44.432 -19.340   4.034  1.00  0.00     0.014 A 
BRANCH  30  33
HETATM   33  O   UNL     1      44.358 -22.565   2.368  1.00  0.00    -0.356 OA
HETATM   34  C   UNL     1      44.029 -22.010   1.100  1.00  0.00     0.210 C 
ENDBRANCH  30  33
ENDBRANCH  26  27
ENDBRANCH  23  25
ENDBRANCH  22  23
ENDBRANCH  19  22
ENDBRANCH   1  16
BRANCH   3  35
HETATM   35  O   UNL     1      37.427 -14.174   1.027  1.00  0.00    -0.344 OA
HETATM   36  H   UNL     1      36.918 -14.885   0.596  1.00  0.00     0.219 HD
ENDBRANCH   3  35
BRANCH  11  37
HETATM   37  C   UNL     1      38.961 -10.850  -3.281  1.00  0.00     0.273 C 
BRANCH  37  38
HETATM   38  C   UNL     1      40.356 -10.335  -3.052  1.00  0.00    -0.033 A 
HETATM   39  C   UNL     1      41.201 -10.030  -4.130  1.00  0.00     0.009 A 
HETATM   40  C   UNL     1      42.504  -9.583  -3.897  1.00  0.00     0.001 A 
HETATM   41  C   UNL     1      42.970  -9.433  -2.593  1.00  0.00     0.000 A 
HETATM   42  C   UNL     1      42.138  -9.725  -1.516  1.00  0.00     0.001 A 
HETATM   43  C   UNL     1      40.837 -10.174  -1.742  1.00  0.00     0.009 A 
ENDBRANCH  37  38
ENDBRANCH  11  37
TORSDOF 9
ENDMDL
MODEL 5
REMARK VINA RESULT:      -9.0      2.859      9.179
REMARK  9 active torsions:
REMARK  status: ('A' for Active; 'I' for Inactive)
REMARK    1  A    between atoms: O_2  and  C_3 
REMARK    2  A    between atoms: C_6  and  C_7 
REMARK    3  A    between atoms: C_8  and  C_9 
REMARK    4  A    between atoms: C_9  and  O_10 
REMARK    5  A    between atoms: O_10  and  C_11 
REMARK    6  A    between atoms: C_14  and  C_15 
REMARK    7  A    between atoms: C_17  and  O_18 
REMARK    8  A    between atoms: N_26  and  C_28 
REMARK    9  A    between atoms: C_28  and  C_29 
ROOT
HETATM    1  C   UNL     1      39.477 -11.850   5.775  1.00  0.00     0.243 C 
HETATM    2  N   UNL     1      38.833 -12.632   6.851  1.00  0.00    -0.235 NA
HETATM    3  C   UNL     1      39.156 -12.308   8.047  1.00  0.00     0.173 C 
HETATM    4  C   UNL     1      40.135 -11.313   8.409  1.00  0.00     0.057 A 
HETATM    5  C   UNL     1      40.882 -10.781   7.388  1.00  0.00     0.087 A 
HETATM    6  S   UNL     1      42.042  -9.665   7.914  1.00  0.00    -0.074 SA
HETATM    7  C   UNL     1      41.570  -9.876   9.533  1.00  0.00     0.018 A 
HETATM    8  C   UNL     1      40.522 -10.771   9.679  1.00  0.00    -0.024 A 
HETATM    9  C   UNL     1      39.967 -11.111  11.031  1.00  0.00     0.068 C 
HETATM   10  C   UNL     1      40.494 -10.166  12.133  1.00  0.00     0.240 C 
HETATM   11  N   UNL     1      41.980  -9.856  11.975  1.00  0.00    -0.063 N 
HETATM   12  H   UNL     1      42.236  -9.177  12.699  1.00  0.00     0.280 HD
HETATM   13  C   UNL     1      42.236  -9.152  10.648  1.00  0.00     0.282 C 
HETATM   14  N   UNL     1      40.708 -11.153   6.111  1.00  0.00    -0.357 N 
HETATM   15  H   UNL     1      41.158 -10.659   5.347  1.00  0.00     0.162 HD
ENDROOT
BRANCH   1  16
HETATM   16  C   UNL     1      39.775 -12.697   4.547  1.00  0.00    -0.014 A 
HETATM   17  C   UNL     1      39.964 -14.086   4.687  1.00  0.00     0.014 A 
HETATM   18  C   UNL     1      40.100 -14.909   3.566  1.00  0.00     0.038 A 
HETATM   19  C   UNL     1      40.060 -14.346   2.295  1.00  0.00     0.079 A 
HETATM   20  C   UNL     1      39.897 -12.969   2.133  1.00  0.00     0.038 A 
HETATM   21  C   UNL     1      39.750 -12.150   3.255  1.00  0.00     0.014 A 
BRANCH  19  22
HETATM   22  O   UNL     1      40.049 -15.097   1.097  1.00  0.00    -0.276 OA
BRANCH  22  23
HETATM   23  C   UNL     1      41.172 -15.407   0.343  1.00  0.00     0.288 C 
HETATM   24  O   UNL     1      41.471 -14.973  -0.758  1.00  0.00    -0.260 OA
BRANCH  23  25
HETATM   25  C   UNL     1      42.067 -16.309   1.105  1.00  0.00     0.083 C 
HETATM   26  C   UNL     1      41.779 -17.588   1.392  1.00  0.00     0.017 C 
BRANCH  26  27
HETATM   27  C   UNL     1      42.633 -18.429   2.233  1.00  0.00    -0.036 A 
HETATM   28  C   UNL     1      43.165 -19.633   1.751  1.00  0.00     0.014 A 
HETATM   29  C   UNL     1      44.053 -20.383   2.531  1.00  0.00     0.037 A 
HETATM   30  C   UNL     1      44.425 -19.934   3.797  1.00  0.00     0.068 A 
HETATM   31  C   UNL     1      43.883 -18.742   4.284  1.00  0.00     0.037 A 
HETATM   32  C   UNL     1      43.002 -17.987   3.506  1.00  0.00     0.014 A 
BRANCH  30  33
HETATM   33  O   UNL     1      45.295 -20.558   4.647  1.00  0.00    -0.356 OA
HETATM   34  C   UNL     1      44.992 -21.904   4.997  1.00  0.00     0.210 C 
ENDBRANCH  30  33
ENDBRANCH  26  27
ENDBRANCH  23  25
ENDBRANCH  22  23
ENDBRANCH  19  22
ENDBRANCH   1  16
BRANCH   3  35
HETATM   35  O   UNL     1      38.559 -12.953   9.064  1.00  0.00    -0.344 OA
HETATM   36  H   UNL     1      37.954 -13.602   8.659  1.00  0.00     0.219 HD
ENDBRANCH   3  35
BRANCH  11  37
HETATM   37  C   UNL     1      42.857 -11.066  12.213  1.00  0.00     0.273 C 
BRANCH  37  38
HETATM   38  C   UNL     1      43.896 -11.284  11.148  1.00  0.00    -0.033 A 
HETATM   39  C   UNL     1      44.965 -10.389  10.986  1.00  0.00     0.009 A 
HETATM   40  C   UNL     1      45.903 -10.590   9.971  1.00  0.00     0.001 A 
HETATM   41  C   UNL     1      45.785 -11.684   9.115  1.00  0.00     0.000 A 
HETATM   42  C   UNL     1      44.733 -12.581   9.271  1.00  0.00     0.001 A 
HETATM   43  C   UNL     1      43.792 -12.385  10.282  1.00  0.00     0.009 A 
ENDBRANCH  37  38
ENDBRANCH  11  37
TORSDOF 9
ENDMDL
MODEL 6
REMARK VINA RESULT:      -8.6      6.002      9.340
REMARK  9 active torsions:
REMARK  status: ('A' for Active; 'I' for Inactive)
REMARK    1  A    between atoms: O_2  and  C_3 
REMARK    2  A    between atoms: C_6  and  C_7 
REMARK    3  A    between atoms: C_8  and  C_9 
REMARK    4  A    between atoms: C_9  and  O_10 
REMARK    5  A    between atoms: O_10  and  C_11 
REMARK    6  A    between atoms: C_14  and  C_15 
REMARK    7  A    between atoms: C_17  and  O_18 
REMARK    8  A    between atoms: N_26  and  C_28 
REMARK    9  A    between atoms: C_28  and  C_29 
ROOT
HETATM    1  C   UNL     1      39.732 -12.054   3.106  1.00  0.00     0.243 C 
HETATM    2  N   UNL     1      39.110 -13.254   2.508  1.00  0.00    -0.235 NA
HETATM    3  C   UNL     1      39.635 -14.376   2.833  1.00  0.00     0.173 C 
HETATM    4  C   UNL     1      40.806 -14.545   3.658  1.00  0.00     0.057 A 
HETATM    5  C   UNL     1      41.494 -13.406   3.995  1.00  0.00     0.087 A 
HETATM    6  S   UNL     1      42.883 -13.707   4.915  1.00  0.00    -0.074 SA
HETATM    7  C   UNL     1      42.596 -15.381   4.876  1.00  0.00     0.018 A 
HETATM    8  C   UNL     1      41.439 -15.716   4.189  1.00  0.00    -0.024 A 
HETATM    9  C   UNL     1      41.015 -17.146   4.023  1.00  0.00     0.068 C 
HETATM   10  C   UNL     1      41.832 -18.105   4.918  1.00  0.00     0.240 C 
HETATM   11  N   UNL     1      43.315 -17.749   4.952  1.00  0.00    -0.063 N 
HETATM   12  H   UNL     1      43.774 -18.386   5.612  1.00  0.00     0.280 HD
HETATM   13  C   UNL     1      43.513 -16.352   5.529  1.00  0.00     0.282 C 
HETATM   14  N   UNL     1      41.096 -12.190   3.592  1.00  0.00    -0.357 N 
HETATM   15  H   UNL     1      41.520 -11.343   3.959  1.00  0.00     0.162 HD
ENDROOT
BRANCH   1  16
HETATM   16  C   UNL     1      39.722 -10.866   2.156  1.00  0.00    -0.014 A 
HETATM   17  C   UNL     1      40.907 -10.138   1.938  1.00  0.00     0.014 A 
HETATM   18  C   UNL     1      40.966  -9.132   0.970  1.00  0.00     0.038 A 
HETATM   19  C   UNL     1      39.832  -8.839   0.220  1.00  0.00     0.079 A 
HETATM   20  C   UNL     1      38.639  -9.532   0.435  1.00  0.00     0.038 A 
HETATM   21  C   UNL     1      38.587 -10.545   1.395  1.00  0.00     0.014 A 
BRANCH  19  22
HETATM   22  O   UNL     1      39.816  -7.942  -0.874  1.00  0.00    -0.276 OA
BRANCH  22  23
HETATM   23  C   UNL     1      40.237  -8.252  -2.160  1.00  0.00     0.288 C 
HETATM   24  O   UNL     1      40.738  -7.498  -2.980  1.00  0.00    -0.260 OA
BRANCH  23  25
HETATM   25  C   UNL     1      40.084  -9.703  -2.414  1.00  0.00     0.083 C 
HETATM   26  C   UNL     1      41.108 -10.535  -2.662  1.00  0.00     0.017 C 
BRANCH  26  27
HETATM   27  C   UNL     1      40.923 -11.946  -3.010  1.00  0.00    -0.036 A 
HETATM   28  C   UNL     1      41.996 -12.845  -2.985  1.00  0.00     0.014 A 
HETATM   29  C   UNL     1      41.792 -14.208  -3.230  1.00  0.00     0.037 A 
HETATM   30  C   UNL     1      40.510 -14.686  -3.497  1.00  0.00     0.068 A 
HETATM   31  C   UNL     1      39.441 -13.788  -3.538  1.00  0.00     0.037 A 
HETATM   32  C   UNL     1      39.641 -12.427  -3.286  1.00  0.00     0.014 A 
BRANCH  30  33
HETATM   33  O   UNL     1      40.172 -15.991  -3.733  1.00  0.00    -0.356 OA
HETATM   34  C   UNL     1      38.874 -16.228  -4.267  1.00  0.00     0.210 C 
ENDBRANCH  30  33
ENDBRANCH  26  27
ENDBRANCH  23  25
ENDBRANCH  22  23
ENDBRANCH  19  22
ENDBRANCH   1  16
BRANCH   3  35
HETATM   35  O   UNL     1      39.075 -15.502   2.357  1.00  0.00    -0.344 OA
HETATM   36  H   UNL     1      38.309 -15.690   2.931  1.00  0.00     0.219 HD
ENDBRANCH   3  35
BRANCH  11  37
HETATM   37  C   UNL     1      44.000 -17.972   3.621  1.00  0.00     0.273 C 
BRANCH  37  38
HETATM   38  C   UNL     1      44.108 -19.419   3.226  1.00  0.00    -0.033 A 
HETATM   39  C   UNL     1      43.604 -19.873   1.997  1.00  0.00     0.009 A 
HETATM   40  C   UNL     1      43.685 -21.226   1.660  1.00  0.00     0.001 A 
HETATM   41  C   UNL     1      44.270 -22.133   2.542  1.00  0.00     0.000 A 
HETATM   42  C   UNL     1      44.779 -21.693   3.760  1.00  0.00     0.001 A 
HETATM   43  C   UNL     1      44.700 -20.343   4.103  1.00  0.00     0.009 A 
ENDBRANCH  37  38
ENDBRANCH  11  37
TORSDOF 9
ENDMDL
MODEL 7
REMARK VINA RESULT:      -8.5      6.369      9.912
REMARK  9 active torsions:
REMARK  status: ('A' for Active; 'I' for Inactive)
REMARK    1  A    between atoms: O_2  and  C_3 
REMARK    2  A    between atoms: C_6  and  C_7 
REMARK    3  A    between atoms: C_8  and  C_9 
REMARK    4  A    between atoms: C_9  and  O_10 
REMARK    5  A    between atoms: O_10  and  C_11 
REMARK    6  A    between atoms: C_14  and  C_15 
REMARK    7  A    between atoms: C_17  and  O_18 
REMARK    8  A    between atoms: N_26  and  C_28 
REMARK    9  A    between atoms: C_28  and  C_29 
ROOT
HETATM    1  C   UNL     1      40.960 -12.013   2.051  1.00  0.00     0.243 C 
HETATM    2  N   UNL     1      40.347 -13.173   1.370  1.00  0.00    -0.235 NA
HETATM    3  C   UNL     1      40.613 -14.320   1.873  1.00  0.00     0.173 C 
HETATM    4  C   UNL     1      41.505 -14.563   2.979  1.00  0.00     0.057 A 
HETATM    5  C   UNL     1      42.238 -13.493   3.429  1.00  0.00     0.087 A 
HETATM    6  S   UNL     1      43.297 -13.886   4.690  1.00  0.00    -0.074 SA
HETATM    7  C   UNL     1      42.798 -15.510   4.657  1.00  0.00     0.018 A 
HETATM    8  C   UNL     1      41.816 -15.756   3.711  1.00  0.00    -0.024 A 
HETATM    9  C   UNL     1      41.252 -17.132   3.510  1.00  0.00     0.068 C 
HETATM   10  C   UNL     1      41.677 -18.107   4.630  1.00  0.00     0.240 C 
HETATM   11  N   UNL     1      43.139 -17.934   5.030  1.00  0.00    -0.063 N 
HETATM   12  H   UNL     1      43.325 -18.566   5.815  1.00  0.00     0.280 HD
HETATM   13  C   UNL     1      43.379 -16.530   5.571  1.00  0.00     0.282 C 
HETATM   14  N   UNL     1      42.126 -12.274   2.879  1.00  0.00    -0.357 N 
HETATM   15  H   UNL     1      42.559 -11.459   3.302  1.00  0.00     0.162 HD
ENDROOT
BRANCH   1  16
HETATM   16  C   UNL     1      41.353 -10.914   1.075  1.00  0.00    -0.014 A 
HETATM   17  C   UNL     1      42.547 -11.030   0.339  1.00  0.00     0.014 A 
HETATM   18  C   UNL     1      42.867 -10.110  -0.663  1.00  0.00     0.038 A 
HETATM   19  C   UNL     1      41.997  -9.058  -0.928  1.00  0.00     0.079 A 
HETATM   20  C   UNL     1      40.818  -8.910  -0.194  1.00  0.00     0.038 A 
HETATM   21  C   UNL     1      40.496  -9.838   0.799  1.00  0.00     0.014 A 
BRANCH  19  22
HETATM   22  O   UNL     1      42.151  -8.155  -2.005  1.00  0.00    -0.276 OA
BRANCH  22  23
HETATM   23  C   UNL     1      42.087  -8.503  -3.347  1.00  0.00     0.288 C 
HETATM   24  O   UNL     1      42.222  -7.767  -4.313  1.00  0.00    -0.260 OA
BRANCH  23  25
HETATM   25  C   UNL     1      41.915  -9.967  -3.490  1.00  0.00     0.083 C 
HETATM   26  C   UNL     1      40.723 -10.582  -3.542  1.00  0.00     0.017 C 
BRANCH  26  27
HETATM   27  C   UNL     1      40.578 -12.039  -3.582  1.00  0.00    -0.036 A 
HETATM   28  C   UNL     1      41.692 -12.882  -3.468  1.00  0.00     0.014 A 
HETATM   29  C   UNL     1      41.533 -14.272  -3.416  1.00  0.00     0.037 A 
HETATM   30  C   UNL     1      40.258 -14.832  -3.470  1.00  0.00     0.068 A 
HETATM   31  C   UNL     1      39.148 -13.994  -3.600  1.00  0.00     0.037 A 
HETATM   32  C   UNL     1      39.303 -12.606  -3.645  1.00  0.00     0.014 A 
BRANCH  30  33
HETATM   33  O   UNL     1      39.964 -16.167  -3.408  1.00  0.00    -0.356 OA
HETATM   34  C   UNL     1      38.744 -16.581  -4.013  1.00  0.00     0.210 C 
ENDBRANCH  30  33
ENDBRANCH  26  27
ENDBRANCH  23  25
ENDBRANCH  22  23
ENDBRANCH  19  22
ENDBRANCH   1  16
BRANCH   3  35
HETATM   35  O   UNL     1      40.038 -15.404   1.322  1.00  0.00    -0.344 OA
HETATM   36  H   UNL     1      39.712 -15.126   0.446  1.00  0.00     0.219 HD
ENDBRANCH   3  35
BRANCH  11  37
HETATM   37  C   UNL     1      44.097 -18.346   3.933  1.00  0.00     0.273 C 
BRANCH  37  38
HETATM   38  C   UNL     1      44.285 -19.834   3.815  1.00  0.00    -0.033 A 
HETATM   39  C   UNL     1      44.643 -20.609   4.930  1.00  0.00     0.009 A 
HETATM   40  C   UNL     1      44.844 -21.984   4.795  1.00  0.00     0.001 A 
HETATM   41  C   UNL     1      44.685 -22.597   3.553  1.00  0.00     0.000 A 
HETATM   42  C   UNL     1      44.323 -21.840   2.443  1.00  0.00     0.001 A 
HETATM   43  C   UNL     1      44.123 -20.465   2.571  1.00  0.00     0.009 A 
ENDBRANCH  37  38
ENDBRANCH  11  37
TORSDOF 9
ENDMDL
MODEL 8
REMARK VINA RESULT:      -8.4      4.016      7.325
REMARK  9 active torsions:
REMARK  status: ('A' for Active; 'I' for Inactive)
REMARK    1  A    between atoms: O_2  and  C_3 
REMARK    2  A    between atoms: C_6  and  C_7 
REMARK    3  A    between atoms: C_8  and  C_9 
REMARK    4  A    between atoms: C_9  and  O_10 
REMARK    5  A    between atoms: O_10  and  C_11 
REMARK    6  A    between atoms: C_14  and  C_15 
REMARK    7  A    between atoms: C_17  and  O_18 
REMARK    8  A    between atoms: N_26  and  C_28 
REMARK    9  A    between atoms: C_28  and  C_29 
ROOT
HETATM    1  C   UNL     1      42.675 -13.816   4.075  1.00  0.00     0.243 C 
HETATM    2  N   UNL     1      41.661 -14.888   3.991  1.00  0.00    -0.235 NA
HETATM    3  C   UNL     1      40.695 -14.681   3.176  1.00  0.00     0.173 C 
HETATM    4  C   UNL     1      40.489 -13.476   2.410  1.00  0.00     0.057 A 
HETATM    5  C   UNL     1      41.314 -12.416   2.694  1.00  0.00     0.087 A 
HETATM    6  S   UNL     1      40.961 -11.029   1.788  1.00  0.00    -0.074 SA
HETATM    7  C   UNL     1      39.685 -11.822   0.995  1.00  0.00     0.018 A 
HETATM    8  C   UNL     1      39.535 -13.141   1.395  1.00  0.00    -0.024 A 
HETATM    9  C   UNL     1      38.452 -14.011   0.827  1.00  0.00     0.068 C 
HETATM   10  C   UNL     1      37.765 -13.365  -0.396  1.00  0.00     0.240 C 
HETATM   11  N   UNL     1      37.520 -11.871  -0.207  1.00  0.00    -0.063 N 
HETATM   12  H   UNL     1      37.124 -11.506  -1.079  1.00  0.00     0.280 HD
HETATM   13  C   UNL     1      38.842 -11.137  -0.020  1.00  0.00     0.282 C 
HETATM   14  N   UNL     1      42.274 -12.492   3.628  1.00  0.00    -0.357 N 
HETATM   15  H   UNL     1      42.971 -11.760   3.735  1.00  0.00     0.162 HD
ENDROOT
BRANCH   1  16
HETATM   16  C   UNL     1      43.226 -13.654   5.484  1.00  0.00    -0.014 A 
HETATM   17  C   UNL     1      44.337 -14.417   5.890  1.00  0.00     0.014 A 
HETATM   18  C   UNL     1      44.952 -14.193   7.124  1.00  0.00     0.038 A 
HETATM   19  C   UNL     1      44.451 -13.207   7.968  1.00  0.00     0.079 A 
HETATM   20  C   UNL     1      43.337 -12.453   7.596  1.00  0.00     0.038 A 
HETATM   21  C   UNL     1      42.731 -12.672   6.357  1.00  0.00     0.014 A 
BRANCH  19  22
HETATM   22  O   UNL     1      45.075 -12.803   9.171  1.00  0.00    -0.276 OA
BRANCH  22  23
HETATM   23  C   UNL     1      45.490 -11.509   9.454  1.00  0.00     0.288 C 
HETATM   24  O   UNL     1      46.258 -10.817   8.805  1.00  0.00    -0.260 OA
BRANCH  23  25
HETATM   25  C   UNL     1      44.790 -10.997  10.655  1.00  0.00     0.083 C 
HETATM   26  C   UNL     1      43.895  -9.997  10.633  1.00  0.00     0.017 C 
BRANCH  26  27
HETATM   27  C   UNL     1      43.291  -9.441  11.846  1.00  0.00    -0.036 A 
HETATM   28  C   UNL     1      42.476  -8.303  11.795  1.00  0.00     0.014 A 
HETATM   29  C   UNL     1      41.831  -7.834  12.945  1.00  0.00     0.037 A 
HETATM   30  C   UNL     1      41.990  -8.502  14.158  1.00  0.00     0.068 A 
HETATM   31  C   UNL     1      42.815  -9.627  14.214  1.00  0.00     0.037 A 
HETATM   32  C   UNL     1      43.454 -10.103  13.066  1.00  0.00     0.014 A 
BRANCH  30  33
HETATM   33  O   UNL     1      41.403  -8.161  15.345  1.00  0.00    -0.356 OA
HETATM   34  C   UNL     1      41.398  -9.155  16.364  1.00  0.00     0.210 C 
ENDBRANCH  30  33
ENDBRANCH  26  27
ENDBRANCH  23  25
ENDBRANCH  22  23
ENDBRANCH  19  22
ENDBRANCH   1  16
BRANCH   3  35
HETATM   35  O   UNL     1      39.773 -15.648   3.023  1.00  0.00    -0.344 OA
HETATM   36  H   UNL     1      40.182 -16.328   2.456  1.00  0.00     0.219 HD
ENDBRANCH   3  35
BRANCH  11  37
HETATM   37  C   UNL     1      36.494 -11.580   0.867  1.00  0.00     0.273 C 
BRANCH  37  38
HETATM   38  C   UNL     1      35.196 -11.036   0.337  1.00  0.00    -0.033 A 
HETATM   39  C   UNL     1      34.143 -10.704   1.203  1.00  0.00     0.009 A 
HETATM   40  C   UNL     1      32.933 -10.230   0.690  1.00  0.00     0.001 A 
HETATM   41  C   UNL     1      32.766 -10.080  -0.685  1.00  0.00     0.000 A 
HETATM   42  C   UNL     1      33.806 -10.399  -1.553  1.00  0.00     0.001 A 
HETATM   43  C   UNL     1      35.016 -10.875  -1.048  1.00  0.00     0.009 A 
ENDBRANCH  37  38
ENDBRANCH  11  37
TORSDOF 9
ENDMDL
MODEL 9
REMARK VINA RESULT:      -8.3      4.119      7.578
REMARK  9 active torsions:
REMARK  status: ('A' for Active; 'I' for Inactive)
REMARK    1  A    between atoms: O_2  and  C_3 
REMARK    2  A    between atoms: C_6  and  C_7 
REMARK    3  A    between atoms: C_8  and  C_9 
REMARK    4  A    between atoms: C_9  and  O_10 
REMARK    5  A    between atoms: O_10  and  C_11 
REMARK    6  A    between atoms: C_14  and  C_15 
REMARK    7  A    between atoms: C_17  and  O_18 
REMARK    8  A    between atoms: N_26  and  C_28 
REMARK    9  A    between atoms: C_28  and  C_29 
ROOT
HETATM    1  C   UNL     1      41.029 -15.586   2.310  1.00  0.00     0.243 C 
HETATM    2  N   UNL     1      39.656 -15.055   2.438  1.00  0.00    -0.235 NA
HETATM    3  C   UNL     1      39.132 -14.598   1.363  1.00  0.00     0.173 C 
HETATM    4  C   UNL     1      39.794 -14.496   0.086  1.00  0.00     0.057 A 
HETATM    5  C   UNL     1      41.138 -14.774   0.063  1.00  0.00     0.087 A 
HETATM    6  S   UNL     1      41.841 -14.573  -1.464  1.00  0.00    -0.074 SA
HETATM    7  C   UNL     1      40.352 -14.100  -2.132  1.00  0.00     0.018 A 
HETATM    8  C   UNL     1      39.316 -14.114  -1.211  1.00  0.00    -0.024 A 
HETATM    9  C   UNL     1      37.922 -13.711  -1.595  1.00  0.00     0.068 C 
HETATM   10  C   UNL     1      37.755 -13.575  -3.125  1.00  0.00     0.240 C 
HETATM   11  N   UNL     1      38.953 -12.898  -3.785  1.00  0.00    -0.063 N 
HETATM   12  H   UNL     1      38.796 -12.903  -4.797  1.00  0.00     0.280 HD
HETATM   13  C   UNL     1      40.216 -13.722  -3.564  1.00  0.00     0.282 C 
HETATM   14  N   UNL     1      41.808 -15.136   1.168  1.00  0.00    -0.357 N 
HETATM   15  H   UNL     1      42.764 -15.477   1.123  1.00  0.00     0.162 HD
ENDROOT
BRANCH   1  16
HETATM   16  C   UNL     1      41.870 -15.313   3.549  1.00  0.00    -0.014 A 
HETATM   17  C   UNL     1      41.754 -16.157   4.670  1.00  0.00     0.014 A 
HETATM   18  C   UNL     1      42.609 -16.017   5.766  1.00  0.00     0.038 A 
HETATM   19  C   UNL     1      43.581 -15.023   5.753  1.00  0.00     0.079 A 
HETATM   20  C   UNL     1      43.700 -14.161   4.661  1.00  0.00     0.038 A 
HETATM   21  C   UNL     1      42.851 -14.309   3.562  1.00  0.00     0.014 A 
BRANCH  19  22
HETATM   22  O   UNL     1      44.583 -14.882   6.741  1.00  0.00    -0.276 OA
BRANCH  22  23
HETATM   23  C   UNL     1      45.289 -13.714   6.994  1.00  0.00     0.288 C 
HETATM   24  O   UNL     1      46.280 -13.304   6.411  1.00  0.00    -0.260 OA
BRANCH  23  25
HETATM   25  C   UNL     1      44.617 -12.929   8.055  1.00  0.00     0.083 C 
HETATM   26  C   UNL     1      45.216 -12.530   9.189  1.00  0.00     0.017 C 
BRANCH  26  27
HETATM   27  C   UNL     1      44.503 -11.842  10.267  1.00  0.00    -0.036 A 
HETATM   28  C   UNL     1      44.007 -12.546  11.373  1.00  0.00     0.014 A 
HETATM   29  C   UNL     1      43.408 -11.867  12.441  1.00  0.00     0.037 A 
HETATM   30  C   UNL     1      43.306 -10.477  12.417  1.00  0.00     0.068 A 
HETATM   31  C   UNL     1      43.786  -9.776  11.309  1.00  0.00     0.037 A 
HETATM   32  C   UNL     1      44.391 -10.450  10.244  1.00  0.00     0.014 A 
BRANCH  30  33
HETATM   33  O   UNL     1      42.764  -9.695  13.400  1.00  0.00    -0.356 OA
HETATM   34  C   UNL     1      41.921 -10.346  14.343  1.00  0.00     0.210 C 
ENDBRANCH  30  33
ENDBRANCH  26  27
ENDBRANCH  23  25
ENDBRANCH  22  23
ENDBRANCH  19  22
ENDBRANCH   1  16
BRANCH   3  35
HETATM   35  O   UNL     1      37.865 -14.150   1.413  1.00  0.00    -0.344 OA
HETATM   36  H   UNL     1      37.391 -14.587   0.681  1.00  0.00     0.219 HD
ENDBRANCH   3  35
BRANCH  11  37
HETATM   37  C   UNL     1      39.088 -11.442  -3.395  1.00  0.00     0.273 C 
BRANCH  37  38
HETATM   38  C   UNL     1      40.288 -10.760  -3.995  1.00  0.00    -0.033 A 
HETATM   39  C   UNL     1      40.377 -10.537  -5.378  1.00  0.00     0.009 A 
HETATM   40  C   UNL     1      41.512  -9.931  -5.920  1.00  0.00     0.001 A 
HETATM   41  C   UNL     1      42.562  -9.541  -5.091  1.00  0.00     0.000 A 
HETATM   42  C   UNL     1      42.480  -9.750  -3.717  1.00  0.00     0.001 A 
HETATM   43  C   UNL     1      41.350 -10.357  -3.170  1.00  0.00     0.009 A 
ENDBRANCH  37  38
ENDBRANCH  11  37
TORSDOF 9
ENDMDL
MODEL 10
REMARK VINA RESULT:      -8.3      6.776     11.194
REMARK  9 active torsions:
REMARK  status: ('A' for Active; 'I' for Inactive)
REMARK    1  A    between atoms: O_2  and  C_3 
REMARK    2  A    between atoms: C_6  and  C_7 
REMARK    3  A    between atoms: C_8  and  C_9 
REMARK    4  A    between atoms: C_9  and  O_10 
REMARK    5  A    between atoms: O_10  and  C_11 
REMARK    6  A    between atoms: C_14  and  C_15 
REMARK    7  A    between atoms: C_17  and  O_18 
REMARK    8  A    between atoms: N_26  and  C_28 
REMARK    9  A    between atoms: C_28  and  C_29 
ROOT
HETATM    1  C   UNL     1      41.287 -12.426   0.911  1.00  0.00     0.243 C 
HETATM    2  N   UNL     1      40.743 -13.679   0.347  1.00  0.00    -0.235 NA
HETATM    3  C   UNL     1      40.976 -14.742   1.020  1.00  0.00     0.173 C 
HETATM    4  C   UNL     1      41.774 -14.816   2.220  1.00  0.00     0.057 A 
HETATM    5  C   UNL     1      42.457 -13.680   2.578  1.00  0.00     0.087 A 
HETATM    6  S   UNL     1      43.410 -13.878   3.963  1.00  0.00    -0.074 SA
HETATM    7  C   UNL     1      42.930 -15.501   4.111  1.00  0.00     0.018 A 
HETATM    8  C   UNL     1      42.032 -15.892   3.130  1.00  0.00    -0.024 A 
HETATM    9  C   UNL     1      41.500 -17.294   3.072  1.00  0.00     0.068 C 
HETATM   10  C   UNL     1      41.838 -18.100   4.346  1.00  0.00     0.240 C 
HETATM   11  N   UNL     1      43.260 -17.846   4.837  1.00  0.00    -0.063 N 
HETATM   12  H   UNL     1      43.384 -18.362   5.714  1.00  0.00     0.280 HD
HETATM   13  C   UNL     1      43.440 -16.376   5.200  1.00  0.00     0.282 C 
HETATM   14  N   UNL     1      42.381 -12.549   1.860  1.00  0.00    -0.357 N 
HETATM   15  H   UNL     1      42.770 -11.675   2.202  1.00  0.00     0.162 HD
ENDROOT
BRANCH   1  16
HETATM   16  C   UNL     1      41.751 -11.461  -0.170  1.00  0.00    -0.014 A 
HETATM   17  C   UNL     1      42.620 -11.912  -1.181  1.00  0.00     0.014 A 
HETATM   18  C   UNL     1      42.953 -11.092  -2.262  1.00  0.00     0.038 A 
HETATM   19  C   UNL     1      42.426  -9.807  -2.333  1.00  0.00     0.079 A 
HETATM   20  C   UNL     1      41.580  -9.330  -1.330  1.00  0.00     0.038 A 
HETATM   21  C   UNL     1      41.240 -10.156  -0.256  1.00  0.00     0.014 A 
BRANCH  19  22
HETATM   22  O   UNL     1      42.584  -8.947  -3.444  1.00  0.00    -0.276 OA
BRANCH  22  23
HETATM   23  C   UNL     1      42.252  -9.272  -4.752  1.00  0.00     0.288 C 
HETATM   24  O   UNL     1      42.898  -9.038  -5.762  1.00  0.00    -0.260 OA
BRANCH  23  25
HETATM   25  C   UNL     1      40.997 -10.058  -4.783  1.00  0.00     0.083 C 
HETATM   26  C   UNL     1      39.771  -9.515  -4.822  1.00  0.00     0.017 C 
BRANCH  26  27
HETATM   27  C   UNL     1      38.544 -10.311  -4.749  1.00  0.00    -0.036 A 
HETATM   28  C   UNL     1      37.573 -10.240  -5.757  1.00  0.00     0.014 A 
HETATM   29  C   UNL     1      36.447 -11.072  -5.723  1.00  0.00     0.037 A 
HETATM   30  C   UNL     1      36.284 -11.988  -4.685  1.00  0.00     0.068 A 
HETATM   31  C   UNL     1      37.244 -12.049  -3.672  1.00  0.00     0.037 A 
HETATM   32  C   UNL     1      38.372 -11.225  -3.706  1.00  0.00     0.014 A 
BRANCH  30  33
HETATM   33  O   UNL     1      35.246 -12.868  -4.545  1.00  0.00    -0.356 OA
HETATM   34  C   UNL     1      35.520 -14.232  -4.846  1.00  0.00     0.210 C 
ENDBRANCH  30  33
ENDBRANCH  26  27
ENDBRANCH  23  25
ENDBRANCH  22  23
ENDBRANCH  19  22
ENDBRANCH   1  16
BRANCH   3  35
HETATM   35  O   UNL     1      40.459 -15.902   0.577  1.00  0.00    -0.344 OA
HETATM   36  H   UNL     1      39.645 -16.053   1.092  1.00  0.00     0.219 HD
ENDBRANCH   3  35
BRANCH  11  37
HETATM   37  C   UNL     1      44.310 -18.383   3.889  1.00  0.00     0.273 C 
BRANCH  37  38
HETATM   38  C   UNL     1      44.413 -19.883   3.880  1.00  0.00    -0.033 A 
HETATM   39  C   UNL     1      44.705 -20.596   5.054  1.00  0.00     0.009 A 
HETATM   40  C   UNL     1      44.828 -21.987   5.020  1.00  0.00     0.001 A 
HETATM   41  C   UNL     1      44.656 -22.675   3.821  1.00  0.00     0.000 A 
HETATM   42  C   UNL     1      44.358 -21.980   2.653  1.00  0.00     0.001 A 
HETATM   43  C   UNL     1      44.237 -20.591   2.679  1.00  0.00     0.009 A 
ENDBRANCH  37  38
ENDBRANCH  11  37
TORSDOF 9
ENDMDL
