MODEL 1
REMARK VINA RESULT:      -9.1      0.000      0.000
REMARK  5 active torsions:
REMARK  status: ('A' for Active; 'I' for Inactive)
REMARK    1  A    between atoms: C_9  and  C_10 
REMARK       I    between atoms: C_10  and  N_11 
REMARK    2  A    between atoms: N_11  and  C_12 
REMARK    3  A    between atoms: C_12  and  C_13 
REMARK    4  A    between atoms: C_13  and  N_14 
REMARK       I    between atoms: N_14  and  C_15 
REMARK    5  A    between atoms: C_15  and  C_16 
ROOT
HETATM    1  C   UNL     1      43.295 -15.904   6.303  1.00  0.00     0.272 C 
HETATM    2  N   UNL     1      44.312 -15.013   6.574  1.00  0.00    -0.354 N 
HETATM    3  O   UNL     1      42.107 -15.595   6.342  1.00  0.00    -0.266 OA
HETATM    4  H   UNL     1      45.252 -15.399   6.563  1.00  0.00     0.162 HD
ENDROOT
BRANCH   2   5
HETATM    5  C   UNL     1      44.073 -13.647   6.980  1.00  0.00     0.142 C 
BRANCH   5   6
HETATM    6  C   UNL     1      45.095 -13.150   8.008  1.00  0.00     0.142 C 
BRANCH   6   7
HETATM    7  N   UNL     1      44.472 -12.679   9.231  1.00  0.00    -0.355 N 
HETATM    8  C   UNL     1      44.748 -11.427   9.740  1.00  0.00     0.251 C 
HETATM    9  O   UNL     1      45.516 -10.645   9.190  1.00  0.00    -0.268 OA
HETATM   10  H   UNL     1      43.702 -13.222   9.593  1.00  0.00     0.162 HD
BRANCH   8  11
HETATM   11  C   UNL     1      44.045 -11.027  10.996  1.00  0.00     0.032 A 
HETATM   12  C   UNL     1      43.851  -9.688  11.366  1.00  0.00     0.018 A 
HETATM   13  C   UNL     1      43.174  -9.377  12.552  1.00  0.00     0.025 A 
HETATM   14  C   UNL     1      42.683 -10.398  13.363  1.00  0.00     0.034 A 
HETATM   15 CL   UNL     1      41.846 -10.008  14.815  1.00  0.00    -0.084 Cl
HETATM   16  C   UNL     1      42.857 -11.730  13.000  1.00  0.00     0.025 A 
HETATM   17  C   UNL     1      43.536 -12.044  11.819  1.00  0.00     0.018 A 
ENDBRANCH   8  11
ENDBRANCH   6   7
ENDBRANCH   5   6
ENDBRANCH   2   5
BRANCH   1  18
HETATM   18  C   UNL     1      43.778 -17.257   5.986  1.00  0.00     0.157 A 
HETATM   19  C   UNL     1      43.893 -17.857   4.697  1.00  0.00     0.029 A 
HETATM   20  C   UNL     1      43.632 -17.469   3.367  1.00  0.00     0.023 A 
HETATM   21  C   UNL     1      44.385 -19.134   4.935  1.00  0.00     0.063 A 
HETATM   22  C   UNL     1      43.876 -18.374   2.320  1.00  0.00    -0.061 A 
HETATM   23  C   UNL     1      43.602 -17.982   0.897  1.00  0.00     0.048 C 
HETATM   24  C   UNL     1      44.374 -19.652   2.606  1.00  0.00     0.009 A 
HETATM   25  C   UNL     1      44.639 -20.058   3.918  1.00  0.00     0.032 A 
HETATM   26  N   UNL     1      44.531 -19.218   6.292  1.00  0.00    -0.277 N 
HETATM   27  H   UNL     1      44.870 -20.011   6.825  1.00  0.00     0.189 HD
HETATM   28  N   UNL     1      44.170 -18.109   6.961  1.00  0.00    -0.168 NA
ENDBRANCH   1  18
TORSDOF 5
ENDMDL
MODEL 2
REMARK VINA RESULT:      -9.0      1.342      1.758
REMARK  5 active torsions:
REMARK  status: ('A' for Active; 'I' for Inactive)
REMARK    1  A    between atoms: C_9  and  C_10 
REMARK       I    between atoms: C_10  and  N_11 
REMARK    2  A    between atoms: N_11  and  C_12 
REMARK    3  A    between atoms: C_12  and  C_13 
REMARK    4  A    between atoms: C_13  and  N_14 
REMARK       I    between atoms: N_14  and  C_15 
REMARK    5  A    between atoms: C_15  and  C_16 
ROOT
HETATM    1  C   UNL     1      43.727 -16.122   6.241  1.00  0.00     0.272 C 
HETATM    2  N   UNL     1      44.341 -15.244   7.109  1.00  0.00    -0.354 N 
HETATM    3  O   UNL     1      43.181 -15.763   5.201  1.00  0.00    -0.266 OA
HETATM    4  H   UNL     1      44.710 -15.653   7.963  1.00  0.00     0.162 HD
ENDROOT
BRANCH   2   5
HETATM    5  C   UNL     1      44.352 -13.815   6.903  1.00  0.00     0.142 C 
BRANCH   5   6
HETATM    6  C   UNL     1      45.131 -13.068   7.992  1.00  0.00     0.142 C 
BRANCH   6   7
HETATM    7  N   UNL     1      44.263 -12.500   9.007  1.00  0.00    -0.355 N 
HETATM    8  C   UNL     1      44.564 -11.301   9.618  1.00  0.00     0.251 C 
HETATM    9  O   UNL     1      45.563 -10.647   9.335  1.00  0.00    -0.268 OA
HETATM   10  H   UNL     1      43.351 -12.918   9.118  1.00  0.00     0.162 HD
BRANCH   8  11
HETATM   11  C   UNL     1      43.602 -10.790  10.640  1.00  0.00     0.032 A 
HETATM   12  C   UNL     1      42.210 -10.878  10.486  1.00  0.00     0.018 A 
HETATM   13  C   UNL     1      41.359 -10.391  11.486  1.00  0.00     0.025 A 
HETATM   14  C   UNL     1      41.894  -9.827  12.643  1.00  0.00     0.034 A 
HETATM   15 CL   UNL     1      40.843  -9.237  13.870  1.00  0.00    -0.084 Cl
HETATM   16  C   UNL     1      43.273  -9.747  12.814  1.00  0.00     0.025 A 
HETATM   17  C   UNL     1      44.125 -10.228  11.815  1.00  0.00     0.018 A 
ENDBRANCH   8  11
ENDBRANCH   6   7
ENDBRANCH   5   6
ENDBRANCH   2   5
BRANCH   1  18
HETATM   18  C   UNL     1      43.777 -17.520   6.697  1.00  0.00     0.157 A 
HETATM   19  C   UNL     1      44.044 -18.681   5.911  1.00  0.00     0.029 A 
HETATM   20  C   UNL     1      44.336 -18.947   4.558  1.00  0.00     0.023 A 
HETATM   21  C   UNL     1      43.967 -19.745   6.801  1.00  0.00     0.063 A 
HETATM   22  C   UNL     1      44.541 -20.274   4.142  1.00  0.00    -0.061 A 
HETATM   23  C   UNL     1      44.849 -20.581   2.705  1.00  0.00     0.048 C 
HETATM   24  C   UNL     1      44.454 -21.317   5.073  1.00  0.00     0.009 A 
HETATM   25  C   UNL     1      44.166 -21.075   6.421  1.00  0.00     0.032 A 
HETATM   26  N   UNL     1      43.671 -19.183   8.012  1.00  0.00    -0.277 N 
HETATM   27  H   UNL     1      43.542 -19.664   8.895  1.00  0.00     0.189 HD
HETATM   28  N   UNL     1      43.544 -17.846   7.989  1.00  0.00    -0.168 NA
ENDBRANCH   1  18
TORSDOF 5
ENDMDL
MODEL 3
REMARK VINA RESULT:      -8.9      5.458      8.618
REMARK  5 active torsions:
REMARK  status: ('A' for Active; 'I' for Inactive)
REMARK    1  A    between atoms: C_9  and  C_10 
REMARK       I    between atoms: C_10  and  N_11 
REMARK    2  A    between atoms: N_11  and  C_12 
REMARK    3  A    between atoms: C_12  and  C_13 
REMARK    4  A    between atoms: C_13  and  N_14 
REMARK       I    between atoms: N_14  and  C_15 
REMARK    5  A    between atoms: C_15  and  C_16 
ROOT
HETATM    1  C   UNL     1      42.867 -14.538   5.823  1.00  0.00     0.272 C 
HETATM    2  N   UNL     1      42.626 -15.517   6.763  1.00  0.00    -0.354 N 
HETATM    3  O   UNL     1      43.962 -14.001   5.682  1.00  0.00    -0.266 OA
HETATM    4  H   UNL     1      41.666 -15.847   6.821  1.00  0.00     0.162 HD
ENDROOT
BRANCH   2   5
HETATM    5  C   UNL     1      43.625 -15.965   7.704  1.00  0.00     0.142 C 
BRANCH   5   6
HETATM    6  C   UNL     1      43.493 -17.455   8.040  1.00  0.00     0.142 C 
BRANCH   6   7
HETATM    7  N   UNL     1      43.479 -18.295   6.856  1.00  0.00    -0.355 N 
HETATM    8  C   UNL     1      44.634 -18.557   6.150  1.00  0.00     0.251 C 
HETATM    9  O   UNL     1      45.728 -18.111   6.482  1.00  0.00    -0.268 OA
HETATM   10  H   UNL     1      42.636 -18.820   6.676  1.00  0.00     0.162 HD
BRANCH   8  11
HETATM   11  C   UNL     1      44.520 -19.444   4.953  1.00  0.00     0.032 A 
HETATM   12  C   UNL     1      44.887 -20.798   4.972  1.00  0.00     0.018 A 
HETATM   13  C   UNL     1      44.746 -21.581   3.820  1.00  0.00     0.025 A 
HETATM   14  C   UNL     1      44.231 -21.019   2.653  1.00  0.00     0.034 A 
HETATM   15 CL   UNL     1      44.054 -21.989   1.243  1.00  0.00    -0.084 Cl
HETATM   16  C   UNL     1      43.850 -19.680   2.626  1.00  0.00     0.025 A 
HETATM   17  C   UNL     1      43.993 -18.895   3.773  1.00  0.00     0.018 A 
ENDBRANCH   8  11
ENDBRANCH   6   7
ENDBRANCH   5   6
ENDBRANCH   2   5
BRANCH   1  18
HETATM   18  C   UNL     1      41.678 -14.192   5.027  1.00  0.00     0.157 A 
HETATM   19  C   UNL     1      41.162 -14.885   3.892  1.00  0.00     0.029 A 
HETATM   20  C   UNL     1      41.516 -16.032   3.153  1.00  0.00     0.023 A 
HETATM   21  C   UNL     1      40.043 -14.159   3.503  1.00  0.00     0.063 A 
HETATM   22  C   UNL     1      40.736 -16.413   2.049  1.00  0.00    -0.061 A 
HETATM   23  C   UNL     1      41.097 -17.629   1.245  1.00  0.00     0.048 C 
HETATM   24  C   UNL     1      39.615 -15.652   1.692  1.00  0.00     0.009 A 
HETATM   25  C   UNL     1      39.245 -14.510   2.411  1.00  0.00     0.032 A 
HETATM   26  N   UNL     1      39.960 -13.121   4.390  1.00  0.00    -0.277 N 
HETATM   27  H   UNL     1      39.261 -12.387   4.410  1.00  0.00     0.189 HD
HETATM   28  N   UNL     1      40.930 -13.104   5.320  1.00  0.00    -0.168 NA
ENDBRANCH   1  18
TORSDOF 5
ENDMDL
MODEL 4
REMARK VINA RESULT:      -8.9      1.899      2.585
REMARK  5 active torsions:
REMARK  status: ('A' for Active; 'I' for Inactive)
REMARK    1  A    between atoms: C_9  and  C_10 
REMARK       I    between atoms: C_10  and  N_11 
REMARK    2  A    between atoms: N_11  and  C_12 
REMARK    3  A    between atoms: C_12  and  C_13 
REMARK    4  A    between atoms: C_13  and  N_14 
REMARK       I    between atoms: N_14  and  C_15 
REMARK    5  A    between atoms: C_15  and  C_16 
ROOT
HETATM    1  C   UNL     1      42.663 -16.753   5.592  1.00  0.00     0.272 C 
HETATM    2  N   UNL     1      43.822 -16.084   5.924  1.00  0.00    -0.354 N 
HETATM    3  O   UNL     1      41.674 -16.779   6.319  1.00  0.00    -0.266 OA
HETATM    4  H   UNL     1      44.592 -16.180   5.267  1.00  0.00     0.162 HD
ENDROOT
BRANCH   2   5
HETATM    5  C   UNL     1      43.998 -15.395   7.182  1.00  0.00     0.142 C 
BRANCH   5   6
HETATM    6  C   UNL     1      44.635 -14.010   7.011  1.00  0.00     0.142 C 
BRANCH   6   7
HETATM    7  N   UNL     1      44.025 -13.008   7.865  1.00  0.00    -0.355 N 
HETATM    8  C   UNL     1      44.711 -12.460   8.928  1.00  0.00     0.251 C 
HETATM    9  O   UNL     1      45.864 -12.775   9.205  1.00  0.00    -0.268 OA
HETATM   10  H   UNL     1      43.158 -12.599   7.547  1.00  0.00     0.162 HD
BRANCH   8  11
HETATM   11  C   UNL     1      44.004 -11.424   9.740  1.00  0.00     0.032 A 
HETATM   12  C   UNL     1      42.830 -10.789   9.308  1.00  0.00     0.018 A 
HETATM   13  C   UNL     1      42.207  -9.833  10.120  1.00  0.00     0.025 A 
HETATM   14  C   UNL     1      42.747  -9.518  11.366  1.00  0.00     0.034 A 
HETATM   15 CL   UNL     1      41.972  -8.348  12.361  1.00  0.00    -0.084 Cl
HETATM   16  C   UNL     1      43.903 -10.151  11.812  1.00  0.00     0.025 A 
HETATM   17  C   UNL     1      44.529 -11.103  11.002  1.00  0.00     0.018 A 
ENDBRANCH   8  11
ENDBRANCH   6   7
ENDBRANCH   5   6
ENDBRANCH   2   5
BRANCH   1  18
HETATM   18  C   UNL     1      42.744 -17.445   4.295  1.00  0.00     0.157 A 
HETATM   19  C   UNL     1      43.348 -18.708   4.023  1.00  0.00     0.029 A 
HETATM   20  C   UNL     1      44.027 -19.693   4.768  1.00  0.00     0.023 A 
HETATM   21  C   UNL     1      43.166 -18.909   2.660  1.00  0.00     0.063 A 
HETATM   22  C   UNL     1      44.500 -20.848   4.122  1.00  0.00    -0.061 A 
HETATM   23  C   UNL     1      45.229 -21.908   4.897  1.00  0.00     0.048 C 
HETATM   24  C   UNL     1      44.294 -21.010   2.746  1.00  0.00     0.009 A 
HETATM   25  C   UNL     1      43.623 -20.045   1.987  1.00  0.00     0.032 A 
HETATM   26  N   UNL     1      42.493 -17.803   2.219  1.00  0.00    -0.277 N 
HETATM   27  H   UNL     1      42.190 -17.608   1.272  1.00  0.00     0.189 HD
HETATM   28  N   UNL     1      42.225 -16.896   3.173  1.00  0.00    -0.168 NA
ENDBRANCH   1  18
TORSDOF 5
ENDMDL
MODEL 5
REMARK VINA RESULT:      -8.8      3.941     10.115
REMARK  5 active torsions:
REMARK  status: ('A' for Active; 'I' for Inactive)
REMARK    1  A    between atoms: C_9  and  C_10 
REMARK       I    between atoms: C_10  and  N_11 
REMARK    2  A    between atoms: N_11  and  C_12 
REMARK    3  A    between atoms: C_12  and  C_13 
REMARK    4  A    between atoms: C_13  and  N_14 
REMARK       I    between atoms: N_14  and  C_15 
REMARK    5  A    between atoms: C_15  and  C_16 
ROOT
HETATM    1  C   UNL     1      44.906 -12.757   8.628  1.00  0.00     0.272 C 
HETATM    2  N   UNL     1      44.095 -13.523   7.818  1.00  0.00    -0.354 N 
HETATM    3  O   UNL     1      46.056 -12.450   8.325  1.00  0.00    -0.266 OA
HETATM    4  H   UNL     1      43.182 -13.757   8.201  1.00  0.00     0.162 HD
ENDROOT
BRANCH   2   5
HETATM    5  C   UNL     1      44.540 -14.079   6.562  1.00  0.00     0.142 C 
BRANCH   5   6
HETATM    6  C   UNL     1      43.388 -14.664   5.735  1.00  0.00     0.142 C 
BRANCH   6   7
HETATM    7  N   UNL     1      43.681 -15.994   5.233  1.00  0.00    -0.355 N 
HETATM    8  C   UNL     1      43.165 -16.437   4.034  1.00  0.00     0.251 C 
HETATM    9  O   UNL     1      42.447 -15.739   3.325  1.00  0.00    -0.268 OA
HETATM   10  H   UNL     1      44.413 -16.510   5.700  1.00  0.00     0.162 HD
BRANCH   8  11
HETATM   11  C   UNL     1      43.535 -17.817   3.596  1.00  0.00     0.032 A 
HETATM   12  C   UNL     1      44.202 -18.726   4.429  1.00  0.00     0.018 A 
HETATM   13  C   UNL     1      44.512 -20.010   3.963  1.00  0.00     0.025 A 
HETATM   14  C   UNL     1      44.148 -20.391   2.673  1.00  0.00     0.034 A 
HETATM   15 CL   UNL     1      44.526 -21.972   2.110  1.00  0.00    -0.084 Cl
HETATM   16  C   UNL     1      43.472 -19.502   1.842  1.00  0.00     0.025 A 
HETATM   17  C   UNL     1      43.166 -18.219   2.302  1.00  0.00     0.018 A 
ENDBRANCH   8  11
ENDBRANCH   6   7
ENDBRANCH   5   6
ENDBRANCH   2   5
BRANCH   1  18
HETATM   18  C   UNL     1      44.262 -12.367   9.893  1.00  0.00     0.157 A 
HETATM   19  C   UNL     1      43.292 -11.340  10.091  1.00  0.00     0.029 A 
HETATM   20  C   UNL     1      42.629 -10.396   9.281  1.00  0.00     0.023 A 
HETATM   21  C   UNL     1      43.012 -11.366  11.452  1.00  0.00     0.063 A 
HETATM   22  C   UNL     1      41.706  -9.510   9.862  1.00  0.00    -0.061 A 
HETATM   23  C   UNL     1      40.992  -8.494   9.017  1.00  0.00     0.048 C 
HETATM   24  C   UNL     1      41.453  -9.572  11.238  1.00  0.00     0.009 A 
HETATM   25  C   UNL     1      42.100 -10.500  12.062  1.00  0.00     0.032 A 
HETATM   26  N   UNL     1      43.796 -12.363  11.963  1.00  0.00    -0.277 N 
HETATM   27  H   UNL     1      43.851 -12.665  12.929  1.00  0.00     0.189 HD
HETATM   28  N   UNL     1      44.567 -12.986  11.056  1.00  0.00    -0.168 NA
ENDBRANCH   1  18
TORSDOF 5
ENDMDL
MODEL 6
REMARK VINA RESULT:      -8.8      4.847      6.487
REMARK  5 active torsions:
REMARK  status: ('A' for Active; 'I' for Inactive)
REMARK    1  A    between atoms: C_9  and  C_10 
REMARK       I    between atoms: C_10  and  N_11 
REMARK    2  A    between atoms: N_11  and  C_12 
REMARK    3  A    between atoms: C_12  and  C_13 
REMARK    4  A    between atoms: C_13  and  N_14 
REMARK       I    between atoms: N_14  and  C_15 
REMARK    5  A    between atoms: C_15  and  C_16 
ROOT
HETATM    1  C   UNL     1      43.442 -17.211   6.751  1.00  0.00     0.272 C 
HETATM    2  N   UNL     1      44.378 -16.208   6.617  1.00  0.00    -0.354 N 
HETATM    3  O   UNL     1      42.411 -17.080   7.406  1.00  0.00    -0.266 OA
HETATM    4  H   UNL     1      45.216 -16.453   6.095  1.00  0.00     0.162 HD
ENDROOT
BRANCH   2   5
HETATM    5  C   UNL     1      44.260 -14.929   7.277  1.00  0.00     0.142 C 
BRANCH   5   6
HETATM    6  C   UNL     1      44.070 -13.771   6.290  1.00  0.00     0.142 C 
BRANCH   6   7
HETATM    7  N   UNL     1      42.884 -13.927   5.468  1.00  0.00    -0.355 N 
HETATM    8  C   UNL     1      42.945 -13.819   4.095  1.00  0.00     0.251 C 
HETATM    9  O   UNL     1      43.992 -13.599   3.495  1.00  0.00    -0.268 OA
HETATM   10  H   UNL     1      42.058 -14.293   5.919  1.00  0.00     0.162 HD
BRANCH   8  11
HETATM   11  C   UNL     1      41.673 -14.010   3.335  1.00  0.00     0.032 A 
HETATM   12  C   UNL     1      41.129 -15.275   3.067  1.00  0.00     0.018 A 
HETATM   13  C   UNL     1      39.927 -15.389   2.358  1.00  0.00     0.025 A 
HETATM   14  C   UNL     1      39.261 -14.243   1.926  1.00  0.00     0.034 A 
HETATM   15 CL   UNL     1      37.781 -14.390   1.062  1.00  0.00    -0.084 Cl
HETATM   16  C   UNL     1      39.783 -12.982   2.198  1.00  0.00     0.025 A 
HETATM   17  C   UNL     1      40.985 -12.866   2.901  1.00  0.00     0.018 A 
ENDBRANCH   8  11
ENDBRANCH   6   7
ENDBRANCH   5   6
ENDBRANCH   2   5
BRANCH   1  18
HETATM   18  C   UNL     1      43.814 -18.451   6.051  1.00  0.00     0.157 A 
HETATM   19  C   UNL     1      43.899 -18.658   4.642  1.00  0.00     0.029 A 
HETATM   20  C   UNL     1      43.695 -17.880   3.485  1.00  0.00     0.023 A 
HETATM   21  C   UNL     1      44.277 -19.987   4.495  1.00  0.00     0.063 A 
HETATM   22  C   UNL     1      43.879 -18.460   2.218  1.00  0.00    -0.061 A 
HETATM   23  C   UNL     1      43.663 -17.650   0.972  1.00  0.00     0.048 C 
HETATM   24  C   UNL     1      44.262 -19.803   2.116  1.00  0.00     0.009 A 
HETATM   25  C   UNL     1      44.470 -20.595   3.251  1.00  0.00     0.032 A 
HETATM   26  N   UNL     1      44.392 -20.473   5.768  1.00  0.00    -0.277 N 
HETATM   27  H   UNL     1      44.654 -21.412   6.044  1.00  0.00     0.189 HD
HETATM   28  N   UNL     1      44.115 -19.579   6.733  1.00  0.00    -0.168 NA
ENDBRANCH   1  18
TORSDOF 5
ENDMDL
MODEL 7
REMARK VINA RESULT:      -8.5      3.972     10.457
REMARK  5 active torsions:
REMARK  status: ('A' for Active; 'I' for Inactive)
REMARK    1  A    between atoms: C_9  and  C_10 
REMARK       I    between atoms: C_10  and  N_11 
REMARK    2  A    between atoms: N_11  and  C_12 
REMARK    3  A    between atoms: C_12  and  C_13 
REMARK    4  A    between atoms: C_13  and  N_14 
REMARK       I    between atoms: N_14  and  C_15 
REMARK    5  A    between atoms: C_15  and  C_16 
ROOT
HETATM    1  C   UNL     1      44.206 -12.473   8.590  1.00  0.00     0.272 C 
HETATM    2  N   UNL     1      43.976 -13.215   7.452  1.00  0.00    -0.354 N 
HETATM    3  O   UNL     1      45.091 -12.744   9.399  1.00  0.00    -0.266 OA
HETATM    4  H   UNL     1      43.181 -12.924   6.888  1.00  0.00     0.162 HD
ENDROOT
BRANCH   2   5
HETATM    5  C   UNL     1      44.719 -14.411   7.130  1.00  0.00     0.142 C 
BRANCH   5   6
HETATM    6  C   UNL     1      43.905 -15.691   7.359  1.00  0.00     0.142 C 
BRANCH   6   7
HETATM    7  N   UNL     1      44.090 -16.666   6.301  1.00  0.00    -0.355 N 
HETATM    8  C   UNL     1      43.854 -18.008   6.514  1.00  0.00     0.251 C 
HETATM    9  O   UNL     1      43.469 -18.448   7.592  1.00  0.00    -0.268 OA
HETATM   10  H   UNL     1      44.221 -16.310   5.365  1.00  0.00     0.162 HD
BRANCH   8  11
HETATM   11  C   UNL     1      44.059 -18.933   5.358  1.00  0.00     0.032 A 
HETATM   12  C   UNL     1      44.655 -20.195   5.491  1.00  0.00     0.018 A 
HETATM   13  C   UNL     1      44.809 -21.022   4.371  1.00  0.00     0.025 A 
HETATM   14  C   UNL     1      44.360 -20.595   3.122  1.00  0.00     0.034 A 
HETATM   15 CL   UNL     1      44.547 -21.619   1.752  1.00  0.00    -0.084 Cl
HETATM   16  C   UNL     1      43.754 -19.350   2.980  1.00  0.00     0.025 A 
HETATM   17  C   UNL     1      43.603 -18.521   4.096  1.00  0.00     0.018 A 
ENDBRANCH   8  11
ENDBRANCH   6   7
ENDBRANCH   5   6
ENDBRANCH   2   5
BRANCH   1  18
HETATM   18  C   UNL     1      43.276 -11.343   8.745  1.00  0.00     0.157 A 
HETATM   19  C   UNL     1      43.031 -10.577   9.924  1.00  0.00     0.029 A 
HETATM   20  C   UNL     1      43.506 -10.572  11.250  1.00  0.00     0.023 A 
HETATM   21  C   UNL     1      42.070  -9.644   9.554  1.00  0.00     0.063 A 
HETATM   22  C   UNL     1      43.003  -9.629  12.163  1.00  0.00    -0.061 A 
HETATM   23  C   UNL     1      43.492  -9.608  13.583  1.00  0.00     0.048 C 
HETATM   24  C   UNL     1      42.035  -8.705  11.748  1.00  0.00     0.009 A 
HETATM   25  C   UNL     1      41.549  -8.693  10.436  1.00  0.00     0.032 A 
HETATM   26  N   UNL     1      41.810  -9.896   8.236  1.00  0.00    -0.277 N 
HETATM   27  H   UNL     1      41.158  -9.405   7.635  1.00  0.00     0.189 HD
HETATM   28  N   UNL     1      42.512 -10.915   7.714  1.00  0.00    -0.168 NA
ENDBRANCH   1  18
TORSDOF 5
ENDMDL
MODEL 8
REMARK VINA RESULT:      -8.5      5.928      9.190
REMARK  5 active torsions:
REMARK  status: ('A' for Active; 'I' for Inactive)
REMARK    1  A    between atoms: C_9  and  C_10 
REMARK       I    between atoms: C_10  and  N_11 
REMARK    2  A    between atoms: N_11  and  C_12 
REMARK    3  A    between atoms: C_12  and  C_13 
REMARK    4  A    between atoms: C_13  and  N_14 
REMARK       I    between atoms: N_14  and  C_15 
REMARK    5  A    between atoms: C_15  and  C_16 
ROOT
HETATM    1  C   UNL     1      41.225 -16.230   3.506  1.00  0.00     0.272 C 
HETATM    2  N   UNL     1      41.606 -15.312   2.551  1.00  0.00    -0.354 N 
HETATM    3  O   UNL     1      40.459 -17.162   3.270  1.00  0.00    -0.266 OA
HETATM    4  H   UNL     1      42.200 -14.555   2.879  1.00  0.00     0.162 HD
ENDROOT
BRANCH   2   5
HETATM    5  C   UNL     1      41.099 -15.328   1.199  1.00  0.00     0.142 C 
BRANCH   5   6
HETATM    6  C   UNL     1      41.982 -16.145   0.248  1.00  0.00     0.142 C 
BRANCH   6   7
HETATM    7  N   UNL     1      42.334 -17.444   0.791  1.00  0.00    -0.355 N 
HETATM    8  C   UNL     1      43.514 -17.637   1.478  1.00  0.00     0.251 C 
HETATM    9  O   UNL     1      44.319 -16.732   1.678  1.00  0.00    -0.268 OA
HETATM   10  H   UNL     1      41.610 -18.148   0.805  1.00  0.00     0.162 HD
BRANCH   8  11
HETATM   11  C   UNL     1      43.781 -19.006   2.013  1.00  0.00     0.032 A 
HETATM   12  C   UNL     1      43.066 -20.138   1.596  1.00  0.00     0.018 A 
HETATM   13  C   UNL     1      43.371 -21.398   2.127  1.00  0.00     0.025 A 
HETATM   14  C   UNL     1      44.395 -21.531   3.063  1.00  0.00     0.034 A 
HETATM   15 CL   UNL     1      44.768 -23.083   3.705  1.00  0.00    -0.084 Cl
HETATM   16  C   UNL     1      45.121 -20.417   3.474  1.00  0.00     0.025 A 
HETATM   17  C   UNL     1      44.816 -19.158   2.949  1.00  0.00     0.018 A 
ENDBRANCH   8  11
ENDBRANCH   6   7
ENDBRANCH   5   6
ENDBRANCH   2   5
BRANCH   1  18
HETATM   18  C   UNL     1      41.809 -15.968   4.831  1.00  0.00     0.157 A 
HETATM   19  C   UNL     1      42.449 -16.904   5.697  1.00  0.00     0.029 A 
HETATM   20  C   UNL     1      42.753 -18.279   5.661  1.00  0.00     0.023 A 
HETATM   21  C   UNL     1      42.814 -16.168   6.817  1.00  0.00     0.063 A 
HETATM   22  C   UNL     1      43.414 -18.872   6.750  1.00  0.00    -0.061 A 
HETATM   23  C   UNL     1      43.744 -20.337   6.735  1.00  0.00     0.048 C 
HETATM   24  C   UNL     1      43.765 -18.092   7.860  1.00  0.00     0.009 A 
HETATM   25  C   UNL     1      43.472 -16.724   7.917  1.00  0.00     0.032 A 
HETATM   26  N   UNL     1      42.390 -14.892   6.565  1.00  0.00    -0.277 N 
HETATM   27  H   UNL     1      42.490 -14.083   7.168  1.00  0.00     0.189 HD
HETATM   28  N   UNL     1      41.776 -14.733   5.381  1.00  0.00    -0.168 NA
ENDBRANCH   1  18
TORSDOF 5
ENDMDL
MODEL 9
REMARK VINA RESULT:      -8.4      6.161      9.323
REMARK  5 active torsions:
REMARK  status: ('A' for Active; 'I' for Inactive)
REMARK    1  A    between atoms: C_9  and  C_10 
REMARK       I    between atoms: C_10  and  N_11 
REMARK    2  A    between atoms: N_11  and  C_12 
REMARK    3  A    between atoms: C_12  and  C_13 
REMARK    4  A    between atoms: C_13  and  N_14 
REMARK       I    between atoms: N_14  and  C_15 
REMARK    5  A    between atoms: C_15  and  C_16 
ROOT
HETATM    1  C   UNL     1      42.075 -13.889   1.840  1.00  0.00     0.272 C 
HETATM    2  N   UNL     1      41.666 -14.494   3.009  1.00  0.00    -0.354 N 
HETATM    3  O   UNL     1      42.744 -12.859   1.818  1.00  0.00    -0.266 OA
HETATM    4  H   UNL     1      41.071 -15.312   2.898  1.00  0.00     0.162 HD
ENDROOT
BRANCH   2   5
HETATM    5  C   UNL     1      41.942 -13.946   4.316  1.00  0.00     0.142 C 
BRANCH   5   6
HETATM    6  C   UNL     1      42.892 -14.826   5.137  1.00  0.00     0.142 C 
BRANCH   6   7
HETATM    7  N   UNL     1      43.275 -16.038   4.436  1.00  0.00    -0.355 N 
HETATM    8  C   UNL     1      42.862 -17.278   4.873  1.00  0.00     0.251 C 
HETATM    9  O   UNL     1      42.148 -17.428   5.860  1.00  0.00    -0.268 OA
HETATM   10  H   UNL     1      43.698 -15.928   3.526  1.00  0.00     0.162 HD
BRANCH   8  11
HETATM   11  C   UNL     1      43.296 -18.466   4.077  1.00  0.00     0.032 A 
HETATM   12  C   UNL     1      42.888 -18.684   2.753  1.00  0.00     0.018 A 
HETATM   13  C   UNL     1      43.339 -19.812   2.055  1.00  0.00     0.025 A 
HETATM   14  C   UNL     1      44.203 -20.715   2.671  1.00  0.00     0.034 A 
HETATM   15 CL   UNL     1      44.758 -22.094   1.805  1.00  0.00    -0.084 Cl
HETATM   16  C   UNL     1      44.627 -20.501   3.980  1.00  0.00     0.025 A 
HETATM   17  C   UNL     1      44.175 -19.379   4.680  1.00  0.00     0.018 A 
ENDBRANCH   8  11
ENDBRANCH   6   7
ENDBRANCH   5   6
ENDBRANCH   2   5
BRANCH   1  18
HETATM   18  C   UNL     1      41.611 -14.588   0.630  1.00  0.00     0.157 A 
HETATM   19  C   UNL     1      41.640 -14.109  -0.713  1.00  0.00     0.029 A 
HETATM   20  C   UNL     1      42.065 -12.934  -1.365  1.00  0.00     0.023 A 
HETATM   21  C   UNL     1      41.086 -15.132  -1.473  1.00  0.00     0.063 A 
HETATM   22  C   UNL     1      41.920 -12.823  -2.758  1.00  0.00    -0.061 A 
HETATM   23  C   UNL     1      42.362 -11.578  -3.472  1.00  0.00     0.048 C 
HETATM   24  C   UNL     1      41.357 -13.879  -3.486  1.00  0.00     0.009 A 
HETATM   25  C   UNL     1      40.928 -15.055  -2.859  1.00  0.00     0.032 A 
HETATM   26  N   UNL     1      40.773 -16.118  -0.579  1.00  0.00    -0.277 N 
HETATM   27  H   UNL     1      40.351 -17.017  -0.781  1.00  0.00     0.189 HD
HETATM   28  N   UNL     1      41.069 -15.826   0.699  1.00  0.00    -0.168 NA
ENDBRANCH   1  18
TORSDOF 5
ENDMDL
MODEL 10
REMARK VINA RESULT:      -8.4      7.182      9.480
REMARK  5 active torsions:
REMARK  status: ('A' for Active; 'I' for Inactive)
REMARK    1  A    between atoms: C_9  and  C_10 
REMARK       I    between atoms: C_10  and  N_11 
REMARK    2  A    between atoms: N_11  and  C_12 
REMARK    3  A    between atoms: C_12  and  C_13 
REMARK    4  A    between atoms: C_13  and  N_14 
REMARK       I    between atoms: N_14  and  C_15 
REMARK    5  A    between atoms: C_15  and  C_16 
ROOT
HETATM    1  C   UNL     1      42.906 -16.833   3.936  1.00  0.00     0.272 C 
HETATM    2  N   UNL     1      41.530 -16.912   3.938  1.00  0.00    -0.354 N 
HETATM    3  O   UNL     1      43.523 -15.916   3.398  1.00  0.00    -0.266 OA
HETATM    4  H   UNL     1      41.137 -17.746   4.368  1.00  0.00     0.162 HD
ENDROOT
BRANCH   2   5
HETATM    5  C   UNL     1      40.687 -15.953   3.265  1.00  0.00     0.142 C 
BRANCH   5   6
HETATM    6  C   UNL     1      40.063 -16.514   1.981  1.00  0.00     0.142 C 
BRANCH   6   7
HETATM    7  N   UNL     1      40.232 -15.627   0.845  1.00  0.00    -0.355 N 
HETATM    8  C   UNL     1      41.369 -15.670   0.067  1.00  0.00     0.251 C 
HETATM    9  O   UNL     1      42.287 -16.456   0.279  1.00  0.00    -0.268 OA
HETATM   10  H   UNL     1      39.419 -15.111   0.540  1.00  0.00     0.162 HD
BRANCH   8  11
HETATM   11  C   UNL     1      41.444 -14.727  -1.090  1.00  0.00     0.032 A 
HETATM   12  C   UNL     1      41.015 -15.070  -2.380  1.00  0.00     0.018 A 
HETATM   13  C   UNL     1      41.101 -14.138  -3.422  1.00  0.00     0.025 A 
HETATM   14  C   UNL     1      41.604 -12.862  -3.176  1.00  0.00     0.034 A 
HETATM   15 CL   UNL     1      41.700 -11.719  -4.459  1.00  0.00    -0.084 Cl
HETATM   16  C   UNL     1      42.020 -12.504  -1.896  1.00  0.00     0.025 A 
HETATM   17  C   UNL     1      41.940 -13.434  -0.856  1.00  0.00     0.018 A 
ENDBRANCH   8  11
ENDBRANCH   6   7
ENDBRANCH   5   6
ENDBRANCH   2   5
BRANCH   1  18
HETATM   18  C   UNL     1      43.555 -17.964   4.620  1.00  0.00     0.157 A 
HETATM   19  C   UNL     1      43.875 -19.241   4.071  1.00  0.00     0.029 A 
HETATM   20  C   UNL     1      43.731 -19.876   2.821  1.00  0.00     0.023 A 
HETATM   21  C   UNL     1      44.461 -19.946   5.115  1.00  0.00     0.063 A 
HETATM   22  C   UNL     1      44.181 -21.197   2.658  1.00  0.00    -0.061 A 
HETATM   23  C   UNL     1      44.034 -21.894   1.336  1.00  0.00     0.048 C 
HETATM   24  C   UNL     1      44.768 -21.870   3.738  1.00  0.00     0.009 A 
HETATM   25  C   UNL     1      44.920 -21.259   4.988  1.00  0.00     0.032 A 
HETATM   26  N   UNL     1      44.458 -19.086   6.178  1.00  0.00    -0.277 N 
HETATM   27  H   UNL     1      44.812 -19.264   7.111  1.00  0.00     0.189 HD
HETATM   28  N   UNL     1      43.915 -17.884   5.921  1.00  0.00    -0.168 NA
ENDBRANCH   1  18
TORSDOF 5
ENDMDL
