MODEL 1
REMARK VINA RESULT:      -8.4      0.000      0.000
REMARK  9 active torsions:
REMARK  status: ('A' for Active; 'I' for Inactive)
REMARK    1  A    between atoms: O_2  and  C_3 
REMARK    2  A    between atoms: C_6  and  C_7 
REMARK    3  A    between atoms: C_13  and  C_14 
REMARK       I    between atoms: C_14  and  N_15 
REMARK    4  A    between atoms: N_15  and  N_16 
REMARK    5  A    between atoms: N_16  and  C_17 
REMARK    6  A    between atoms: C_17  and  N_18 
REMARK    7  A    between atoms: N_18  and  C_19 
REMARK    8  A    between atoms: C_19  and  C_20 
REMARK    9  A    between atoms: C_27  and  C_28 
ROOT
HETATM    1  C   UNL     1      42.848 -17.653   2.155  1.00  0.00     0.118 C 
HETATM    2  N   UNL     1      42.709 -17.705   3.609  1.00  0.00    -0.365 N 
HETATM    3  C   UNL     1      43.582 -18.498   4.287  1.00  0.00     0.138 A 
HETATM    4  N   UNL     1      44.173 -19.566   3.648  1.00  0.00    -0.240 N 
HETATM    5  N   UNL     1      45.129 -20.162   4.377  1.00  0.00    -0.181 NA
HETATM    6  C   UNL     1      45.033 -19.553   5.560  1.00  0.00     0.160 A 
HETATM    7  C   UNL     1      44.088 -18.493   5.573  1.00  0.00     0.098 A 
HETATM    8  C   UNL     1      43.968 -19.916   2.252  1.00  0.00     0.221 C 
HETATM    9  C   UNL     1      42.820 -19.096   1.631  1.00  0.00     0.066 C 
HETATM   10  H   UNL     1      42.399 -16.833   4.046  1.00  0.00     0.161 HD
ENDROOT
BRANCH   7  11
HETATM   11  C   UNL     1      43.743 -17.615   6.677  1.00  0.00     0.275 C 
HETATM   12  N   UNL     1      44.139 -16.300   6.489  1.00  0.00    -0.263 N 
HETATM   13  H   UNL     1      44.321 -15.936   5.557  1.00  0.00     0.190 HD
HETATM   14  O   UNL     1      43.169 -17.993   7.695  1.00  0.00    -0.266 OA
BRANCH  12  15
HETATM   15  N   UNL     1      43.878 -15.343   7.482  1.00  0.00    -0.274 N 
HETATM   16  H   UNL     1      43.057 -15.550   8.053  1.00  0.00     0.189 HD
BRANCH  15  17
HETATM   17  C   UNL     1      44.122 -14.010   7.246  1.00  0.00     0.186 C 
HETATM   18  S   UNL     1      45.601 -13.249   7.408  1.00  0.00    -0.040 SA
BRANCH  17  19
HETATM   19  N   UNL     1      43.030 -13.260   6.916  1.00  0.00    -0.360 N 
HETATM   20  H   UNL     1      42.807 -12.530   7.581  1.00  0.00     0.162 HD
BRANCH  19  21
HETATM   21  C   UNL     1      41.932 -13.696   6.068  1.00  0.00     0.187 C 
BRANCH  21  22
HETATM   22  C   UNL     1      42.325 -13.652   4.643  1.00  0.00     0.070 A 
HETATM   23  O   UNL     1      43.343 -14.477   4.261  1.00  0.00    -0.325 OA
HETATM   24  C   UNL     1      43.563 -14.250   2.941  1.00  0.00     0.142 A 
HETATM   25  C   UNL     1      42.705 -13.286   2.468  1.00  0.00     0.027 A 
HETATM   26  C   UNL     1      41.905 -12.896   3.568  1.00  0.00     0.036 A 
ENDBRANCH  21  22
ENDBRANCH  19  21
ENDBRANCH  17  19
ENDBRANCH  15  17
ENDBRANCH  12  15
ENDBRANCH   7  11
BRANCH   1  27
HETATM   27  C   UNL     1      41.790 -16.767   1.529  1.00  0.00    -0.035 A 
HETATM   28  C   UNL     1      40.653 -16.421   2.276  1.00  0.00     0.012 A 
HETATM   29  C   UNL     1      39.704 -15.532   1.765  1.00  0.00     0.037 A 
HETATM   30  C   UNL     1      39.872 -14.966   0.503  1.00  0.00     0.068 A 
HETATM   31  C   UNL     1      40.963 -15.348  -0.276  1.00  0.00     0.037 A 
HETATM   32  C   UNL     1      41.910 -16.249   0.230  1.00  0.00     0.012 A 
BRANCH  30  33
HETATM   33  O   UNL     1      38.903 -14.078   0.129  1.00  0.00    -0.356 OA
HETATM   34  C   UNL     1      38.996 -13.585  -1.203  1.00  0.00     0.210 C 
ENDBRANCH  30  33
ENDBRANCH   1  27
BRANCH   8  35
HETATM   35  C   UNL     1      43.679 -21.393   2.096  1.00  0.00     0.409 C 
HETATM   36  F   UNL     1      42.400 -21.634   1.727  1.00  0.00    -0.169 F 
HETATM   37  F   UNL     1      44.467 -21.911   1.115  1.00  0.00    -0.169 F 
HETATM   38  F   UNL     1      43.939 -22.115   3.205  1.00  0.00    -0.169 F 
ENDBRANCH   8  35
TORSDOF 9
ENDMDL
MODEL 2
REMARK VINA RESULT:      -8.3      2.025      3.223
REMARK  9 active torsions:
REMARK  status: ('A' for Active; 'I' for Inactive)
REMARK    1  A    between atoms: O_2  and  C_3 
REMARK    2  A    between atoms: C_6  and  C_7 
REMARK    3  A    between atoms: C_13  and  C_14 
REMARK       I    between atoms: C_14  and  N_15 
REMARK    4  A    between atoms: N_15  and  N_16 
REMARK    5  A    between atoms: N_16  and  C_17 
REMARK    6  A    between atoms: C_17  and  N_18 
REMARK    7  A    between atoms: N_18  and  C_19 
REMARK    8  A    between atoms: C_19  and  C_20 
REMARK    9  A    between atoms: C_27  and  C_28 
ROOT
HETATM    1  C   UNL     1      42.827 -17.661   1.995  1.00  0.00     0.118 C 
HETATM    2  N   UNL     1      42.742 -17.686   3.455  1.00  0.00    -0.365 N 
HETATM    3  C   UNL     1      43.622 -18.488   4.112  1.00  0.00     0.138 A 
HETATM    4  N   UNL     1      44.166 -19.579   3.469  1.00  0.00    -0.240 N 
HETATM    5  N   UNL     1      45.136 -20.185   4.171  1.00  0.00    -0.181 NA
HETATM    6  C   UNL     1      45.098 -19.555   5.347  1.00  0.00     0.160 A 
HETATM    7  C   UNL     1      44.178 -18.474   5.378  1.00  0.00     0.098 A 
HETATM    8  C   UNL     1      43.900 -19.946   2.088  1.00  0.00     0.221 C 
HETATM    9  C   UNL     1      42.748 -19.111   1.497  1.00  0.00     0.066 C 
HETATM   10  H   UNL     1      42.468 -16.801   3.889  1.00  0.00     0.161 HD
ENDROOT
BRANCH   7  11
HETATM   11  C   UNL     1      43.893 -17.572   6.479  1.00  0.00     0.275 C 
HETATM   12  N   UNL     1      44.149 -16.240   6.189  1.00  0.00    -0.263 N 
HETATM   13  H   UNL     1      44.183 -15.911   5.228  1.00  0.00     0.190 HD
HETATM   14  O   UNL     1      43.482 -17.942   7.576  1.00  0.00    -0.266 OA
BRANCH  12  15
HETATM   15  N   UNL     1      43.927 -15.257   7.168  1.00  0.00    -0.274 N 
HETATM   16  H   UNL     1      43.617 -15.629   8.067  1.00  0.00     0.189 HD
BRANCH  15  17
HETATM   17  C   UNL     1      43.415 -14.030   6.818  1.00  0.00     0.186 C 
HETATM   18  S   UNL     1      42.323 -13.748   5.584  1.00  0.00    -0.040 SA
BRANCH  17  19
HETATM   19  N   UNL     1      43.909 -12.965   7.514  1.00  0.00    -0.360 N 
HETATM   20  H   UNL     1      43.708 -12.064   7.098  1.00  0.00     0.162 HD
BRANCH  19  21
HETATM   21  C   UNL     1      45.050 -13.001   8.416  1.00  0.00     0.187 C 
BRANCH  21  22
HETATM   22  C   UNL     1      44.760 -12.243   9.652  1.00  0.00     0.070 A 
HETATM   23  O   UNL     1      44.270 -12.954  10.708  1.00  0.00    -0.325 OA
HETATM   24  C   UNL     1      44.042 -12.068  11.711  1.00  0.00     0.142 A 
HETATM   25  C   UNL     1      44.372 -10.795  11.314  1.00  0.00     0.027 A 
HETATM   26  C   UNL     1      44.834 -10.904   9.981  1.00  0.00     0.036 A 
ENDBRANCH  21  22
ENDBRANCH  19  21
ENDBRANCH  17  19
ENDBRANCH  15  17
ENDBRANCH  12  15
ENDBRANCH   7  11
BRANCH   1  27
HETATM   27  C   UNL     1      41.765 -16.761   1.395  1.00  0.00    -0.035 A 
HETATM   28  C   UNL     1      40.639 -16.420   2.162  1.00  0.00     0.012 A 
HETATM   29  C   UNL     1      39.688 -15.520   1.675  1.00  0.00     0.037 A 
HETATM   30  C   UNL     1      39.843 -14.936   0.419  1.00  0.00     0.068 A 
HETATM   31  C   UNL     1      40.922 -15.313  -0.379  1.00  0.00     0.037 A 
HETATM   32  C   UNL     1      41.871 -16.226   0.103  1.00  0.00     0.012 A 
BRANCH  30  33
HETATM   33  O   UNL     1      38.873 -14.039   0.070  1.00  0.00    -0.356 OA
HETATM   34  C   UNL     1      37.661 -14.118   0.812  1.00  0.00     0.210 C 
ENDBRANCH  30  33
ENDBRANCH   1  27
BRANCH   8  35
HETATM   35  C   UNL     1      43.573 -21.419   1.967  1.00  0.00     0.409 C 
HETATM   36  F   UNL     1      43.698 -22.075   3.143  1.00  0.00    -0.169 F 
HETATM   37  F   UNL     1      42.277 -21.567   1.578  1.00  0.00    -0.169 F 
HETATM   38  F   UNL     1      44.316 -22.063   1.045  1.00  0.00    -0.169 F 
ENDBRANCH   8  35
TORSDOF 9
ENDMDL
MODEL 3
REMARK VINA RESULT:      -8.2      3.738      6.483
REMARK  9 active torsions:
REMARK  status: ('A' for Active; 'I' for Inactive)
REMARK    1  A    between atoms: O_2  and  C_3 
REMARK    2  A    between atoms: C_6  and  C_7 
REMARK    3  A    between atoms: C_13  and  C_14 
REMARK       I    between atoms: C_14  and  N_15 
REMARK    4  A    between atoms: N_15  and  N_16 
REMARK    5  A    between atoms: N_16  and  C_17 
REMARK    6  A    between atoms: C_17  and  N_18 
REMARK    7  A    between atoms: N_18  and  C_19 
REMARK    8  A    between atoms: C_19  and  C_20 
REMARK    9  A    between atoms: C_27  and  C_28 
ROOT
HETATM    1  C   UNL     1      42.045 -17.201   2.764  1.00  0.00     0.118 C 
HETATM    2  N   UNL     1      42.477 -15.952   3.391  1.00  0.00    -0.365 N 
HETATM    3  C   UNL     1      41.714 -14.849   3.163  1.00  0.00     0.138 A 
HETATM    4  N   UNL     1      40.938 -14.776   2.027  1.00  0.00    -0.240 N 
HETATM    5  N   UNL     1      40.117 -13.716   2.007  1.00  0.00    -0.181 NA
HETATM    6  C   UNL     1      40.493 -13.021   3.082  1.00  0.00     0.160 A 
HETATM    7  C   UNL     1      41.485 -13.677   3.859  1.00  0.00     0.098 A 
HETATM    8  C   UNL     1      40.829 -15.826   1.027  1.00  0.00     0.221 C 
HETATM    9  C   UNL     1      41.873 -16.935   1.262  1.00  0.00     0.066 C 
HETATM   10  H   UNL     1      42.924 -16.058   4.305  1.00  0.00     0.161 HD
ENDROOT
BRANCH   7  11
HETATM   11  C   UNL     1      42.105 -13.221   5.090  1.00  0.00     0.275 C 
HETATM   12  N   UNL     1      41.328 -12.324   5.806  1.00  0.00    -0.263 N 
HETATM   13  H   UNL     1      40.322 -12.276   5.668  1.00  0.00     0.190 HD
HETATM   14  O   UNL     1      43.220 -13.576   5.464  1.00  0.00    -0.266 OA
BRANCH  12  15
HETATM   15  N   UNL     1      41.809 -11.792   7.014  1.00  0.00    -0.274 N 
HETATM   16  H   UNL     1      42.447 -12.412   7.516  1.00  0.00     0.189 HD
BRANCH  15  17
HETATM   17  C   UNL     1      41.000 -11.004   7.798  1.00  0.00     0.186 C 
HETATM   18  S   UNL     1      39.794  -9.990   7.240  1.00  0.00    -0.040 SA
BRANCH  17  19
HETATM   19  N   UNL     1      41.274 -11.025   9.135  1.00  0.00    -0.360 N 
HETATM   20  H   UNL     1      40.573 -11.491   9.699  1.00  0.00     0.162 HD
BRANCH  19  21
HETATM   21  C   UNL     1      42.114 -10.070   9.840  1.00  0.00     0.187 C 
BRANCH  21  22
HETATM   22  C   UNL     1      43.479 -10.611  10.021  1.00  0.00     0.070 A 
HETATM   23  O   UNL     1      44.108 -11.076   8.902  1.00  0.00    -0.325 OA
HETATM   24  C   UNL     1      45.315 -11.555   9.297  1.00  0.00     0.142 A 
HETATM   25  C   UNL     1      45.471 -11.411  10.655  1.00  0.00     0.027 A 
HETATM   26  C   UNL     1      44.283 -10.804  11.126  1.00  0.00     0.036 A 
ENDBRANCH  21  22
ENDBRANCH  19  21
ENDBRANCH  17  19
ENDBRANCH  15  17
ENDBRANCH  12  15
ENDBRANCH   7  11
BRANCH   1  27
HETATM   27  C   UNL     1      43.005 -18.333   3.068  1.00  0.00    -0.035 A 
HETATM   28  C   UNL     1      43.588 -18.417   4.342  1.00  0.00     0.012 A 
HETATM   29  C   UNL     1      44.403 -19.498   4.686  1.00  0.00     0.037 A 
HETATM   30  C   UNL     1      44.649 -20.519   3.770  1.00  0.00     0.068 A 
HETATM   31  C   UNL     1      44.129 -20.418   2.481  1.00  0.00     0.037 A 
HETATM   32  C   UNL     1      43.320 -19.328   2.130  1.00  0.00     0.012 A 
BRANCH  30  33
HETATM   33  O   UNL     1      45.425 -21.544   4.235  1.00  0.00    -0.356 OA
HETATM   34  C   UNL     1      44.723 -22.629   4.833  1.00  0.00     0.210 C 
ENDBRANCH  30  33
ENDBRANCH   1  27
BRANCH   8  35
HETATM   35  C   UNL     1      40.987 -15.268  -0.371  1.00  0.00     0.409 C 
HETATM   36  F   UNL     1      39.868 -14.647  -0.809  1.00  0.00    -0.169 F 
HETATM   37  F   UNL     1      41.975 -14.333  -0.379  1.00  0.00    -0.169 F 
HETATM   38  F   UNL     1      41.340 -16.194  -1.286  1.00  0.00    -0.169 F 
ENDBRANCH   8  35
TORSDOF 9
ENDMDL
MODEL 4
REMARK VINA RESULT:      -8.2      4.538      7.876
REMARK  9 active torsions:
REMARK  status: ('A' for Active; 'I' for Inactive)
REMARK    1  A    between atoms: O_2  and  C_3 
REMARK    2  A    between atoms: C_6  and  C_7 
REMARK    3  A    between atoms: C_13  and  C_14 
REMARK       I    between atoms: C_14  and  N_15 
REMARK    4  A    between atoms: N_15  and  N_16 
REMARK    5  A    between atoms: N_16  and  C_17 
REMARK    6  A    between atoms: C_17  and  N_18 
REMARK    7  A    between atoms: N_18  and  C_19 
REMARK    8  A    between atoms: C_19  and  C_20 
REMARK    9  A    between atoms: C_27  and  C_28 
ROOT
HETATM    1  C   UNL     1      43.053 -16.683   3.173  1.00  0.00     0.118 C 
HETATM    2  N   UNL     1      42.297 -16.277   1.988  1.00  0.00    -0.365 N 
HETATM    3  C   UNL     1      41.795 -15.013   1.978  1.00  0.00     0.138 A 
HETATM    4  N   UNL     1      41.542 -14.368   3.167  1.00  0.00    -0.240 N 
HETATM    5  N   UNL     1      41.206 -13.078   3.015  1.00  0.00    -0.181 NA
HETATM    6  C   UNL     1      41.096 -12.947   1.692  1.00  0.00     0.160 A 
HETATM    7  C   UNL     1      41.459 -14.120   0.978  1.00  0.00     0.098 A 
HETATM    8  C   UNL     1      41.804 -14.922   4.485  1.00  0.00     0.221 C 
HETATM    9  C   UNL     1      42.173 -16.416   4.402  1.00  0.00     0.066 C 
HETATM   10  H   UNL     1      42.623 -16.684   1.107  1.00  0.00     0.161 HD
ENDROOT
BRANCH   7  11
HETATM   11  C   UNL     1      41.474 -14.324  -0.460  1.00  0.00     0.275 C 
HETATM   12  N   UNL     1      40.699 -15.395  -0.878  1.00  0.00    -0.263 N 
HETATM   13  H   UNL     1      39.946 -15.754  -0.298  1.00  0.00     0.190 HD
HETATM   14  O   UNL     1      42.121 -13.632  -1.241  1.00  0.00    -0.266 OA
BRANCH  12  15
HETATM   15  N   UNL     1      40.628 -15.715  -2.244  1.00  0.00    -0.274 N 
HETATM   16  H   UNL     1      41.539 -15.830  -2.691  1.00  0.00     0.189 HD
BRANCH  15  17
HETATM   17  C   UNL     1      39.637 -15.181  -3.033  1.00  0.00     0.186 C 
HETATM   18  S   UNL     1      38.754 -16.015  -4.182  1.00  0.00    -0.040 SA
BRANCH  17  19
HETATM   19  N   UNL     1      39.424 -13.841  -2.887  1.00  0.00    -0.360 N 
HETATM   20  H   UNL     1      40.233 -13.321  -2.572  1.00  0.00     0.162 HD
BRANCH  19  21
HETATM   21  C   UNL     1      38.136 -13.213  -2.639  1.00  0.00     0.187 C 
BRANCH  21  22
HETATM   22  C   UNL     1      37.910 -13.046  -1.186  1.00  0.00     0.070 A 
HETATM   23  O   UNL     1      37.861 -14.185  -0.438  1.00  0.00    -0.325 OA
HETATM   24  C   UNL     1      37.610 -13.809   0.842  1.00  0.00     0.142 A 
HETATM   25  C   UNL     1      37.489 -12.442   0.927  1.00  0.00     0.027 A 
HETATM   26  C   UNL     1      37.680 -11.946  -0.384  1.00  0.00     0.036 A 
ENDBRANCH  21  22
ENDBRANCH  19  21
ENDBRANCH  17  19
ENDBRANCH  15  17
ENDBRANCH  12  15
ENDBRANCH   7  11
BRANCH   1  27
HETATM   27  C   UNL     1      43.516 -18.122   3.067  1.00  0.00    -0.035 A 
HETATM   28  C   UNL     1      44.196 -18.706   4.147  1.00  0.00     0.012 A 
HETATM   29  C   UNL     1      44.556 -20.056   4.121  1.00  0.00     0.037 A 
HETATM   30  C   UNL     1      44.238 -20.852   3.022  1.00  0.00     0.068 A 
HETATM   31  C   UNL     1      43.619 -20.272   1.917  1.00  0.00     0.037 A 
HETATM   32  C   UNL     1      43.269 -18.915   1.936  1.00  0.00     0.012 A 
BRANCH  30  33
HETATM   33  O   UNL     1      44.601 -22.165   3.130  1.00  0.00    -0.356 OA
HETATM   34  C   UNL     1      44.700 -22.673   4.456  1.00  0.00     0.210 C 
ENDBRANCH  30  33
ENDBRANCH   1  27
BRANCH   8  35
HETATM   35  C   UNL     1      40.612 -14.744   5.401  1.00  0.00     0.409 C 
HETATM   36  F   UNL     1      40.657 -13.580   6.087  1.00  0.00    -0.169 F 
HETATM   37  F   UNL     1      39.470 -14.712   4.661  1.00  0.00    -0.169 F 
HETATM   38  F   UNL     1      40.456 -15.749   6.286  1.00  0.00    -0.169 F 
ENDBRANCH   8  35
TORSDOF 9
ENDMDL
MODEL 5
REMARK VINA RESULT:      -8.2      4.576      6.988
REMARK  9 active torsions:
REMARK  status: ('A' for Active; 'I' for Inactive)
REMARK    1  A    between atoms: O_2  and  C_3 
REMARK    2  A    between atoms: C_6  and  C_7 
REMARK    3  A    between atoms: C_13  and  C_14 
REMARK       I    between atoms: C_14  and  N_15 
REMARK    4  A    between atoms: N_15  and  N_16 
REMARK    5  A    between atoms: N_16  and  C_17 
REMARK    6  A    between atoms: C_17  and  N_18 
REMARK    7  A    between atoms: N_18  and  C_19 
REMARK    8  A    between atoms: C_19  and  C_20 
REMARK    9  A    between atoms: C_27  and  C_28 
ROOT
HETATM    1  C   UNL     1      42.334 -16.749   3.522  1.00  0.00     0.118 C 
HETATM    2  N   UNL     1      43.212 -15.887   4.311  1.00  0.00    -0.365 N 
HETATM    3  C   UNL     1      42.793 -14.611   4.532  1.00  0.00     0.138 A 
HETATM    4  N   UNL     1      41.913 -14.019   3.653  1.00  0.00    -0.240 N 
HETATM    5  N   UNL     1      41.458 -12.829   4.073  1.00  0.00    -0.181 NA
HETATM    6  C   UNL     1      42.184 -12.596   5.168  1.00  0.00     0.160 A 
HETATM    7  C   UNL     1      43.036 -13.676   5.519  1.00  0.00     0.098 A 
HETATM    8  C   UNL     1      41.342 -14.669   2.485  1.00  0.00     0.221 C 
HETATM    9  C   UNL     1      42.025 -16.022   2.205  1.00  0.00     0.066 C 
HETATM   10  H   UNL     1      43.740 -16.363   5.048  1.00  0.00     0.161 HD
ENDROOT
BRANCH   7  11
HETATM   11  C   UNL     1      43.944 -13.769   6.649  1.00  0.00     0.275 C 
HETATM   12  N   UNL     1      43.628 -12.911   7.691  1.00  0.00    -0.263 N 
HETATM   13  H   UNL     1      42.688 -12.536   7.793  1.00  0.00     0.190 HD
HETATM   14  O   UNL     1      44.915 -14.520   6.684  1.00  0.00    -0.266 OA
BRANCH  12  15
HETATM   15  N   UNL     1      44.428 -12.888   8.845  1.00  0.00    -0.274 N 
HETATM   16  H   UNL     1      44.645 -13.814   9.218  1.00  0.00     0.189 HD
BRANCH  15  17
HETATM   17  C   UNL     1      44.278 -11.888   9.776  1.00  0.00     0.186 C 
HETATM   18  S   UNL     1      45.432 -10.744  10.169  1.00  0.00    -0.040 SA
BRANCH  17  19
HETATM   19  N   UNL     1      43.100 -11.896  10.466  1.00  0.00    -0.360 N 
HETATM   20  H   UNL     1      42.631 -12.793  10.484  1.00  0.00     0.162 HD
BRANCH  19  21
HETATM   21  C   UNL     1      42.252 -10.738  10.701  1.00  0.00     0.187 C 
BRANCH  21  22
HETATM   22  C   UNL     1      42.201 -10.414  12.143  1.00  0.00     0.070 A 
HETATM   23  O   UNL     1      41.004  -9.976  12.632  1.00  0.00    -0.325 OA
HETATM   24  C   UNL     1      41.190  -9.704  13.949  1.00  0.00     0.142 A 
HETATM   25  C   UNL     1      42.491  -9.955  14.314  1.00  0.00     0.027 A 
HETATM   26  C   UNL     1      43.148 -10.412  13.147  1.00  0.00     0.036 A 
ENDBRANCH  21  22
ENDBRANCH  19  21
ENDBRANCH  17  19
ENDBRANCH  15  17
ENDBRANCH  12  15
ENDBRANCH   7  11
BRANCH   1  27
HETATM   27  C   UNL     1      42.941 -18.123   3.321  1.00  0.00    -0.035 A 
HETATM   28  C   UNL     1      42.711 -18.806   2.117  1.00  0.00     0.012 A 
HETATM   29  C   UNL     1      43.330 -20.032   1.861  1.00  0.00     0.037 A 
HETATM   30  C   UNL     1      44.196 -20.598   2.796  1.00  0.00     0.068 A 
HETATM   31  C   UNL     1      44.385 -19.961   4.021  1.00  0.00     0.037 A 
HETATM   32  C   UNL     1      43.754 -18.737   4.285  1.00  0.00     0.012 A 
BRANCH  30  33
HETATM   33  O   UNL     1      44.775 -21.775   2.416  1.00  0.00    -0.356 OA
HETATM   34  C   UNL     1      44.757 -22.816   3.387  1.00  0.00     0.210 C 
ENDBRANCH  30  33
ENDBRANCH   1  27
BRANCH   8  35
HETATM   35  C   UNL     1      41.447 -13.785   1.261  1.00  0.00     0.409 C 
HETATM   36  F   UNL     1      41.437 -14.493   0.109  1.00  0.00    -0.169 F 
HETATM   37  F   UNL     1      40.375 -12.949   1.210  1.00  0.00    -0.169 F 
HETATM   38  F   UNL     1      42.539 -12.993   1.259  1.00  0.00    -0.169 F 
ENDBRANCH   8  35
TORSDOF 9
ENDMDL
MODEL 6
REMARK VINA RESULT:      -8.2      3.515      6.343
REMARK  9 active torsions:
REMARK  status: ('A' for Active; 'I' for Inactive)
REMARK    1  A    between atoms: O_2  and  C_3 
REMARK    2  A    between atoms: C_6  and  C_7 
REMARK    3  A    between atoms: C_13  and  C_14 
REMARK       I    between atoms: C_14  and  N_15 
REMARK    4  A    between atoms: N_15  and  N_16 
REMARK    5  A    between atoms: N_16  and  C_17 
REMARK    6  A    between atoms: C_17  and  N_18 
REMARK    7  A    between atoms: N_18  and  C_19 
REMARK    8  A    between atoms: C_19  and  C_20 
REMARK    9  A    between atoms: C_27  and  C_28 
ROOT
HETATM    1  C   UNL     1      41.848 -17.373   2.656  1.00  0.00     0.118 C 
HETATM    2  N   UNL     1      42.083 -16.148   3.418  1.00  0.00    -0.365 N 
HETATM    3  C   UNL     1      41.257 -15.097   3.170  1.00  0.00     0.138 A 
HETATM    4  N   UNL     1      40.623 -14.997   1.951  1.00  0.00    -0.240 N 
HETATM    5  N   UNL     1      39.717 -14.010   1.899  1.00  0.00    -0.181 NA
HETATM    6  C   UNL     1      39.891 -13.375   3.059  1.00  0.00     0.160 A 
HETATM    7  C   UNL     1      40.836 -14.007   3.910  1.00  0.00     0.098 A 
HETATM    8  C   UNL     1      40.735 -15.969   0.876  1.00  0.00     0.221 C 
HETATM    9  C   UNL     1      41.840 -17.003   1.166  1.00  0.00     0.066 C 
HETATM   10  H   UNL     1      42.423 -16.290   4.373  1.00  0.00     0.161 HD
ENDROOT
BRANCH   7  11
HETATM   11  C   UNL     1      41.256 -13.602   5.240  1.00  0.00     0.275 C 
HETATM   12  N   UNL     1      42.630 -13.615   5.419  1.00  0.00    -0.263 N 
HETATM   13  H   UNL     1      43.262 -13.565   4.625  1.00  0.00     0.190 HD
HETATM   14  O   UNL     1      40.475 -13.292   6.136  1.00  0.00    -0.266 OA
BRANCH  12  15
HETATM   15  N   UNL     1      43.176 -13.254   6.662  1.00  0.00    -0.274 N 
HETATM   16  H   UNL     1      43.402 -12.261   6.744  1.00  0.00     0.189 HD
BRANCH  15  17
HETATM   17  C   UNL     1      44.013 -14.115   7.331  1.00  0.00     0.186 C 
HETATM   18  S   UNL     1      44.234 -15.733   6.970  1.00  0.00    -0.040 SA
BRANCH  17  19
HETATM   19  N   UNL     1      44.655 -13.591   8.415  1.00  0.00    -0.360 N 
HETATM   20  H   UNL     1      44.362 -13.980   9.303  1.00  0.00     0.162 HD
BRANCH  19  21
HETATM   21  C   UNL     1      45.270 -12.275   8.477  1.00  0.00     0.187 C 
BRANCH  21  22
HETATM   22  C   UNL     1      44.570 -11.418   9.459  1.00  0.00     0.070 A 
HETATM   23  O   UNL     1      43.348 -10.936   9.091  1.00  0.00    -0.325 OA
HETATM   24  C   UNL     1      42.907 -10.154  10.109  1.00  0.00     0.142 A 
HETATM   25  C   UNL     1      43.831 -10.120  11.126  1.00  0.00     0.027 A 
HETATM   26  C   UNL     1      44.909 -10.935  10.706  1.00  0.00     0.036 A 
ENDBRANCH  21  22
ENDBRANCH  19  21
ENDBRANCH  17  19
ENDBRANCH  15  17
ENDBRANCH  12  15
ENDBRANCH   7  11
BRANCH   1  27
HETATM   27  C   UNL     1      42.864 -18.444   3.003  1.00  0.00    -0.035 A 
HETATM   28  C   UNL     1      43.487 -18.418   4.261  1.00  0.00     0.012 A 
HETATM   29  C   UNL     1      44.357 -19.440   4.649  1.00  0.00     0.037 A 
HETATM   30  C   UNL     1      44.619 -20.510   3.795  1.00  0.00     0.068 A 
HETATM   31  C   UNL     1      44.056 -20.517   2.519  1.00  0.00     0.037 A 
HETATM   32  C   UNL     1      43.193 -19.486   2.124  1.00  0.00     0.012 A 
BRANCH  30  33
HETATM   33  O   UNL     1      45.450 -21.469   4.300  1.00  0.00    -0.356 OA
HETATM   34  C   UNL     1      44.884 -22.318   5.293  1.00  0.00     0.210 C 
ENDBRANCH  30  33
ENDBRANCH   1  27
BRANCH   8  35
HETATM   35  C   UNL     1      41.011 -15.290  -0.448  1.00  0.00     0.409 C 
HETATM   36  F   UNL     1      41.378 -16.165  -1.412  1.00  0.00    -0.169 F 
HETATM   37  F   UNL     1      39.878 -14.679  -0.892  1.00  0.00    -0.169 F 
HETATM   38  F   UNL     1      41.951 -14.326  -0.375  1.00  0.00    -0.169 F 
ENDBRANCH   8  35
TORSDOF 9
ENDMDL
MODEL 7
REMARK VINA RESULT:      -8.0      4.983      8.135
REMARK  9 active torsions:
REMARK  status: ('A' for Active; 'I' for Inactive)
REMARK    1  A    between atoms: O_2  and  C_3 
REMARK    2  A    between atoms: C_6  and  C_7 
REMARK    3  A    between atoms: C_13  and  C_14 
REMARK       I    between atoms: C_14  and  N_15 
REMARK    4  A    between atoms: N_15  and  N_16 
REMARK    5  A    between atoms: N_16  and  C_17 
REMARK    6  A    between atoms: C_17  and  N_18 
REMARK    7  A    between atoms: N_18  and  C_19 
REMARK    8  A    between atoms: C_19  and  C_20 
REMARK    9  A    between atoms: C_27  and  C_28 
ROOT
HETATM    1  C   UNL     1      43.509 -16.741   2.687  1.00  0.00     0.118 C 
HETATM    2  N   UNL     1      42.386 -16.507   1.781  1.00  0.00    -0.365 N 
HETATM    3  C   UNL     1      42.053 -15.212   1.530  1.00  0.00     0.138 A 
HETATM    4  N   UNL     1      42.368 -14.234   2.447  1.00  0.00    -0.240 N 
HETATM    5  N   UNL     1      42.132 -12.990   2.004  1.00  0.00    -0.181 NA
HETATM    6  C   UNL     1      41.512 -13.194   0.841  1.00  0.00     0.160 A 
HETATM    7  C   UNL     1      41.436 -14.564   0.476  1.00  0.00     0.098 A 
HETATM    8  C   UNL     1      43.081 -14.463   3.693  1.00  0.00     0.221 C 
HETATM    9  C   UNL     1      43.232 -15.969   3.985  1.00  0.00     0.066 C 
HETATM   10  H   UNL     1      42.285 -17.194   1.029  1.00  0.00     0.161 HD
ENDROOT
BRANCH   7  11
HETATM   11  C   UNL     1      40.849 -15.141  -0.721  1.00  0.00     0.275 C 
HETATM   12  N   UNL     1      39.703 -14.489  -1.149  1.00  0.00    -0.263 N 
HETATM   13  H   UNL     1      39.513 -13.529  -0.874  1.00  0.00     0.190 HD
HETATM   14  O   UNL     1      41.305 -16.124  -1.298  1.00  0.00    -0.266 OA
BRANCH  12  15
HETATM   15  N   UNL     1      39.025 -14.946  -2.291  1.00  0.00    -0.274 N 
HETATM   16  H   UNL     1      39.551 -15.625  -2.843  1.00  0.00     0.189 HD
BRANCH  15  17
HETATM   17  C   UNL     1      38.212 -14.097  -3.004  1.00  0.00     0.186 C 
HETATM   18  S   UNL     1      37.006 -14.565  -4.063  1.00  0.00    -0.040 SA
BRANCH  17  19
HETATM   19  N   UNL     1      38.481 -12.766  -2.863  1.00  0.00    -0.360 N 
HETATM   20  H   UNL     1      37.775 -12.248  -2.354  1.00  0.00     0.162 HD
BRANCH  19  21
HETATM   21  C   UNL     1      39.327 -11.977  -3.744  1.00  0.00     0.187 C 
BRANCH  21  22
HETATM   22  C   UNL     1      40.708 -11.911  -3.219  1.00  0.00     0.070 A 
HETATM   23  O   UNL     1      41.480 -13.024  -3.383  1.00  0.00    -0.325 OA
HETATM   24  C   UNL     1      42.679 -12.763  -2.803  1.00  0.00     0.142 A 
HETATM   25  C   UNL     1      42.688 -11.500  -2.261  1.00  0.00     0.027 A 
HETATM   26  C   UNL     1      41.413 -10.948  -2.526  1.00  0.00     0.036 A 
ENDBRANCH  21  22
ENDBRANCH  19  21
ENDBRANCH  17  19
ENDBRANCH  15  17
ENDBRANCH  12  15
ENDBRANCH   7  11
BRANCH   1  27
HETATM   27  C   UNL     1      43.742 -18.222   2.908  1.00  0.00    -0.035 A 
HETATM   28  C   UNL     1      43.428 -19.128   1.883  1.00  0.00     0.012 A 
HETATM   29  C   UNL     1      43.716 -20.489   2.017  1.00  0.00     0.037 A 
HETATM   30  C   UNL     1      44.327 -20.973   3.172  1.00  0.00     0.068 A 
HETATM   31  C   UNL     1      44.588 -20.096   4.223  1.00  0.00     0.037 A 
HETATM   32  C   UNL     1      44.288 -18.732   4.096  1.00  0.00     0.012 A 
BRANCH  30  33
HETATM   33  O   UNL     1      44.599 -22.312   3.169  1.00  0.00    -0.356 OA
HETATM   34  C   UNL     1      44.699 -22.925   4.450  1.00  0.00     0.210 C 
ENDBRANCH  30  33
ENDBRANCH   1  27
BRANCH   8  35
HETATM   35  C   UNL     1      42.384 -13.788   4.854  1.00  0.00     0.409 C 
HETATM   36  F   UNL     1      41.049 -14.005   4.853  1.00  0.00    -0.169 F 
HETATM   37  F   UNL     1      42.856 -14.295   6.026  1.00  0.00    -0.169 F 
HETATM   38  F   UNL     1      42.593 -12.457   4.911  1.00  0.00    -0.169 F 
ENDBRANCH   8  35
TORSDOF 9
ENDMDL
MODEL 8
REMARK VINA RESULT:      -7.9      4.485      7.127
REMARK  9 active torsions:
REMARK  status: ('A' for Active; 'I' for Inactive)
REMARK    1  A    between atoms: O_2  and  C_3 
REMARK    2  A    between atoms: C_6  and  C_7 
REMARK    3  A    between atoms: C_13  and  C_14 
REMARK       I    between atoms: C_14  and  N_15 
REMARK    4  A    between atoms: N_15  and  N_16 
REMARK    5  A    between atoms: N_16  and  C_17 
REMARK    6  A    between atoms: C_17  and  N_18 
REMARK    7  A    between atoms: N_18  and  C_19 
REMARK    8  A    between atoms: C_19  and  C_20 
REMARK    9  A    between atoms: C_27  and  C_28 
ROOT
HETATM    1  C   UNL     1      42.034 -17.005   3.503  1.00  0.00     0.118 C 
HETATM    2  N   UNL     1      42.570 -15.782   4.100  1.00  0.00    -0.365 N 
HETATM    3  C   UNL     1      41.808 -14.660   4.000  1.00  0.00     0.138 A 
HETATM    4  N   UNL     1      40.893 -14.542   2.978  1.00  0.00    -0.240 N 
HETATM    5  N   UNL     1      40.099 -13.467   3.091  1.00  0.00    -0.181 NA
HETATM    6  C   UNL     1      40.625 -12.809   4.126  1.00  0.00     0.160 A 
HETATM    7  C   UNL     1      41.695 -13.504   4.750  1.00  0.00     0.098 A 
HETATM    8  C   UNL     1      40.634 -15.562   1.974  1.00  0.00     0.221 C 
HETATM    9  C   UNL     1      41.676 -16.695   2.043  1.00  0.00     0.066 C 
HETATM   10  H   UNL     1      43.130 -15.922   4.945  1.00  0.00     0.161 HD
ENDROOT
BRANCH   7  11
HETATM   11  C   UNL     1      42.479 -13.093   5.901  1.00  0.00     0.275 C 
HETATM   12  N   UNL     1      41.868 -12.115   6.671  1.00  0.00    -0.263 N 
HETATM   13  H   UNL     1      40.863 -11.972   6.634  1.00  0.00     0.190 HD
HETATM   14  O   UNL     1      43.587 -13.549   6.170  1.00  0.00    -0.266 OA
BRANCH  12  15
HETATM   15  N   UNL     1      42.519 -11.617   7.812  1.00  0.00    -0.274 N 
HETATM   16  H   UNL     1      43.160 -12.281   8.248  1.00  0.00     0.189 HD
BRANCH  15  17
HETATM   17  C   UNL     1      41.864 -10.765   8.670  1.00  0.00     0.186 C 
HETATM   18  S   UNL     1      41.173  -9.302   8.249  1.00  0.00    -0.040 SA
BRANCH  17  19
HETATM   19  N   UNL     1      41.851 -11.144   9.981  1.00  0.00    -0.360 N 
HETATM   20  H   UNL     1      42.121 -12.107  10.141  1.00  0.00     0.162 HD
BRANCH  19  21
HETATM   21  C   UNL     1      41.047 -10.534  11.028  1.00  0.00     0.187 C 
BRANCH  21  22
HETATM   22  C   UNL     1      41.887 -10.194  12.197  1.00  0.00     0.070 A 
HETATM   23  O   UNL     1      41.442 -10.617  13.416  1.00  0.00    -0.325 OA
HETATM   24  C   UNL     1      42.331 -10.170  14.339  1.00  0.00     0.142 A 
HETATM   25  C   UNL     1      43.339  -9.459  13.733  1.00  0.00     0.027 A 
HETATM   26  C   UNL     1      43.052  -9.470  12.348  1.00  0.00     0.036 A 
ENDBRANCH  21  22
ENDBRANCH  19  21
ENDBRANCH  17  19
ENDBRANCH  15  17
ENDBRANCH  12  15
ENDBRANCH   7  11
BRANCH   1  27
HETATM   27  C   UNL     1      43.001 -18.163   3.651  1.00  0.00    -0.035 A 
HETATM   28  C   UNL     1      43.549 -18.443   4.913  1.00  0.00     0.012 A 
HETATM   29  C   UNL     1      44.370 -19.558   5.104  1.00  0.00     0.037 A 
HETATM   30  C   UNL     1      44.656 -20.417   4.045  1.00  0.00     0.068 A 
HETATM   31  C   UNL     1      44.170 -20.117   2.774  1.00  0.00     0.037 A 
HETATM   32  C   UNL     1      43.356 -18.992   2.577  1.00  0.00     0.012 A 
BRANCH  30  33
HETATM   33  O   UNL     1      45.432 -21.496   4.364  1.00  0.00    -0.356 OA
HETATM   34  C   UNL     1      44.753 -22.589   4.972  1.00  0.00     0.210 C 
ENDBRANCH  30  33
ENDBRANCH   1  27
BRANCH   8  35
HETATM   35  C   UNL     1      40.621 -14.968   0.582  1.00  0.00     0.409 C 
HETATM   36  F   UNL     1      41.507 -13.955   0.443  1.00  0.00    -0.169 F 
HETATM   37  F   UNL     1      40.978 -15.920  -0.322  1.00  0.00    -0.169 F 
HETATM   38  F   UNL     1      39.408 -14.522   0.196  1.00  0.00    -0.169 F 
ENDBRANCH   8  35
TORSDOF 9
ENDMDL
MODEL 9
REMARK VINA RESULT:      -7.8      2.510      3.446
REMARK  9 active torsions:
REMARK  status: ('A' for Active; 'I' for Inactive)
REMARK    1  A    between atoms: O_2  and  C_3 
REMARK    2  A    between atoms: C_6  and  C_7 
REMARK    3  A    between atoms: C_13  and  C_14 
REMARK       I    between atoms: C_14  and  N_15 
REMARK    4  A    between atoms: N_15  and  N_16 
REMARK    5  A    between atoms: N_16  and  C_17 
REMARK    6  A    between atoms: C_17  and  N_18 
REMARK    7  A    between atoms: N_18  and  C_19 
REMARK    8  A    between atoms: C_19  and  C_20 
REMARK    9  A    between atoms: C_27  and  C_28 
ROOT
HETATM    1  C   UNL     1      42.620 -15.939   1.545  1.00  0.00     0.118 C 
HETATM    2  N   UNL     1      41.689 -16.105   2.660  1.00  0.00    -0.365 N 
HETATM    3  C   UNL     1      42.140 -16.789   3.745  1.00  0.00     0.138 A 
HETATM    4  N   UNL     1      43.160 -17.704   3.603  1.00  0.00    -0.240 N 
HETATM    5  N   UNL     1      43.615 -18.183   4.770  1.00  0.00    -0.181 NA
HETATM    6  C   UNL     1      42.761 -17.675   5.661  1.00  0.00     0.160 A 
HETATM    7  C   UNL     1      41.814 -16.784   5.089  1.00  0.00     0.098 A 
HETATM    8  C   UNL     1      43.848 -17.992   2.356  1.00  0.00     0.221 C 
HETATM    9  C   UNL     1      43.140 -17.330   1.157  1.00  0.00     0.066 C 
HETATM   10  H   UNL     1      41.043 -15.325   2.805  1.00  0.00     0.161 HD
ENDROOT
BRANCH   7  11
HETATM   11  C   UNL     1      40.759 -16.047   5.761  1.00  0.00     0.275 C 
HETATM   12  N   UNL     1      40.559 -14.773   5.253  1.00  0.00    -0.263 N 
HETATM   13  H   UNL     1      40.861 -14.531   4.313  1.00  0.00     0.190 HD
HETATM   14  O   UNL     1      40.110 -16.492   6.704  1.00  0.00    -0.266 OA
BRANCH  12  15
HETATM   15  N   UNL     1      39.575 -13.943   5.815  1.00  0.00    -0.274 N 
HETATM   16  H   UNL     1      38.628 -14.322   5.754  1.00  0.00     0.189 HD
BRANCH  15  17
HETATM   17  C   UNL     1      39.680 -12.576   5.719  1.00  0.00     0.186 C 
HETATM   18  S   UNL     1      40.478 -11.583   6.802  1.00  0.00    -0.040 SA
BRANCH  17  19
HETATM   19  N   UNL     1      39.011 -12.005   4.675  1.00  0.00    -0.360 N 
HETATM   20  H   UNL     1      38.003 -12.014   4.769  1.00  0.00     0.162 HD
BRANCH  19  21
HETATM   21  C   UNL     1      39.515 -11.879   3.317  1.00  0.00     0.187 C 
BRANCH  21  22
HETATM   22  C   UNL     1      38.914 -12.908   2.441  1.00  0.00     0.070 A 
HETATM   23  O   UNL     1      39.275 -14.202   2.677  1.00  0.00    -0.325 OA
HETATM   24  C   UNL     1      38.645 -14.965   1.747  1.00  0.00     0.142 A 
HETATM   25  C   UNL     1      37.889 -14.180   0.911  1.00  0.00     0.027 A 
HETATM   26  C   UNL     1      38.064 -12.848   1.355  1.00  0.00     0.036 A 
ENDBRANCH  21  22
ENDBRANCH  19  21
ENDBRANCH  17  19
ENDBRANCH  15  17
ENDBRANCH  12  15
ENDBRANCH   7  11
BRANCH   1  27
HETATM   27  C   UNL     1      41.975 -15.197   0.391  1.00  0.00    -0.035 A 
HETATM   28  C   UNL     1      41.399 -15.928  -0.660  1.00  0.00     0.012 A 
HETATM   29  C   UNL     1      40.715 -15.280  -1.692  1.00  0.00     0.037 A 
HETATM   30  C   UNL     1      40.585 -13.892  -1.693  1.00  0.00     0.068 A 
HETATM   31  C   UNL     1      41.205 -13.149  -0.690  1.00  0.00     0.037 A 
HETATM   32  C   UNL     1      41.903 -13.797   0.339  1.00  0.00     0.012 A 
BRANCH  30  33
HETATM   33  O   UNL     1      39.859 -13.376  -2.729  1.00  0.00    -0.356 OA
HETATM   34  C   UNL     1      38.516 -13.836  -2.832  1.00  0.00     0.210 C 
ENDBRANCH  30  33
ENDBRANCH   1  27
BRANCH   8  35
HETATM   35  C   UNL     1      43.955 -19.483   2.122  1.00  0.00     0.409 C 
HETATM   36  F   UNL     1      44.973 -20.044   2.813  1.00  0.00    -0.169 F 
HETATM   37  F   UNL     1      42.816 -20.094   2.550  1.00  0.00    -0.169 F 
HETATM   38  F   UNL     1      44.093 -19.818   0.823  1.00  0.00    -0.169 F 
ENDBRANCH   8  35
TORSDOF 9
ENDMDL
MODEL 10
REMARK VINA RESULT:      -7.7      3.709      5.135
REMARK  9 active torsions:
REMARK  status: ('A' for Active; 'I' for Inactive)
REMARK    1  A    between atoms: O_2  and  C_3 
REMARK    2  A    between atoms: C_6  and  C_7 
REMARK    3  A    between atoms: C_13  and  C_14 
REMARK       I    between atoms: C_14  and  N_15 
REMARK    4  A    between atoms: N_15  and  N_16 
REMARK    5  A    between atoms: N_16  and  C_17 
REMARK    6  A    between atoms: C_17  and  N_18 
REMARK    7  A    between atoms: N_18  and  C_19 
REMARK    8  A    between atoms: C_19  and  C_20 
REMARK    9  A    between atoms: C_27  and  C_28 
ROOT
HETATM    1  C   UNL     1      41.938 -15.278   1.159  1.00  0.00     0.118 C 
HETATM    2  N   UNL     1      41.067 -15.085   2.317  1.00  0.00    -0.365 N 
HETATM    3  C   UNL     1      41.603 -15.331   3.543  1.00  0.00     0.138 A 
HETATM    4  N   UNL     1      42.667 -16.196   3.663  1.00  0.00    -0.240 N 
HETATM    5  N   UNL     1      43.199 -16.222   4.895  1.00  0.00    -0.181 NA
HETATM    6  C   UNL     1      42.356 -15.472   5.605  1.00  0.00     0.160 A 
HETATM    7  C   UNL     1      41.335 -14.874   4.819  1.00  0.00     0.098 A 
HETATM    8  C   UNL     1      43.318 -16.872   2.552  1.00  0.00     0.221 C 
HETATM    9  C   UNL     1      42.522 -16.696   1.244  1.00  0.00     0.066 C 
HETATM   10  H   UNL     1      40.383 -14.329   2.223  1.00  0.00     0.161 HD
ENDROOT
BRANCH   7  11
HETATM   11  C   UNL     1      40.268 -13.992   5.258  1.00  0.00     0.275 C 
HETATM   12  N   UNL     1      40.228 -13.806   6.631  1.00  0.00    -0.263 N 
HETATM   13  H   UNL     1      41.049 -13.973   7.206  1.00  0.00     0.190 HD
HETATM   14  O   UNL     1      39.459 -13.468   4.497  1.00  0.00    -0.266 OA
BRANCH  12  15
HETATM   15  N   UNL     1      39.239 -12.984   7.196  1.00  0.00    -0.274 N 
HETATM   16  H   UNL     1      38.303 -13.139   6.818  1.00  0.00     0.189 HD
BRANCH  15  17
HETATM   17  C   UNL     1      39.532 -11.689   7.555  1.00  0.00     0.186 C 
HETATM   18  S   UNL     1      39.614 -10.386   6.512  1.00  0.00    -0.040 SA
BRANCH  17  19
HETATM   19  N   UNL     1      39.841 -11.497   8.871  1.00  0.00    -0.360 N 
HETATM   20  H   UNL     1      39.058 -11.605   9.504  1.00  0.00     0.162 HD
BRANCH  19  21
HETATM   21  C   UNL     1      40.949 -10.699   9.370  1.00  0.00     0.187 C 
BRANCH  21  22
HETATM   22  C   UNL     1      41.121 -10.900  10.826  1.00  0.00     0.070 A 
HETATM   23  O   UNL     1      42.377 -11.214  11.258  1.00  0.00    -0.325 OA
HETATM   24  C   UNL     1      42.301 -11.390  12.601  1.00  0.00     0.142 A 
HETATM   25  C   UNL     1      41.013 -11.199  13.041  1.00  0.00     0.027 A 
HETATM   26  C   UNL     1      40.247 -10.885  11.893  1.00  0.00     0.036 A 
ENDBRANCH  21  22
ENDBRANCH  19  21
ENDBRANCH  17  19
ENDBRANCH  15  17
ENDBRANCH  12  15
ENDBRANCH   7  11
BRANCH   1  27
HETATM   27  C   UNL     1      41.203 -15.009  -0.138  1.00  0.00    -0.035 A 
HETATM   28  C   UNL     1      41.421 -15.852  -1.240  1.00  0.00     0.012 A 
HETATM   29  C   UNL     1      40.692 -15.690  -2.420  1.00  0.00     0.037 A 
HETATM   30  C   UNL     1      39.727 -14.690  -2.525  1.00  0.00     0.068 A 
HETATM   31  C   UNL     1      39.543 -13.806  -1.462  1.00  0.00     0.037 A 
HETATM   32  C   UNL     1      40.283 -13.960  -0.282  1.00  0.00     0.012 A 
BRANCH  30  33
HETATM   33  O   UNL     1      39.048 -14.657  -3.710  1.00  0.00    -0.356 OA
HETATM   34  C   UNL     1      38.755 -15.923  -4.291  1.00  0.00     0.210 C 
ENDBRANCH  30  33
ENDBRANCH   1  27
BRANCH   8  35
HETATM   35  C   UNL     1      43.502 -18.346   2.840  1.00  0.00     0.409 C 
HETATM   36  F   UNL     1      42.415 -18.898   3.427  1.00  0.00    -0.169 F 
HETATM   37  F   UNL     1      43.692 -19.018   1.672  1.00  0.00    -0.169 F 
HETATM   38  F   UNL     1      44.577 -18.617   3.607  1.00  0.00    -0.169 F 
ENDBRANCH   8  35
TORSDOF 9
ENDMDL
