MODEL 1
REMARK VINA RESULT:      -8.0      0.000      0.000
REMARK  6 active torsions:
REMARK  status: ('A' for Active; 'I' for Inactive)
REMARK    1  A    between atoms: C_2  and  C_3 
REMARK    2  A    between atoms: C_3  and  N_4 
REMARK    3  A    between atoms: C_3  and  C_17 
REMARK    4  A    between atoms: N_4  and  C_5 
REMARK    5  A    between atoms: C_5  and  C_6 
REMARK       I    between atoms: C_6  and  N_7 
REMARK    6  A    between atoms: N_7  and  C_8 
ROOT
HETATM    1  N   UNL     1      44.845 -18.015   5.481  1.00  0.00     0.101 N 
HETATM    2  H   UNL     1      44.873 -17.823   4.478  1.00  0.00     0.317 HD
ENDROOT
BRANCH   1   3
HETATM    3  C   UNL     1      44.586 -19.458   5.674  1.00  0.00     0.256 C 
BRANCH   3   4
HETATM    4  C   UNL     1      43.394 -19.741   6.627  1.00  0.00     0.036 C 
HETATM    5  C   UNL     1      43.630 -20.834   7.665  1.00  0.00     0.007 C 
ENDBRANCH   3   4
BRANCH   3   6
HETATM    6  C   UNL     1      44.409 -20.187   4.346  1.00  0.00     0.013 A 
HETATM    7  C   UNL     1      44.785 -21.539   4.260  1.00  0.00     0.127 A 
HETATM    8  F   UNL     1      45.305 -22.153   5.334  1.00  0.00    -0.205 F 
HETATM    9  C   UNL     1      44.630 -22.275   3.091  1.00  0.00     0.085 A 
HETATM   10  C   UNL     1      44.095 -21.652   1.976  1.00  0.00     0.119 A 
HETATM   11  F   UNL     1      43.939 -22.346   0.841  1.00  0.00    -0.206 F 
HETATM   12  C   UNL     1      43.714 -20.315   2.016  1.00  0.00     0.043 A 
HETATM   13  C   UNL     1      43.867 -19.583   3.198  1.00  0.00     0.015 A 
ENDBRANCH   3   6
ENDBRANCH   1   3
BRANCH   1  14
HETATM   14  C   UNL     1      43.772 -17.180   6.071  1.00  0.00     0.372 C 
BRANCH  14  15
HETATM   15  C   UNL     1      43.110 -16.311   4.990  1.00  0.00     0.250 C 
HETATM   16  N   UNL     1      41.909 -16.836   4.563  1.00  0.00    -0.322 N 
HETATM   17  H   UNL     1      41.674 -17.737   4.970  1.00  0.00     0.169 HD
HETATM   18  O   UNL     1      43.667 -15.303   4.573  1.00  0.00    -0.271 OA
BRANCH  16  19
HETATM   19  C   UNL     1      41.011 -16.288   3.667  1.00  0.00     0.085 A 
HETATM   20  C   UNL     1      40.684 -16.558   2.306  1.00  0.00     0.079 A 
HETATM   21  C   UNL     1      41.242 -17.554   1.357  1.00  0.00     0.075 C 
HETATM   22  N   UNL     1      39.732 -15.724   1.857  1.00  0.00    -0.177 NA
HETATM   23  N   UNL     1      39.457 -14.942   2.904  1.00  0.00    -0.280 N 
HETATM   24  H   UNL     1      38.747 -14.227   2.789  1.00  0.00     0.189 HD
HETATM   25  C   UNL     1      40.199 -15.224   4.015  1.00  0.00     0.052 A 
HETATM   26  C   UNL     1      40.040 -14.457   5.272  1.00  0.00     0.072 C 
ENDBRANCH  16  19
ENDBRANCH  14  15
ENDBRANCH   1  14
TORSDOF 6
ENDMDL
MODEL 2
REMARK VINA RESULT:      -7.4      3.061      5.043
REMARK  6 active torsions:
REMARK  status: ('A' for Active; 'I' for Inactive)
REMARK    1  A    between atoms: C_2  and  C_3 
REMARK    2  A    between atoms: C_3  and  N_4 
REMARK    3  A    between atoms: C_3  and  C_17 
REMARK    4  A    between atoms: N_4  and  C_5 
REMARK    5  A    between atoms: C_5  and  C_6 
REMARK       I    between atoms: C_6  and  N_7 
REMARK    6  A    between atoms: N_7  and  C_8 
ROOT
HETATM    1  N   UNL     1      44.002 -17.552   2.351  1.00  0.00     0.101 N 
HETATM    2  H   UNL     1      45.020 -17.469   2.317  1.00  0.00     0.317 HD
ENDROOT
BRANCH   1   3
HETATM    3  C   UNL     1      43.656 -18.725   3.182  1.00  0.00     0.256 C 
BRANCH   3   4
HETATM    4  C   UNL     1      44.530 -19.969   2.877  1.00  0.00     0.036 C 
HETATM    5  C   UNL     1      43.855 -21.059   2.050  1.00  0.00     0.007 C 
ENDBRANCH   3   4
BRANCH   3   6
HETATM    6  C   UNL     1      43.678 -18.393   4.672  1.00  0.00     0.013 A 
HETATM    7  C   UNL     1      42.506 -17.902   5.273  1.00  0.00     0.127 A 
HETATM    8  F   UNL     1      41.405 -17.718   4.529  1.00  0.00    -0.205 F 
HETATM    9  C   UNL     1      42.443 -17.602   6.629  1.00  0.00     0.085 A 
HETATM   10  C   UNL     1      43.574 -17.787   7.407  1.00  0.00     0.119 A 
HETATM   11  F   UNL     1      43.531 -17.503   8.715  1.00  0.00    -0.206 F 
HETATM   12  C   UNL     1      44.756 -18.266   6.851  1.00  0.00     0.043 A 
HETATM   13  C   UNL     1      44.809 -18.572   5.487  1.00  0.00     0.015 A 
ENDBRANCH   3   6
ENDBRANCH   1   3
BRANCH   1  14
HETATM   14  C   UNL     1      43.515 -17.702   0.959  1.00  0.00     0.372 C 
BRANCH  14  15
HETATM   15  C   UNL     1      42.092 -17.138   0.823  1.00  0.00     0.250 C 
HETATM   16  N   UNL     1      42.067 -15.947   0.130  1.00  0.00    -0.322 N 
HETATM   17  H   UNL     1      42.983 -15.589  -0.126  1.00  0.00     0.169 HD
HETATM   18  O   UNL     1      41.141 -17.717   1.336  1.00  0.00    -0.271 OA
BRANCH  16  19
HETATM   19  C   UNL     1      40.964 -15.204  -0.245  1.00  0.00     0.085 A 
HETATM   20  C   UNL     1      39.989 -14.451   0.472  1.00  0.00     0.079 A 
HETATM   21  C   UNL     1      39.824 -14.223   1.930  1.00  0.00     0.075 C 
HETATM   22  N   UNL     1      39.083 -13.909  -0.357  1.00  0.00    -0.177 NA
HETATM   23  N   UNL     1      39.469 -14.304  -1.573  1.00  0.00    -0.280 N 
HETATM   24  H   UNL     1      38.918 -14.000  -2.368  1.00  0.00     0.189 HD
HETATM   25  C   UNL     1      40.584 -15.092  -1.571  1.00  0.00     0.052 A 
HETATM   26  C   UNL     1      41.156 -15.634  -2.825  1.00  0.00     0.072 C 
ENDBRANCH  16  19
ENDBRANCH  14  15
ENDBRANCH   1  14
TORSDOF 6
ENDMDL
MODEL 3
REMARK VINA RESULT:      -7.4      1.904      2.808
REMARK  6 active torsions:
REMARK  status: ('A' for Active; 'I' for Inactive)
REMARK    1  A    between atoms: C_2  and  C_3 
REMARK    2  A    between atoms: C_3  and  N_4 
REMARK    3  A    between atoms: C_3  and  C_17 
REMARK    4  A    between atoms: N_4  and  C_5 
REMARK    5  A    between atoms: C_5  and  C_6 
REMARK       I    between atoms: C_6  and  N_7 
REMARK    6  A    between atoms: N_7  and  C_8 
ROOT
HETATM    1  N   UNL     1      42.796 -17.428   5.901  1.00  0.00     0.101 N 
HETATM    2  H   UNL     1      42.574 -17.790   6.830  1.00  0.00     0.317 HD
ENDROOT
BRANCH   1   3
HETATM    3  C   UNL     1      44.184 -17.813   5.568  1.00  0.00     0.256 C 
BRANCH   3   4
HETATM    4  C   UNL     1      45.023 -18.208   6.812  1.00  0.00     0.036 C 
HETATM    5  C   UNL     1      44.219 -18.557   8.061  1.00  0.00     0.007 C 
ENDBRANCH   3   4
BRANCH   3   6
HETATM    6  C   UNL     1      44.233 -18.908   4.506  1.00  0.00     0.013 A 
HETATM    7  C   UNL     1      43.930 -18.573   3.175  1.00  0.00     0.127 A 
HETATM    8  F   UNL     1      43.590 -17.313   2.868  1.00  0.00    -0.205 F 
HETATM    9  C   UNL     1      43.978 -19.511   2.150  1.00  0.00     0.085 A 
HETATM   10  C   UNL     1      44.327 -20.817   2.455  1.00  0.00     0.119 A 
HETATM   11  F   UNL     1      44.378 -21.733   1.479  1.00  0.00    -0.206 F 
HETATM   12  C   UNL     1      44.630 -21.191   3.760  1.00  0.00     0.043 A 
HETATM   13  C   UNL     1      44.585 -20.240   4.784  1.00  0.00     0.015 A 
ENDBRANCH   3   6
ENDBRANCH   1   3
BRANCH   1  14
HETATM   14  C   UNL     1      42.627 -15.956   5.937  1.00  0.00     0.372 C 
BRANCH  14  15
HETATM   15  C   UNL     1      41.297 -15.550   5.282  1.00  0.00     0.250 C 
HETATM   16  N   UNL     1      41.438 -15.285   3.937  1.00  0.00    -0.322 N 
HETATM   17  H   UNL     1      42.395 -15.332   3.596  1.00  0.00     0.169 HD
HETATM   18  O   UNL     1      40.276 -15.454   5.953  1.00  0.00    -0.271 OA
BRANCH  16  19
HETATM   19  C   UNL     1      40.450 -14.972   3.023  1.00  0.00     0.085 A 
HETATM   20  C   UNL     1      39.603 -13.841   2.832  1.00  0.00     0.079 A 
HETATM   21  C   UNL     1      39.490 -12.577   3.603  1.00  0.00     0.075 C 
HETATM   22  N   UNL     1      38.775 -14.021   1.790  1.00  0.00    -0.177 NA
HETATM   23  N   UNL     1      39.085 -15.234   1.327  1.00  0.00    -0.280 N 
HETATM   24  H   UNL     1      38.575 -15.579   0.521  1.00  0.00     0.189 HD
HETATM   25  C   UNL     1      40.074 -15.859   2.030  1.00  0.00     0.052 A 
HETATM   26  C   UNL     1      40.547 -17.215   1.670  1.00  0.00     0.072 C 
ENDBRANCH  16  19
ENDBRANCH  14  15
ENDBRANCH   1  14
TORSDOF 6
ENDMDL
MODEL 4
REMARK VINA RESULT:      -7.3      3.627      4.959
REMARK  6 active torsions:
REMARK  status: ('A' for Active; 'I' for Inactive)
REMARK    1  A    between atoms: C_2  and  C_3 
REMARK    2  A    between atoms: C_3  and  N_4 
REMARK    3  A    between atoms: C_3  and  C_17 
REMARK    4  A    between atoms: N_4  and  C_5 
REMARK    5  A    between atoms: C_5  and  C_6 
REMARK       I    between atoms: C_6  and  N_7 
REMARK    6  A    between atoms: N_7  and  C_8 
ROOT
HETATM    1  N   UNL     1      42.932 -17.214   1.179  1.00  0.00     0.101 N 
HETATM    2  H   UNL     1      43.416 -17.893   0.589  1.00  0.00     0.317 HD
ENDROOT
BRANCH   1   3
HETATM    3  C   UNL     1      43.013 -17.671   2.583  1.00  0.00     0.256 C 
BRANCH   3   4
HETATM    4  C   UNL     1      41.683 -17.492   3.361  1.00  0.00     0.036 C 
HETATM    5  C   UNL     1      41.817 -16.911   4.766  1.00  0.00     0.007 C 
ENDBRANCH   3   4
BRANCH   3   6
HETATM    6  C   UNL     1      43.517 -19.108   2.686  1.00  0.00     0.013 A 
HETATM    7  C   UNL     1      44.336 -19.462   3.772  1.00  0.00     0.127 A 
HETATM    8  F   UNL     1      44.671 -18.534   4.681  1.00  0.00    -0.205 F 
HETATM    9  C   UNL     1      44.812 -20.757   3.945  1.00  0.00     0.085 A 
HETATM   10  C   UNL     1      44.473 -21.723   3.012  1.00  0.00     0.119 A 
HETATM   11  F   UNL     1      44.923 -22.976   3.164  1.00  0.00    -0.206 F 
HETATM   12  C   UNL     1      43.669 -21.414   1.921  1.00  0.00     0.043 A 
HETATM   13  C   UNL     1      43.189 -20.111   1.757  1.00  0.00     0.015 A 
ENDBRANCH   3   6
ENDBRANCH   1   3
BRANCH   1  14
HETATM   14  C   UNL     1      41.530 -17.126   0.709  1.00  0.00     0.372 C 
BRANCH  14  15
HETATM   15  C   UNL     1      41.256 -15.750   0.083  1.00  0.00     0.250 C 
HETATM   16  N   UNL     1      41.384 -15.767  -1.289  1.00  0.00    -0.322 N 
HETATM   17  H   UNL     1      41.699 -16.654  -1.673  1.00  0.00     0.169 HD
HETATM   18  O   UNL     1      41.001 -14.783   0.791  1.00  0.00    -0.271 OA
BRANCH  16  19
HETATM   19  C   UNL     1      41.137 -14.740  -2.180  1.00  0.00     0.085 A 
HETATM   20  C   UNL     1      41.587 -13.390  -2.281  1.00  0.00     0.079 A 
HETATM   21  C   UNL     1      42.498 -12.607  -1.409  1.00  0.00     0.075 C 
HETATM   22  N   UNL     1      41.039 -12.771  -3.339  1.00  0.00    -0.177 NA
HETATM   23  N   UNL     1      40.261 -13.700  -3.900  1.00  0.00    -0.280 N 
HETATM   24  H   UNL     1      39.744 -13.444  -4.734  1.00  0.00     0.189 HD
HETATM   25  C   UNL     1      40.268 -14.897  -3.245  1.00  0.00     0.052 A 
HETATM   26  C   UNL     1      39.459 -16.046  -3.714  1.00  0.00     0.072 C 
ENDBRANCH  16  19
ENDBRANCH  14  15
ENDBRANCH   1  14
TORSDOF 6
ENDMDL
MODEL 5
REMARK VINA RESULT:      -7.3      1.889      3.240
REMARK  6 active torsions:
REMARK  status: ('A' for Active; 'I' for Inactive)
REMARK    1  A    between atoms: C_2  and  C_3 
REMARK    2  A    between atoms: C_3  and  N_4 
REMARK    3  A    between atoms: C_3  and  C_17 
REMARK    4  A    between atoms: N_4  and  C_5 
REMARK    5  A    between atoms: C_5  and  C_6 
REMARK       I    between atoms: C_6  and  N_7 
REMARK    6  A    between atoms: N_7  and  C_8 
ROOT
HETATM    1  N   UNL     1      42.172 -17.511   6.398  1.00  0.00     0.101 N 
HETATM    2  H   UNL     1      42.050 -16.605   6.854  1.00  0.00     0.317 HD
ENDROOT
BRANCH   1   3
HETATM    3  C   UNL     1      43.517 -17.549   5.786  1.00  0.00     0.256 C 
BRANCH   3   4
HETATM    4  C   UNL     1      44.594 -16.822   6.633  1.00  0.00     0.036 C 
HETATM    5  C   UNL     1      44.336 -15.340   6.891  1.00  0.00     0.007 C 
ENDBRANCH   3   4
BRANCH   3   6
HETATM    6  C   UNL     1      43.952 -18.974   5.455  1.00  0.00     0.013 A 
HETATM    7  C   UNL     1      43.903 -19.948   6.467  1.00  0.00     0.127 A 
HETATM    8  F   UNL     1      43.496 -19.607   7.698  1.00  0.00    -0.205 F 
HETATM    9  C   UNL     1      44.259 -21.272   6.233  1.00  0.00     0.085 A 
HETATM   10  C   UNL     1      44.681 -21.636   4.966  1.00  0.00     0.119 A 
HETATM   11  F   UNL     1      45.028 -22.907   4.724  1.00  0.00    -0.206 F 
HETATM   12  C   UNL     1      44.748 -20.703   3.937  1.00  0.00     0.043 A 
HETATM   13  C   UNL     1      44.383 -19.374   4.178  1.00  0.00     0.015 A 
ENDBRANCH   3   6
ENDBRANCH   1   3
BRANCH   1  14
HETATM   14  C   UNL     1      41.101 -17.653   5.383  1.00  0.00     0.372 C 
BRANCH  14  15
HETATM   15  C   UNL     1      41.254 -16.589   4.286  1.00  0.00     0.250 C 
HETATM   16  N   UNL     1      41.312 -17.145   3.025  1.00  0.00    -0.322 N 
HETATM   17  H   UNL     1      41.312 -18.161   3.012  1.00  0.00     0.169 HD
HETATM   18  O   UNL     1      41.350 -15.403   4.577  1.00  0.00    -0.271 OA
BRANCH  16  19
HETATM   19  C   UNL     1      41.368 -16.491   1.809  1.00  0.00     0.085 A 
HETATM   20  C   UNL     1      40.523 -15.548   1.154  1.00  0.00     0.079 A 
HETATM   21  C   UNL     1      39.234 -14.946   1.581  1.00  0.00     0.075 C 
HETATM   22  N   UNL     1      41.008 -15.212  -0.052  1.00  0.00    -0.177 NA
HETATM   23  N   UNL     1      42.134 -15.921  -0.165  1.00  0.00    -0.280 N 
HETATM   24  H   UNL     1      42.677 -15.816  -1.015  1.00  0.00     0.189 HD
HETATM   25  C   UNL     1      42.398 -16.715   0.914  1.00  0.00     0.052 A 
HETATM   26  C   UNL     1      43.599 -17.580   0.967  1.00  0.00     0.072 C 
ENDBRANCH  16  19
ENDBRANCH  14  15
ENDBRANCH   1  14
TORSDOF 6
ENDMDL
MODEL 6
REMARK VINA RESULT:      -7.3      2.925      4.682
REMARK  6 active torsions:
REMARK  status: ('A' for Active; 'I' for Inactive)
REMARK    1  A    between atoms: C_2  and  C_3 
REMARK    2  A    between atoms: C_3  and  N_4 
REMARK    3  A    between atoms: C_3  and  C_17 
REMARK    4  A    between atoms: N_4  and  C_5 
REMARK    5  A    between atoms: C_5  and  C_6 
REMARK       I    between atoms: C_6  and  N_7 
REMARK    6  A    between atoms: N_7  and  C_8 
ROOT
HETATM    1  N   UNL     1      44.131 -18.125   2.342  1.00  0.00     0.101 N 
HETATM    2  H   UNL     1      44.878 -18.529   1.774  1.00  0.00     0.317 HD
ENDROOT
BRANCH   1   3
HETATM    3  C   UNL     1      43.662 -19.151   3.298  1.00  0.00     0.256 C 
BRANCH   3   4
HETATM    4  C   UNL     1      44.401 -20.507   3.150  1.00  0.00     0.036 C 
HETATM    5  C   UNL     1      43.995 -21.347   1.942  1.00  0.00     0.007 C 
ENDBRANCH   3   4
BRANCH   3   6
HETATM    6  C   UNL     1      43.718 -18.653   4.740  1.00  0.00     0.013 A 
HETATM    7  C   UNL     1      42.526 -18.237   5.358  1.00  0.00     0.127 A 
HETATM    8  F   UNL     1      41.375 -18.268   4.670  1.00  0.00    -0.205 F 
HETATM    9  C   UNL     1      42.495 -17.795   6.676  1.00  0.00     0.085 A 
HETATM   10  C   UNL     1      43.677 -17.758   7.396  1.00  0.00     0.119 A 
HETATM   11  F   UNL     1      43.665 -17.336   8.667  1.00  0.00    -0.206 F 
HETATM   12  C   UNL     1      44.879 -18.157   6.821  1.00  0.00     0.043 A 
HETATM   13  C   UNL     1      44.901 -18.606   5.497  1.00  0.00     0.015 A 
ENDBRANCH   3   6
ENDBRANCH   1   3
BRANCH   1  14
HETATM   14  C   UNL     1      43.050 -17.693   1.425  1.00  0.00     0.372 C 
BRANCH  14  15
HETATM   15  C   UNL     1      42.276 -16.509   2.024  1.00  0.00     0.250 C 
HETATM   16  N   UNL     1      43.116 -15.531   2.512  1.00  0.00    -0.322 N 
HETATM   17  H   UNL     1      44.104 -15.762   2.465  1.00  0.00     0.169 HD
HETATM   18  O   UNL     1      41.052 -16.523   2.067  1.00  0.00    -0.271 OA
BRANCH  16  19
HETATM   19  C   UNL     1      42.772 -14.303   3.044  1.00  0.00     0.085 A 
HETATM   20  C   UNL     1      42.790 -13.756   4.361  1.00  0.00     0.079 A 
HETATM   21  C   UNL     1      43.186 -14.366   5.655  1.00  0.00     0.075 C 
HETATM   22  N   UNL     1      42.335 -12.493   4.372  1.00  0.00    -0.177 NA
HETATM   23  N   UNL     1      42.035 -12.238   3.096  1.00  0.00    -0.280 N 
HETATM   24  H   UNL     1      41.670 -11.319   2.869  1.00  0.00     0.189 HD
HETATM   25  C   UNL     1      42.265 -13.287   2.253  1.00  0.00     0.052 A 
HETATM   26  C   UNL     1      41.984 -13.196   0.802  1.00  0.00     0.072 C 
ENDBRANCH  16  19
ENDBRANCH  14  15
ENDBRANCH   1  14
TORSDOF 6
ENDMDL
MODEL 7
REMARK VINA RESULT:      -7.3      3.059      3.931
REMARK  6 active torsions:
REMARK  status: ('A' for Active; 'I' for Inactive)
REMARK    1  A    between atoms: C_2  and  C_3 
REMARK    2  A    between atoms: C_3  and  N_4 
REMARK    3  A    between atoms: C_3  and  C_17 
REMARK    4  A    between atoms: N_4  and  C_5 
REMARK    5  A    between atoms: C_5  and  C_6 
REMARK       I    between atoms: C_6  and  N_7 
REMARK    6  A    between atoms: N_7  and  C_8 
ROOT
HETATM    1  N   UNL     1      43.419 -16.532   2.136  1.00  0.00     0.101 N 
HETATM    2  H   UNL     1      43.356 -17.121   1.304  1.00  0.00     0.317 HD
ENDROOT
BRANCH   1   3
HETATM    3  C   UNL     1      43.173 -17.374   3.326  1.00  0.00     0.256 C 
BRANCH   3   4
HETATM    4  C   UNL     1      41.707 -17.306   3.830  1.00  0.00     0.036 C 
HETATM    5  C   UNL     1      41.510 -17.585   5.317  1.00  0.00     0.007 C 
ENDBRANCH   3   4
BRANCH   3   6
HETATM    6  C   UNL     1      43.606 -18.819   3.100  1.00  0.00     0.013 A 
HETATM    7  C   UNL     1      44.445 -19.431   4.048  1.00  0.00     0.127 A 
HETATM    8  F   UNL     1      44.860 -18.733   5.116  1.00  0.00    -0.205 F 
HETATM    9  C   UNL     1      44.860 -20.752   3.922  1.00  0.00     0.085 A 
HETATM   10  C   UNL     1      44.439 -21.482   2.823  1.00  0.00     0.119 A 
HETATM   11  F   UNL     1      44.829 -22.756   2.686  1.00  0.00    -0.206 F 
HETATM   12  C   UNL     1      43.612 -20.915   1.860  1.00  0.00     0.043 A 
HETATM   13  C   UNL     1      43.194 -19.587   1.997  1.00  0.00     0.015 A 
ENDBRANCH   3   6
ENDBRANCH   1   3
BRANCH   1  14
HETATM   14  C   UNL     1      42.408 -15.457   2.005  1.00  0.00     0.372 C 
BRANCH  14  15
HETATM   15  C   UNL     1      41.520 -15.699   0.774  1.00  0.00     0.250 C 
HETATM   16  N   UNL     1      40.737 -14.606   0.472  1.00  0.00    -0.322 N 
HETATM   17  H   UNL     1      40.811 -13.838   1.134  1.00  0.00     0.169 HD
HETATM   18  O   UNL     1      41.531 -16.783   0.202  1.00  0.00    -0.271 OA
BRANCH  16  19
HETATM   19  C   UNL     1      39.885 -14.440  -0.603  1.00  0.00     0.085 A 
HETATM   20  C   UNL     1      40.061 -14.471  -2.018  1.00  0.00     0.079 A 
HETATM   21  C   UNL     1      41.282 -14.683  -2.835  1.00  0.00     0.075 C 
HETATM   22  N   UNL     1      38.906 -14.232  -2.659  1.00  0.00    -0.177 NA
HETATM   23  N   UNL     1      38.015 -14.055  -1.681  1.00  0.00    -0.280 N 
HETATM   24  H   UNL     1      37.054 -13.862  -1.944  1.00  0.00     0.189 HD
HETATM   25  C   UNL     1      38.543 -14.156  -0.426  1.00  0.00     0.052 A 
HETATM   26  C   UNL     1      37.709 -13.981   0.785  1.00  0.00     0.072 C 
ENDBRANCH  16  19
ENDBRANCH  14  15
ENDBRANCH   1  14
TORSDOF 6
ENDMDL
MODEL 8
REMARK VINA RESULT:      -7.1      2.582      3.673
REMARK  6 active torsions:
REMARK  status: ('A' for Active; 'I' for Inactive)
REMARK    1  A    between atoms: C_2  and  C_3 
REMARK    2  A    between atoms: C_3  and  N_4 
REMARK    3  A    between atoms: C_3  and  C_17 
REMARK    4  A    between atoms: N_4  and  C_5 
REMARK    5  A    between atoms: C_5  and  C_6 
REMARK       I    between atoms: C_6  and  N_7 
REMARK    6  A    between atoms: N_7  and  C_8 
ROOT
HETATM    1  N   UNL     1      42.694 -16.312   3.284  1.00  0.00     0.101 N 
HETATM    2  H   UNL     1      42.672 -16.754   2.364  1.00  0.00     0.317 HD
ENDROOT
BRANCH   1   3
HETATM    3  C   UNL     1      43.046 -17.339   4.288  1.00  0.00     0.256 C 
BRANCH   3   4
HETATM    4  C   UNL     1      41.917 -17.593   5.322  1.00  0.00     0.036 C 
HETATM    5  C   UNL     1      42.290 -17.330   6.779  1.00  0.00     0.007 C 
ENDBRANCH   3   4
BRANCH   3   6
HETATM    6  C   UNL     1      43.494 -18.643   3.636  1.00  0.00     0.013 A 
HETATM    7  C   UNL     1      44.439 -19.443   4.301  1.00  0.00     0.127 A 
HETATM    8  F   UNL     1      44.939 -19.040   5.478  1.00  0.00    -0.205 F 
HETATM    9  C   UNL     1      44.875 -20.656   3.780  1.00  0.00     0.085 A 
HETATM   10  C   UNL     1      44.366 -21.082   2.565  1.00  0.00     0.119 A 
HETATM   11  F   UNL     1      44.776 -22.249   2.048  1.00  0.00    -0.206 F 
HETATM   12  C   UNL     1      43.433 -20.320   1.871  1.00  0.00     0.043 A 
HETATM   13  C   UNL     1      42.994 -19.104   2.405  1.00  0.00     0.015 A 
ENDBRANCH   3   6
ENDBRANCH   1   3
BRANCH   1  14
HETATM   14  C   UNL     1      41.354 -15.732   3.537  1.00  0.00     0.372 C 
BRANCH  14  15
HETATM   15  C   UNL     1      40.463 -15.869   2.293  1.00  0.00     0.250 C 
HETATM   16  N   UNL     1      40.334 -14.679   1.610  1.00  0.00    -0.322 N 
HETATM   17  H   UNL     1      40.783 -13.885   2.058  1.00  0.00     0.169 HD
HETATM   18  O   UNL     1      39.927 -16.938   2.025  1.00  0.00    -0.271 OA
BRANCH  16  19
HETATM   19  C   UNL     1      39.678 -14.450   0.416  1.00  0.00     0.085 A 
HETATM   20  C   UNL     1      38.448 -13.817   0.068  1.00  0.00     0.079 A 
HETATM   21  C   UNL     1      37.413 -13.182   0.923  1.00  0.00     0.075 C 
HETATM   22  N   UNL     1      38.233 -13.861  -1.256  1.00  0.00    -0.177 NA
HETATM   23  N   UNL     1      39.297 -14.504  -1.743  1.00  0.00    -0.280 N 
HETATM   24  H   UNL     1      39.346 -14.648  -2.746  1.00  0.00     0.189 HD
HETATM   25  C   UNL     1      40.194 -14.892  -0.789  1.00  0.00     0.052 A 
HETATM   26  C   UNL     1      41.432 -15.626  -1.138  1.00  0.00     0.072 C 
ENDBRANCH  16  19
ENDBRANCH  14  15
ENDBRANCH   1  14
TORSDOF 6
ENDMDL
MODEL 9
REMARK VINA RESULT:      -7.0      1.698      2.115
REMARK  6 active torsions:
REMARK  status: ('A' for Active; 'I' for Inactive)
REMARK    1  A    between atoms: C_2  and  C_3 
REMARK    2  A    between atoms: C_3  and  N_4 
REMARK    3  A    between atoms: C_3  and  C_17 
REMARK    4  A    between atoms: N_4  and  C_5 
REMARK    5  A    between atoms: C_5  and  C_6 
REMARK       I    between atoms: C_6  and  N_7 
REMARK    6  A    between atoms: N_7  and  C_8 
ROOT
HETATM    1  N   UNL     1      42.829 -17.407   6.030  1.00  0.00     0.101 N 
HETATM    2  H   UNL     1      42.577 -17.884   6.897  1.00  0.00     0.317 HD
ENDROOT
BRANCH   1   3
HETATM    3  C   UNL     1      44.215 -17.780   5.676  1.00  0.00     0.256 C 
BRANCH   3   4
HETATM    4  C   UNL     1      45.070 -18.189   6.904  1.00  0.00     0.036 C 
HETATM    5  C   UNL     1      44.281 -18.603   8.144  1.00  0.00     0.007 C 
ENDBRANCH   3   4
BRANCH   3   6
HETATM    6  C   UNL     1      44.256 -18.859   4.598  1.00  0.00     0.013 A 
HETATM    7  C   UNL     1      43.979 -18.498   3.267  1.00  0.00     0.127 A 
HETATM    8  F   UNL     1      43.669 -17.227   2.976  1.00  0.00    -0.205 F 
HETATM    9  C   UNL     1      44.022 -19.422   2.229  1.00  0.00     0.085 A 
HETATM   10  C   UNL     1      44.341 -20.738   2.518  1.00  0.00     0.119 A 
HETATM   11  F   UNL     1      44.387 -21.640   1.530  1.00  0.00    -0.206 F 
HETATM   12  C   UNL     1      44.617 -21.139   3.821  1.00  0.00     0.043 A 
HETATM   13  C   UNL     1      44.578 -20.203   4.860  1.00  0.00     0.015 A 
ENDBRANCH   3   6
ENDBRANCH   1   3
BRANCH   1  14
HETATM   14  C   UNL     1      42.693 -15.949   6.261  1.00  0.00     0.372 C 
BRANCH  14  15
HETATM   15  C   UNL     1      42.330 -15.228   4.954  1.00  0.00     0.250 C 
HETATM   16  N   UNL     1      41.151 -15.693   4.412  1.00  0.00    -0.322 N 
HETATM   17  H   UNL     1      40.737 -16.475   4.912  1.00  0.00     0.169 HD
HETATM   18  O   UNL     1      43.075 -14.376   4.484  1.00  0.00    -0.271 OA
BRANCH  16  19
HETATM   19  C   UNL     1      40.485 -15.226   3.295  1.00  0.00     0.085 A 
HETATM   20  C   UNL     1      40.305 -15.725   1.972  1.00  0.00     0.079 A 
HETATM   21  C   UNL     1      40.814 -16.962   1.328  1.00  0.00     0.075 C 
HETATM   22  N   UNL     1      39.573 -14.881   1.227  1.00  0.00    -0.177 NA
HETATM   23  N   UNL     1      39.292 -13.870   2.052  1.00  0.00    -0.280 N 
HETATM   24  H   UNL     1      38.732 -13.104   1.691  1.00  0.00     0.189 HD
HETATM   25  C   UNL     1      39.820 -14.013   3.303  1.00  0.00     0.052 A 
HETATM   26  C   UNL     1      39.622 -12.988   4.353  1.00  0.00     0.072 C 
ENDBRANCH  16  19
ENDBRANCH  14  15
ENDBRANCH   1  14
TORSDOF 6
ENDMDL
MODEL 10
REMARK VINA RESULT:      -7.0      2.527      3.577
REMARK  6 active torsions:
REMARK  status: ('A' for Active; 'I' for Inactive)
REMARK    1  A    between atoms: C_2  and  C_3 
REMARK    2  A    between atoms: C_3  and  N_4 
REMARK    3  A    between atoms: C_3  and  C_17 
REMARK    4  A    between atoms: N_4  and  C_5 
REMARK    5  A    between atoms: C_5  and  C_6 
REMARK       I    between atoms: C_6  and  N_7 
REMARK    6  A    between atoms: N_7  and  C_8 
ROOT
HETATM    1  N   UNL     1      42.376 -17.939   6.024  1.00  0.00     0.101 N 
HETATM    2  H   UNL     1      42.361 -18.708   6.695  1.00  0.00     0.317 HD
ENDROOT
BRANCH   1   3
HETATM    3  C   UNL     1      43.701 -17.916   5.368  1.00  0.00     0.256 C 
BRANCH   3   4
HETATM    4  C   UNL     1      44.880 -18.029   6.370  1.00  0.00     0.036 C 
HETATM    5  C   UNL     1      44.535 -18.645   7.722  1.00  0.00     0.007 C 
ENDBRANCH   3   4
BRANCH   3   6
HETATM    6  C   UNL     1      43.812 -18.971   4.271  1.00  0.00     0.013 A 
HETATM    7  C   UNL     1      43.104 -18.778   3.072  1.00  0.00     0.127 A 
HETATM    8  F   UNL     1      42.337 -17.688   2.922  1.00  0.00    -0.205 F 
HETATM    9  C   UNL     1      43.177 -19.684   2.020  1.00  0.00     0.085 A 
HETATM   10  C   UNL     1      43.965 -20.813   2.164  1.00  0.00     0.119 A 
HETATM   11  F   UNL     1      44.046 -21.696   1.159  1.00  0.00    -0.206 F 
HETATM   12  C   UNL     1      44.678 -21.045   3.335  1.00  0.00     0.043 A 
HETATM   13  C   UNL     1      44.605 -20.126   4.387  1.00  0.00     0.015 A 
ENDBRANCH   3   6
ENDBRANCH   1   3
BRANCH   1  14
HETATM   14  C   UNL     1      42.109 -16.685   6.768  1.00  0.00     0.372 C 
BRANCH  14  15
HETATM   15  C   UNL     1      41.530 -15.615   5.829  1.00  0.00     0.250 C 
HETATM   16  N   UNL     1      42.001 -14.353   6.124  1.00  0.00    -0.322 N 
HETATM   17  H   UNL     1      42.600 -14.307   6.944  1.00  0.00     0.169 HD
HETATM   18  O   UNL     1      40.713 -15.918   4.968  1.00  0.00    -0.271 OA
BRANCH  16  19
HETATM   19  C   UNL     1      41.758 -13.175   5.445  1.00  0.00     0.085 A 
HETATM   20  C   UNL     1      40.931 -12.041   5.699  1.00  0.00     0.079 A 
HETATM   21  C   UNL     1      40.004 -11.753   6.822  1.00  0.00     0.075 C 
HETATM   22  N   UNL     1      41.027 -11.135   4.712  1.00  0.00    -0.177 NA
HETATM   23  N   UNL     1      41.893 -11.675   3.851  1.00  0.00    -0.280 N 
HETATM   24  H   UNL     1      42.121 -11.148   3.014  1.00  0.00     0.189 HD
HETATM   25  C   UNL     1      42.358 -12.902   4.229  1.00  0.00     0.052 A 
HETATM   26  C   UNL     1      43.320 -13.660   3.396  1.00  0.00     0.072 C 
ENDBRANCH  16  19
ENDBRANCH  14  15
ENDBRANCH   1  14
TORSDOF 6
ENDMDL
