MODEL 1
REMARK VINA RESULT:      -7.5      0.000      0.000
REMARK  10 active torsions:
REMARK  status: ('A' for Active; 'I' for Inactive)
REMARK    1  A    between atoms: C_2  and  C_3 
REMARK    2  A    between atoms: C_3  and  C_4 
REMARK       I    between atoms: C_4  and  N_5 
REMARK    3  A    between atoms: N_5  and  C_6 
REMARK    4  A    between atoms: C_6  and  N_7 
REMARK    5  A    between atoms: C_6  and  C_21 
REMARK    6  A    between atoms: N_7  and  C_8 
REMARK    7  A    between atoms: C_8  and  N_9 
REMARK    8  A    between atoms: N_9  and  N_10 
REMARK       I    between atoms: N_10  and  C_11 
REMARK    9  A    between atoms: C_11  and  C_12 
REMARK   10  A    between atoms: C_13  and  O_14 
ROOT
HETATM    1  C   UNL     1      43.893 -16.009   6.682  1.00  0.00     0.188 C 
HETATM    2  S   UNL     1      43.293 -17.044   7.854  1.00  0.00    -0.039 SA
ENDROOT
BRANCH   1   3
HETATM    3  N   UNL     1      43.659 -16.321   5.384  1.00  0.00    -0.341 N 
HETATM    4  H   UNL     1      44.444 -16.132   4.764  1.00  0.00     0.164 HD
BRANCH   3   5
HETATM    5  C   UNL     1      42.414 -16.606   4.679  1.00  0.00     0.241 C 
BRANCH   5   6
HETATM    6  N   UNL     1      42.738 -17.472   3.549  1.00  0.00    -0.336 N 
HETATM    7  C   UNL     1      43.337 -18.696   3.674  1.00  0.00     0.219 C 
HETATM    8  O   UNL     1      43.644 -19.173   4.759  1.00  0.00    -0.274 OA
HETATM    9  H   UNL     1      42.392 -17.198   2.638  1.00  0.00     0.164 HD
BRANCH   7  10
HETATM   10  C   UNL     1      43.565 -19.432   2.370  1.00  0.00     0.102 C 
BRANCH  10  11
HETATM   11  C   UNL     1      44.399 -20.699   2.539  1.00  0.00     0.005 C 
HETATM   12  C   UNL     1      43.960 -21.839   1.630  1.00  0.00     0.005 C 
ENDBRANCH  10  11
ENDBRANCH   7  10
ENDBRANCH   5   6
BRANCH   5  13
HETATM   13  C   UNL     1      41.491 -15.336   4.395  1.00  0.00     0.226 C 
HETATM   14 CL   UNL     1      40.417 -15.620   2.975  1.00  0.00    -0.080 Cl
HETATM   15 CL   UNL     1      40.398 -15.065   5.817  1.00  0.00    -0.080 Cl
HETATM   16 CL   UNL     1      42.395 -13.809   4.150  1.00  0.00    -0.080 Cl
ENDBRANCH   5  13
ENDBRANCH   3   5
ENDBRANCH   1   3
BRANCH   1  17
HETATM   17  N   UNL     1      44.613 -14.876   6.947  1.00  0.00    -0.274 N 
HETATM   18  H   UNL     1      45.262 -14.465   6.281  1.00  0.00     0.189 HD
BRANCH  17  19
HETATM   19  N   UNL     1      44.166 -13.961   7.911  1.00  0.00    -0.264 N 
HETATM   20  C   UNL     1      45.000 -12.918   8.255  1.00  0.00     0.272 C 
HETATM   21  O   UNL     1      46.140 -12.806   7.802  1.00  0.00    -0.266 OA
HETATM   22  H   UNL     1      43.264 -14.151   8.341  1.00  0.00     0.190 HD
BRANCH  20  23
HETATM   23  C   UNL     1      44.487 -11.928   9.237  1.00  0.00     0.066 A 
HETATM   24  C   UNL     1      43.275 -11.267   8.980  1.00  0.00     0.081 A 
HETATM   25  C   UNL     1      42.776 -10.326   9.880  1.00  0.00     0.037 A 
HETATM   26  C   UNL     1      43.471 -10.053  11.058  1.00  0.00     0.003 A 
HETATM   27  C   UNL     1      44.661 -10.722  11.338  1.00  0.00     0.001 A 
HETATM   28  C   UNL     1      45.169 -11.660  10.433  1.00  0.00     0.020 A 
BRANCH  24  29
HETATM   29  O   UNL     1      42.519 -11.492   7.861  1.00  0.00    -0.360 OA
HETATM   30  H   UNL     1      41.604 -11.701   8.148  1.00  0.00     0.217 HD
ENDBRANCH  24  29
ENDBRANCH  20  23
ENDBRANCH  17  19
ENDBRANCH   1  17
TORSDOF 10
ENDMDL
MODEL 2
REMARK VINA RESULT:      -7.4      3.843      7.722
REMARK  10 active torsions:
REMARK  status: ('A' for Active; 'I' for Inactive)
REMARK    1  A    between atoms: C_2  and  C_3 
REMARK    2  A    between atoms: C_3  and  C_4 
REMARK       I    between atoms: C_4  and  N_5 
REMARK    3  A    between atoms: N_5  and  C_6 
REMARK    4  A    between atoms: C_6  and  N_7 
REMARK    5  A    between atoms: C_6  and  C_21 
REMARK    6  A    between atoms: N_7  and  C_8 
REMARK    7  A    between atoms: C_8  and  N_9 
REMARK    8  A    between atoms: N_9  and  N_10 
REMARK       I    between atoms: N_10  and  C_11 
REMARK    9  A    between atoms: C_11  and  C_12 
REMARK   10  A    between atoms: C_13  and  O_14 
ROOT
HETATM    1  C   UNL     1      40.972 -15.530   3.010  1.00  0.00     0.188 C 
HETATM    2  S   UNL     1      39.597 -15.297   2.083  1.00  0.00    -0.039 SA
ENDROOT
BRANCH   1   3
HETATM    3  N   UNL     1      40.938 -15.128   4.304  1.00  0.00    -0.341 N 
HETATM    4  H   UNL     1      40.134 -15.475   4.825  1.00  0.00     0.164 HD
BRANCH   3   5
HETATM    5  C   UNL     1      41.674 -14.077   4.998  1.00  0.00     0.241 C 
BRANCH   5   6
HETATM    6  N   UNL     1      42.272 -14.673   6.190  1.00  0.00    -0.336 N 
HETATM    7  C   UNL     1      43.274 -15.604   6.155  1.00  0.00     0.219 C 
HETATM    8  O   UNL     1      43.762 -16.010   5.107  1.00  0.00    -0.274 OA
HETATM    9  H   UNL     1      42.008 -14.286   7.086  1.00  0.00     0.164 HD
BRANCH   7  10
HETATM   10  C   UNL     1      43.757 -16.075   7.510  1.00  0.00     0.102 C 
BRANCH  10  11
HETATM   11  C   UNL     1      43.120 -17.392   7.946  1.00  0.00     0.005 C 
HETATM   12  C   UNL     1      44.118 -18.535   8.075  1.00  0.00     0.005 C 
ENDBRANCH  10  11
ENDBRANCH   7  10
ENDBRANCH   5   6
BRANCH   5  13
HETATM   13  C   UNL     1      40.883 -12.703   5.178  1.00  0.00     0.226 C 
HETATM   14 CL   UNL     1      40.732 -11.832   3.607  1.00  0.00    -0.080 Cl
HETATM   15 CL   UNL     1      39.192 -13.058   5.730  1.00  0.00    -0.080 Cl
HETATM   16 CL   UNL     1      41.594 -11.597   6.395  1.00  0.00    -0.080 Cl
ENDBRANCH   5  13
ENDBRANCH   3   5
ENDBRANCH   1   3
BRANCH   1  17
HETATM   17  N   UNL     1      42.132 -16.088   2.546  1.00  0.00    -0.274 N 
HETATM   18  H   UNL     1      42.932 -15.535   2.249  1.00  0.00     0.189 HD
BRANCH  17  19
HETATM   19  N   UNL     1      42.474 -17.403   2.892  1.00  0.00    -0.264 N 
HETATM   20  C   UNL     1      43.399 -18.063   2.110  1.00  0.00     0.272 C 
HETATM   21  O   UNL     1      43.875 -17.566   1.089  1.00  0.00    -0.266 OA
HETATM   22  H   UNL     1      41.977 -17.815   3.678  1.00  0.00     0.190 HD
BRANCH  20  23
HETATM   23  C   UNL     1      43.790 -19.435   2.526  1.00  0.00     0.066 A 
HETATM   24  C   UNL     1      44.360 -19.636   3.793  1.00  0.00     0.081 A 
HETATM   25  C   UNL     1      44.744 -20.911   4.203  1.00  0.00     0.037 A 
HETATM   26  C   UNL     1      44.543 -22.004   3.360  1.00  0.00     0.003 A 
HETATM   27  C   UNL     1      43.953 -21.822   2.111  1.00  0.00     0.001 A 
HETATM   28  C   UNL     1      43.574 -20.543   1.692  1.00  0.00     0.020 A 
BRANCH  24  29
HETATM   29  O   UNL     1      44.571 -18.624   4.690  1.00  0.00    -0.360 OA
HETATM   30  H   UNL     1      44.617 -17.779   4.192  1.00  0.00     0.217 HD
ENDBRANCH  24  29
ENDBRANCH  20  23
ENDBRANCH  17  19
ENDBRANCH   1  17
TORSDOF 10
ENDMDL
MODEL 3
REMARK VINA RESULT:      -7.2      4.698      7.477
REMARK  10 active torsions:
REMARK  status: ('A' for Active; 'I' for Inactive)
REMARK    1  A    between atoms: C_2  and  C_3 
REMARK    2  A    between atoms: C_3  and  C_4 
REMARK       I    between atoms: C_4  and  N_5 
REMARK    3  A    between atoms: N_5  and  C_6 
REMARK    4  A    between atoms: C_6  and  N_7 
REMARK    5  A    between atoms: C_6  and  C_21 
REMARK    6  A    between atoms: N_7  and  C_8 
REMARK    7  A    between atoms: C_8  and  N_9 
REMARK    8  A    between atoms: N_9  and  N_10 
REMARK       I    between atoms: N_10  and  C_11 
REMARK    9  A    between atoms: C_11  and  C_12 
REMARK   10  A    between atoms: C_13  and  O_14 
ROOT
HETATM    1  C   UNL     1      41.441 -14.984   4.494  1.00  0.00     0.188 C 
HETATM    2  S   UNL     1      40.198 -14.327   5.404  1.00  0.00    -0.039 SA
ENDROOT
BRANCH   1   3
HETATM    3  N   UNL     1      41.936 -16.187   4.875  1.00  0.00    -0.341 N 
HETATM    4  H   UNL     1      41.271 -16.766   5.384  1.00  0.00     0.164 HD
BRANCH   3   5
HETATM    5  C   UNL     1      43.308 -16.679   4.939  1.00  0.00     0.241 C 
BRANCH   5   6
HETATM    6  N   UNL     1      43.411 -17.811   4.023  1.00  0.00    -0.336 N 
HETATM    7  C   UNL     1      43.614 -17.685   2.675  1.00  0.00     0.219 C 
HETATM    8  O   UNL     1      43.735 -16.597   2.125  1.00  0.00    -0.274 OA
HETATM    9  H   UNL     1      43.452 -18.736   4.429  1.00  0.00     0.164 HD
BRANCH   7  10
HETATM   10  C   UNL     1      43.706 -18.992   1.917  1.00  0.00     0.102 C 
BRANCH  10  11
HETATM   11  C   UNL     1      44.402 -20.094   2.712  1.00  0.00     0.005 C 
HETATM   12  C   UNL     1      44.234 -21.479   2.104  1.00  0.00     0.005 C 
ENDBRANCH  10  11
ENDBRANCH   7  10
ENDBRANCH   5   6
BRANCH   5  13
HETATM   13  C   UNL     1      43.892 -16.866   6.412  1.00  0.00     0.226 C 
HETATM   14 CL   UNL     1      45.282 -18.014   6.417  1.00  0.00    -0.080 Cl
HETATM   15 CL   UNL     1      44.540 -15.276   7.001  1.00  0.00    -0.080 Cl
HETATM   16 CL   UNL     1      42.684 -17.402   7.621  1.00  0.00    -0.080 Cl
ENDBRANCH   5  13
ENDBRANCH   3   5
ENDBRANCH   1   3
BRANCH   1  17
HETATM   17  N   UNL     1      41.998 -14.382   3.398  1.00  0.00    -0.274 N 
HETATM   18  H   UNL     1      42.968 -14.079   3.367  1.00  0.00     0.189 HD
BRANCH  17  19
HETATM   19  N   UNL     1      41.444 -14.577   2.125  1.00  0.00    -0.264 N 
HETATM   20  C   UNL     1      41.785 -13.690   1.125  1.00  0.00     0.272 C 
HETATM   21  O   UNL     1      42.494 -12.705   1.328  1.00  0.00    -0.266 OA
HETATM   22  H   UNL     1      40.778 -15.339   2.026  1.00  0.00     0.190 HD
BRANCH  20  23
HETATM   23  C   UNL     1      41.233 -13.946  -0.231  1.00  0.00     0.066 A 
HETATM   24  C   UNL     1      41.385 -15.216  -0.810  1.00  0.00     0.081 A 
HETATM   25  C   UNL     1      40.885 -15.479  -2.084  1.00  0.00     0.037 A 
HETATM   26  C   UNL     1      40.207 -14.482  -2.785  1.00  0.00     0.003 A 
HETATM   27  C   UNL     1      40.024 -13.225  -2.211  1.00  0.00     0.001 A 
HETATM   28  C   UNL     1      40.533 -12.955  -0.936  1.00  0.00     0.020 A 
BRANCH  24  29
HETATM   29  O   UNL     1      42.016 -16.256  -0.183  1.00  0.00    -0.360 OA
HETATM   30  H   UNL     1      41.397 -16.636   0.477  1.00  0.00     0.217 HD
ENDBRANCH  24  29
ENDBRANCH  20  23
ENDBRANCH  17  19
ENDBRANCH   1  17
TORSDOF 10
ENDMDL
MODEL 4
REMARK VINA RESULT:      -7.1      4.645      5.967
REMARK  10 active torsions:
REMARK  status: ('A' for Active; 'I' for Inactive)
REMARK    1  A    between atoms: C_2  and  C_3 
REMARK    2  A    between atoms: C_3  and  C_4 
REMARK       I    between atoms: C_4  and  N_5 
REMARK    3  A    between atoms: N_5  and  C_6 
REMARK    4  A    between atoms: C_6  and  N_7 
REMARK    5  A    between atoms: C_6  and  C_21 
REMARK    6  A    between atoms: N_7  and  C_8 
REMARK    7  A    between atoms: C_8  and  N_9 
REMARK    8  A    between atoms: N_9  and  N_10 
REMARK       I    between atoms: N_10  and  C_11 
REMARK    9  A    between atoms: C_11  and  C_12 
REMARK   10  A    between atoms: C_13  and  O_14 
ROOT
HETATM    1  C   UNL     1      39.913 -14.675   1.682  1.00  0.00     0.188 C 
HETATM    2  S   UNL     1      40.332 -13.056   1.764  1.00  0.00    -0.039 SA
ENDROOT
BRANCH   1   3
HETATM    3  N   UNL     1      39.871 -15.255   0.457  1.00  0.00    -0.341 N 
HETATM    4  H   UNL     1      39.040 -15.821   0.294  1.00  0.00     0.164 HD
BRANCH   3   5
HETATM    5  C   UNL     1      40.913 -15.445  -0.546  1.00  0.00     0.241 C 
BRANCH   5   6
HETATM    6  N   UNL     1      42.154 -15.748   0.162  1.00  0.00    -0.336 N 
HETATM    7  C   UNL     1      42.335 -16.857   0.943  1.00  0.00     0.219 C 
HETATM    8  O   UNL     1      41.461 -17.700   1.106  1.00  0.00    -0.274 OA
HETATM    9  H   UNL     1      42.956 -15.164  -0.035  1.00  0.00     0.164 HD
BRANCH   7  10
HETATM   10  C   UNL     1      43.708 -16.980   1.570  1.00  0.00     0.102 C 
BRANCH  10  11
HETATM   11  C   UNL     1      43.926 -18.319   2.270  1.00  0.00     0.005 C 
HETATM   12  C   UNL     1      43.809 -18.238   3.785  1.00  0.00     0.005 C 
ENDBRANCH  10  11
ENDBRANCH   7  10
ENDBRANCH   5   6
BRANCH   5  13
HETATM   13  C   UNL     1      40.966 -14.330  -1.686  1.00  0.00     0.226 C 
HETATM   14 CL   UNL     1      42.314 -13.169  -1.394  1.00  0.00    -0.080 Cl
HETATM   15 CL   UNL     1      41.313 -15.125  -3.280  1.00  0.00    -0.080 Cl
HETATM   16 CL   UNL     1      39.440 -13.417  -1.895  1.00  0.00    -0.080 Cl
ENDBRANCH   5  13
ENDBRANCH   3   5
ENDBRANCH   1   3
BRANCH   1  17
HETATM   17  N   UNL     1      39.599 -15.449   2.766  1.00  0.00    -0.274 N 
HETATM   18  H   UNL     1      38.759 -16.020   2.813  1.00  0.00     0.189 HD
BRANCH  17  19
HETATM   19  N   UNL     1      40.604 -15.879   3.644  1.00  0.00    -0.264 N 
HETATM   20  C   UNL     1      40.707 -15.256   4.870  1.00  0.00     0.272 C 
HETATM   21  O   UNL     1      40.001 -14.298   5.187  1.00  0.00    -0.266 OA
HETATM   22  H   UNL     1      41.235 -16.599   3.302  1.00  0.00     0.190 HD
BRANCH  20  23
HETATM   23  C   UNL     1      41.741 -15.764   5.809  1.00  0.00     0.066 A 
HETATM   24  C   UNL     1      42.900 -15.005   6.036  1.00  0.00     0.081 A 
HETATM   25  C   UNL     1      43.889 -15.463   6.905  1.00  0.00     0.037 A 
HETATM   26  C   UNL     1      43.719 -16.675   7.575  1.00  0.00     0.003 A 
HETATM   27  C   UNL     1      42.561 -17.424   7.381  1.00  0.00     0.001 A 
HETATM   28  C   UNL     1      41.571 -16.972   6.502  1.00  0.00     0.020 A 
BRANCH  24  29
HETATM   29  O   UNL     1      43.135 -13.796   5.438  1.00  0.00    -0.360 OA
HETATM   30  H   UNL     1      43.137 -13.932   4.465  1.00  0.00     0.217 HD
ENDBRANCH  24  29
ENDBRANCH  20  23
ENDBRANCH  17  19
ENDBRANCH   1  17
TORSDOF 10
ENDMDL
MODEL 5
REMARK VINA RESULT:      -7.0      4.457      5.757
REMARK  10 active torsions:
REMARK  status: ('A' for Active; 'I' for Inactive)
REMARK    1  A    between atoms: C_2  and  C_3 
REMARK    2  A    between atoms: C_3  and  C_4 
REMARK       I    between atoms: C_4  and  N_5 
REMARK    3  A    between atoms: N_5  and  C_6 
REMARK    4  A    between atoms: C_6  and  N_7 
REMARK    5  A    between atoms: C_6  and  C_21 
REMARK    6  A    between atoms: N_7  and  C_8 
REMARK    7  A    between atoms: C_8  and  N_9 
REMARK    8  A    between atoms: N_9  and  N_10 
REMARK       I    between atoms: N_10  and  C_11 
REMARK    9  A    between atoms: C_11  and  C_12 
REMARK   10  A    between atoms: C_13  and  O_14 
ROOT
HETATM    1  C   UNL     1      40.093 -13.391   5.149  1.00  0.00     0.188 C 
HETATM    2  S   UNL     1      39.037 -12.093   5.228  1.00  0.00    -0.039 SA
ENDROOT
BRANCH   1   3
HETATM    3  N   UNL     1      40.710 -13.633   3.966  1.00  0.00    -0.341 N 
HETATM    4  H   UNL     1      41.382 -12.918   3.695  1.00  0.00     0.164 HD
BRANCH   3   5
HETATM    5  C   UNL     1      40.386 -14.567   2.894  1.00  0.00     0.241 C 
BRANCH   5   6
HETATM    6  N   UNL     1      41.497 -15.507   2.780  1.00  0.00    -0.336 N 
HETATM    7  C   UNL     1      42.807 -15.128   2.656  1.00  0.00     0.219 C 
HETATM    8  O   UNL     1      43.156 -13.954   2.639  1.00  0.00    -0.274 OA
HETATM    9  H   UNL     1      41.293 -16.488   2.920  1.00  0.00     0.164 HD
BRANCH   7  10
HETATM   10  C   UNL     1      43.797 -16.271   2.571  1.00  0.00     0.102 C 
BRANCH  10  11
HETATM   11  C   UNL     1      43.607 -17.134   1.327  1.00  0.00     0.005 C 
HETATM   12  C   UNL     1      43.586 -18.627   1.623  1.00  0.00     0.005 C 
ENDBRANCH  10  11
ENDBRANCH   7  10
ENDBRANCH   5   6
BRANCH   5  13
HETATM   13  C   UNL     1      39.848 -13.894   1.550  1.00  0.00     0.226 C 
HETATM   14 CL   UNL     1      38.070 -14.130   1.375  1.00  0.00    -0.080 Cl
HETATM   15 CL   UNL     1      40.120 -12.102   1.632  1.00  0.00    -0.080 Cl
HETATM   16 CL   UNL     1      40.665 -14.466   0.062  1.00  0.00    -0.080 Cl
ENDBRANCH   5  13
ENDBRANCH   3   5
ENDBRANCH   1   3
BRANCH   1  17
HETATM   17  N   UNL     1      40.366 -14.230   6.195  1.00  0.00    -0.274 N 
HETATM   18  H   UNL     1      39.651 -14.570   6.833  1.00  0.00     0.189 HD
BRANCH  17  19
HETATM   19  N   UNL     1      41.510 -15.040   6.173  1.00  0.00    -0.264 N 
HETATM   20  C   UNL     1      41.342 -16.405   6.281  1.00  0.00     0.272 C 
HETATM   21  O   UNL     1      40.241 -16.924   6.466  1.00  0.00    -0.266 OA
HETATM   22  H   UNL     1      42.409 -14.566   6.129  1.00  0.00     0.190 HD
BRANCH  20  23
HETATM   23  C   UNL     1      42.561 -17.252   6.199  1.00  0.00     0.066 A 
HETATM   24  C   UNL     1      43.651 -16.976   7.039  1.00  0.00     0.081 A 
HETATM   25  C   UNL     1      44.809 -17.749   6.975  1.00  0.00     0.037 A 
HETATM   26  C   UNL     1      44.882 -18.821   6.086  1.00  0.00     0.003 A 
HETATM   27  C   UNL     1      43.797 -19.123   5.266  1.00  0.00     0.001 A 
HETATM   28  C   UNL     1      42.637 -18.344   5.321  1.00  0.00     0.020 A 
BRANCH  24  29
HETATM   29  O   UNL     1      43.655 -15.958   7.955  1.00  0.00    -0.360 OA
HETATM   30  H   UNL     1      43.985 -15.147   7.510  1.00  0.00     0.217 HD
ENDBRANCH  24  29
ENDBRANCH  20  23
ENDBRANCH  17  19
ENDBRANCH   1  17
TORSDOF 10
ENDMDL
MODEL 6
REMARK VINA RESULT:      -7.0      2.328      3.985
REMARK  10 active torsions:
REMARK  status: ('A' for Active; 'I' for Inactive)
REMARK    1  A    between atoms: C_2  and  C_3 
REMARK    2  A    between atoms: C_3  and  C_4 
REMARK       I    between atoms: C_4  and  N_5 
REMARK    3  A    between atoms: N_5  and  C_6 
REMARK    4  A    between atoms: C_6  and  N_7 
REMARK    5  A    between atoms: C_6  and  C_21 
REMARK    6  A    between atoms: N_7  and  C_8 
REMARK    7  A    between atoms: C_8  and  N_9 
REMARK    8  A    between atoms: N_9  and  N_10 
REMARK       I    between atoms: N_10  and  C_11 
REMARK    9  A    between atoms: C_11  and  C_12 
REMARK   10  A    between atoms: C_13  and  O_14 
ROOT
HETATM    1  C   UNL     1      43.576 -16.622   6.787  1.00  0.00     0.188 C 
HETATM    2  S   UNL     1      43.525 -17.608   8.140  1.00  0.00    -0.039 SA
ENDROOT
BRANCH   1   3
HETATM    3  N   UNL     1      42.907 -17.031   5.682  1.00  0.00    -0.341 N 
HETATM    4  H   UNL     1      42.852 -18.043   5.581  1.00  0.00     0.164 HD
BRANCH   3   5
HETATM    5  C   UNL     1      42.504 -16.302   4.484  1.00  0.00     0.241 C 
BRANCH   5   6
HETATM    6  N   UNL     1      41.245 -15.626   4.785  1.00  0.00    -0.336 N 
HETATM    7  C   UNL     1      41.164 -14.361   5.302  1.00  0.00     0.219 C 
HETATM    8  O   UNL     1      42.154 -13.684   5.548  1.00  0.00    -0.274 OA
HETATM    9  H   UNL     1      40.391 -16.076   4.482  1.00  0.00     0.164 HD
BRANCH   7  10
HETATM   10  C   UNL     1      39.756 -13.849   5.520  1.00  0.00     0.102 C 
BRANCH  10  11
HETATM   11  C   UNL     1      39.486 -12.525   4.809  1.00  0.00     0.005 C 
HETATM   12  C   UNL     1      39.483 -12.640   3.292  1.00  0.00     0.005 C 
ENDBRANCH  10  11
ENDBRANCH   7  10
ENDBRANCH   5   6
BRANCH   5  13
HETATM   13  C   UNL     1      42.589 -17.134   3.125  1.00  0.00     0.226 C 
HETATM   14 CL   UNL     1      43.917 -16.519   2.072  1.00  0.00    -0.080 Cl
HETATM   15 CL   UNL     1      42.998 -18.859   3.509  1.00  0.00    -0.080 Cl
HETATM   16 CL   UNL     1      41.064 -17.168   2.186  1.00  0.00    -0.080 Cl
ENDBRANCH   5  13
ENDBRANCH   3   5
ENDBRANCH   1   3
BRANCH   1  17
HETATM   17  N   UNL     1      44.257 -15.437   6.720  1.00  0.00    -0.274 N 
HETATM   18  H   UNL     1      44.634 -15.064   5.852  1.00  0.00     0.189 HD
BRANCH  17  19
HETATM   19  N   UNL     1      44.067 -14.454   7.701  1.00  0.00    -0.264 N 
HETATM   20  C   UNL     1      44.960 -13.404   7.751  1.00  0.00     0.272 C 
HETATM   21  O   UNL     1      45.947 -13.339   7.017  1.00  0.00    -0.266 OA
HETATM   22  H   UNL     1      43.304 -14.601   8.358  1.00  0.00     0.190 HD
BRANCH  20  23
HETATM   23  C   UNL     1      44.710 -12.343   8.761  1.00  0.00     0.066 A 
HETATM   24  C   UNL     1      43.516 -11.607   8.708  1.00  0.00     0.081 A 
HETATM   25  C   UNL     1      43.261 -10.601   9.638  1.00  0.00     0.037 A 
HETATM   26  C   UNL     1      44.188 -10.333  10.645  1.00  0.00     0.003 A 
HETATM   27  C   UNL     1      45.365 -11.074  10.726  1.00  0.00     0.001 A 
HETATM   28  C   UNL     1      45.628 -12.079   9.789  1.00  0.00     0.020 A 
BRANCH  24  29
HETATM   29  O   UNL     1      42.543 -11.821   7.768  1.00  0.00    -0.360 OA
HETATM   30  H   UNL     1      42.907 -11.570   6.891  1.00  0.00     0.217 HD
ENDBRANCH  24  29
ENDBRANCH  20  23
ENDBRANCH  17  19
ENDBRANCH   1  17
TORSDOF 10
ENDMDL
MODEL 7
REMARK VINA RESULT:      -7.0      4.696      5.871
REMARK  10 active torsions:
REMARK  status: ('A' for Active; 'I' for Inactive)
REMARK    1  A    between atoms: C_2  and  C_3 
REMARK    2  A    between atoms: C_3  and  C_4 
REMARK       I    between atoms: C_4  and  N_5 
REMARK    3  A    between atoms: N_5  and  C_6 
REMARK    4  A    between atoms: C_6  and  N_7 
REMARK    5  A    between atoms: C_6  and  C_21 
REMARK    6  A    between atoms: N_7  and  C_8 
REMARK    7  A    between atoms: C_8  and  N_9 
REMARK    8  A    between atoms: N_9  and  N_10 
REMARK       I    between atoms: N_10  and  C_11 
REMARK    9  A    between atoms: C_11  and  C_12 
REMARK   10  A    between atoms: C_13  and  O_14 
ROOT
HETATM    1  C   UNL     1      41.104 -14.021   2.486  1.00  0.00     0.188 C 
HETATM    2  S   UNL     1      39.438 -14.121   2.625  1.00  0.00    -0.039 SA
ENDROOT
BRANCH   1   3
HETATM    3  N   UNL     1      41.643 -14.144   1.249  1.00  0.00    -0.341 N 
HETATM    4  H   UNL     1      42.168 -13.328   0.943  1.00  0.00     0.164 HD
BRANCH   3   5
HETATM    5  C   UNL     1      41.376 -15.101   0.180  1.00  0.00     0.241 C 
BRANCH   5   6
HETATM    6  N   UNL     1      42.440 -16.101   0.210  1.00  0.00    -0.336 N 
HETATM    7  C   UNL     1      42.531 -17.090   1.152  1.00  0.00     0.219 C 
HETATM    8  O   UNL     1      41.710 -17.222   2.052  1.00  0.00    -0.274 OA
HETATM    9  H   UNL     1      43.074 -16.129  -0.578  1.00  0.00     0.164 HD
BRANCH   7  10
HETATM   10  C   UNL     1      43.707 -18.028   0.982  1.00  0.00     0.102 C 
BRANCH  10  11
HETATM   11  C   UNL     1      44.018 -18.830   2.243  1.00  0.00     0.005 C 
HETATM   12  C   UNL     1      43.737 -20.319   2.100  1.00  0.00     0.005 C 
ENDBRANCH  10  11
ENDBRANCH   7  10
ENDBRANCH   5   6
BRANCH   5  13
HETATM   13  C   UNL     1      41.010 -14.454  -1.231  1.00  0.00     0.226 C 
HETATM   14 CL   UNL     1      40.953 -15.710  -2.524  1.00  0.00    -0.080 Cl
HETATM   15 CL   UNL     1      39.346 -13.736  -1.143  1.00  0.00    -0.080 Cl
HETATM   16 CL   UNL     1      42.107 -13.134  -1.744  1.00  0.00    -0.080 Cl
ENDBRANCH   5  13
ENDBRANCH   3   5
ENDBRANCH   1   3
BRANCH   1  17
HETATM   17  N   UNL     1      41.957 -13.836   3.540  1.00  0.00    -0.274 N 
HETATM   18  H   UNL     1      41.857 -13.074   4.206  1.00  0.00     0.189 HD
BRANCH  17  19
HETATM   19  N   UNL     1      42.702 -14.911   4.046  1.00  0.00    -0.264 N 
HETATM   20  C   UNL     1      42.210 -15.584   5.144  1.00  0.00     0.272 C 
HETATM   21  O   UNL     1      41.187 -15.232   5.732  1.00  0.00    -0.266 OA
HETATM   22  H   UNL     1      43.596 -15.101   3.599  1.00  0.00     0.190 HD
BRANCH  20  23
HETATM   23  C   UNL     1      42.984 -16.755   5.631  1.00  0.00     0.066 A 
HETATM   24  C   UNL     1      44.154 -16.547   6.378  1.00  0.00     0.081 A 
HETATM   25  C   UNL     1      44.903 -17.628   6.839  1.00  0.00     0.037 A 
HETATM   26  C   UNL     1      44.479 -18.931   6.577  1.00  0.00     0.003 A 
HETATM   27  C   UNL     1      43.304 -19.152   5.861  1.00  0.00     0.001 A 
HETATM   28  C   UNL     1      42.555 -18.069   5.389  1.00  0.00     0.020 A 
BRANCH  24  29
HETATM   29  O   UNL     1      44.628 -15.303   6.700  1.00  0.00    -0.360 OA
HETATM   30  H   UNL     1      45.519 -15.410   7.099  1.00  0.00     0.217 HD
ENDBRANCH  24  29
ENDBRANCH  20  23
ENDBRANCH  17  19
ENDBRANCH   1  17
TORSDOF 10
ENDMDL
MODEL 8
REMARK VINA RESULT:      -6.9      4.725      7.676
REMARK  10 active torsions:
REMARK  status: ('A' for Active; 'I' for Inactive)
REMARK    1  A    between atoms: C_2  and  C_3 
REMARK    2  A    between atoms: C_3  and  C_4 
REMARK       I    between atoms: C_4  and  N_5 
REMARK    3  A    between atoms: N_5  and  C_6 
REMARK    4  A    between atoms: C_6  and  N_7 
REMARK    5  A    between atoms: C_6  and  C_21 
REMARK    6  A    between atoms: N_7  and  C_8 
REMARK    7  A    between atoms: C_8  and  N_9 
REMARK    8  A    between atoms: N_9  and  N_10 
REMARK       I    between atoms: N_10  and  C_11 
REMARK    9  A    between atoms: C_11  and  C_12 
REMARK   10  A    between atoms: C_13  and  O_14 
ROOT
HETATM    1  C   UNL     1      40.671 -15.771   3.778  1.00  0.00     0.188 C 
HETATM    2  S   UNL     1      40.450 -14.270   4.486  1.00  0.00    -0.039 SA
ENDROOT
BRANCH   1   3
HETATM    3  N   UNL     1      41.606 -16.592   4.316  1.00  0.00    -0.341 N 
HETATM    4  H   UNL     1      41.220 -17.369   4.848  1.00  0.00     0.164 HD
BRANCH   3   5
HETATM    5  C   UNL     1      43.041 -16.409   4.507  1.00  0.00     0.241 C 
BRANCH   5   6
HETATM    6  N   UNL     1      43.725 -17.314   3.588  1.00  0.00    -0.336 N 
HETATM    7  C   UNL     1      43.462 -18.655   3.502  1.00  0.00     0.219 C 
HETATM    8  O   UNL     1      42.614 -19.207   4.192  1.00  0.00    -0.274 OA
HETATM    9  H   UNL     1      44.341 -16.901   2.899  1.00  0.00     0.164 HD
BRANCH   7  10
HETATM   10  C   UNL     1      44.278 -19.401   2.467  1.00  0.00     0.102 C 
BRANCH  10  11
HETATM   11  C   UNL     1      44.434 -20.885   2.787  1.00  0.00     0.005 C 
HETATM   12  C   UNL     1      44.010 -21.800   1.646  1.00  0.00     0.005 C 
ENDBRANCH  10  11
ENDBRANCH   7  10
ENDBRANCH   5   6
BRANCH   5  13
HETATM   13  C   UNL     1      43.525 -16.396   6.027  1.00  0.00     0.226 C 
HETATM   14 CL   UNL     1      42.235 -17.016   7.122  1.00  0.00    -0.080 Cl
HETATM   15 CL   UNL     1      44.937 -17.521   6.211  1.00  0.00    -0.080 Cl
HETATM   16 CL   UNL     1      44.071 -14.794   6.613  1.00  0.00    -0.080 Cl
ENDBRANCH   5  13
ENDBRANCH   3   5
ENDBRANCH   1   3
BRANCH   1  17
HETATM   17  N   UNL     1      39.978 -16.221   2.687  1.00  0.00    -0.274 N 
HETATM   18  H   UNL     1      39.126 -16.772   2.761  1.00  0.00     0.189 HD
BRANCH  17  19
HETATM   19  N   UNL     1      40.104 -15.572   1.451  1.00  0.00    -0.264 N 
HETATM   20  C   UNL     1      41.164 -15.919   0.639  1.00  0.00     0.272 C 
HETATM   21  O   UNL     1      42.032 -16.718   0.990  1.00  0.00    -0.266 OA
HETATM   22  H   UNL     1      39.429 -14.840   1.245  1.00  0.00     0.190 HD
BRANCH  20  23
HETATM   23  C   UNL     1      41.249 -15.261  -0.691  1.00  0.00     0.066 A 
HETATM   24  C   UNL     1      41.634 -13.913  -0.771  1.00  0.00     0.081 A 
HETATM   25  C   UNL     1      41.712 -13.271  -2.005  1.00  0.00     0.037 A 
HETATM   26  C   UNL     1      41.430 -13.975  -3.176  1.00  0.00     0.003 A 
HETATM   27  C   UNL     1      41.074 -15.321  -3.112  1.00  0.00     0.001 A 
HETATM   28  C   UNL     1      40.985 -15.966  -1.875  1.00  0.00     0.020 A 
BRANCH  24  29
HETATM   29  O   UNL     1      41.950 -13.156   0.325  1.00  0.00    -0.360 OA
HETATM   30  H   UNL     1      41.282 -12.442   0.405  1.00  0.00     0.217 HD
ENDBRANCH  24  29
ENDBRANCH  20  23
ENDBRANCH  17  19
ENDBRANCH   1  17
TORSDOF 10
ENDMDL
MODEL 9
REMARK VINA RESULT:      -6.9      5.151      7.994
REMARK  10 active torsions:
REMARK  status: ('A' for Active; 'I' for Inactive)
REMARK    1  A    between atoms: C_2  and  C_3 
REMARK    2  A    between atoms: C_3  and  C_4 
REMARK       I    between atoms: C_4  and  N_5 
REMARK    3  A    between atoms: N_5  and  C_6 
REMARK    4  A    between atoms: C_6  and  N_7 
REMARK    5  A    between atoms: C_6  and  C_21 
REMARK    6  A    between atoms: N_7  and  C_8 
REMARK    7  A    between atoms: C_8  and  N_9 
REMARK    8  A    between atoms: N_9  and  N_10 
REMARK       I    between atoms: N_10  and  C_11 
REMARK    9  A    between atoms: C_11  and  C_12 
REMARK   10  A    between atoms: C_13  and  O_14 
ROOT
HETATM    1  C   UNL     1      40.324 -15.680   3.347  1.00  0.00     0.188 C 
HETATM    2  S   UNL     1      40.283 -14.171   4.071  1.00  0.00    -0.039 SA
ENDROOT
BRANCH   1   3
HETATM    3  N   UNL     1      41.002 -16.667   3.982  1.00  0.00    -0.341 N 
HETATM    4  H   UNL     1      40.442 -17.191   4.652  1.00  0.00     0.164 HD
BRANCH   3   5
HETATM    5  C   UNL     1      42.434 -16.927   4.088  1.00  0.00     0.241 C 
BRANCH   5   6
HETATM    6  N   UNL     1      42.686 -18.242   3.505  1.00  0.00    -0.336 N 
HETATM    7  C   UNL     1      42.623 -18.505   2.163  1.00  0.00     0.219 C 
HETATM    8  O   UNL     1      42.356 -17.645   1.333  1.00  0.00    -0.274 OA
HETATM    9  H   UNL     1      43.040 -18.963   4.119  1.00  0.00     0.164 HD
BRANCH   7  10
HETATM   10  C   UNL     1      42.937 -19.935   1.777  1.00  0.00     0.102 C 
BRANCH  10  11
HETATM   11  C   UNL     1      44.185 -20.479   2.467  1.00  0.00     0.005 C 
HETATM   12  C   UNL     1      44.522 -21.910   2.073  1.00  0.00     0.005 C 
ENDBRANCH  10  11
ENDBRANCH   7  10
ENDBRANCH   5   6
BRANCH   5  13
HETATM   13  C   UNL     1      43.074 -16.618   5.517  1.00  0.00     0.226 C 
HETATM   14 CL   UNL     1      43.641 -14.910   5.617  1.00  0.00    -0.080 Cl
HETATM   15 CL   UNL     1      41.798 -16.809   6.793  1.00  0.00    -0.080 Cl
HETATM   16 CL   UNL     1      44.418 -17.710   5.973  1.00  0.00    -0.080 Cl
ENDBRANCH   5  13
ENDBRANCH   3   5
ENDBRANCH   1   3
BRANCH   1  17
HETATM   17  N   UNL     1      39.728 -15.981   2.153  1.00  0.00    -0.274 N 
HETATM   18  H   UNL     1      38.735 -16.186   2.066  1.00  0.00     0.189 HD
BRANCH  17  19
HETATM   19  N   UNL     1      40.309 -15.565   0.947  1.00  0.00    -0.264 N 
HETATM   20  C   UNL     1      39.772 -14.465   0.311  1.00  0.00     0.272 C 
HETATM   21  O   UNL     1      38.768 -13.886   0.725  1.00  0.00    -0.266 OA
HETATM   22  H   UNL     1      41.069 -16.135   0.582  1.00  0.00     0.190 HD
BRANCH  20  23
HETATM   23  C   UNL     1      40.437 -14.006  -0.937  1.00  0.00     0.066 A 
HETATM   24  C   UNL     1      40.755 -14.941  -1.934  1.00  0.00     0.081 A 
HETATM   25  C   UNL     1      41.386 -14.537  -3.109  1.00  0.00     0.037 A 
HETATM   26  C   UNL     1      41.687 -13.190  -3.310  1.00  0.00     0.003 A 
HETATM   27  C   UNL     1      41.352 -12.248  -2.340  1.00  0.00     0.001 A 
HETATM   28  C   UNL     1      40.727 -12.651  -1.156  1.00  0.00     0.020 A 
BRANCH  24  29
HETATM   29  O   UNL     1      40.474 -16.277  -1.828  1.00  0.00    -0.360 OA
HETATM   30  H   UNL     1      39.846 -16.398  -1.083  1.00  0.00     0.217 HD
ENDBRANCH  24  29
ENDBRANCH  20  23
ENDBRANCH  17  19
ENDBRANCH   1  17
TORSDOF 10
ENDMDL
MODEL 10
REMARK VINA RESULT:      -6.8      6.213      8.324
REMARK  10 active torsions:
REMARK  status: ('A' for Active; 'I' for Inactive)
REMARK    1  A    between atoms: C_2  and  C_3 
REMARK    2  A    between atoms: C_3  and  C_4 
REMARK       I    between atoms: C_4  and  N_5 
REMARK    3  A    between atoms: N_5  and  C_6 
REMARK    4  A    between atoms: C_6  and  N_7 
REMARK    5  A    between atoms: C_6  and  C_21 
REMARK    6  A    between atoms: N_7  and  C_8 
REMARK    7  A    between atoms: C_8  and  N_9 
REMARK    8  A    between atoms: N_9  and  N_10 
REMARK       I    between atoms: N_10  and  C_11 
REMARK    9  A    between atoms: C_11  and  C_12 
REMARK   10  A    between atoms: C_13  and  O_14 
ROOT
HETATM    1  C   UNL     1      39.741 -14.999   2.151  1.00  0.00     0.188 C 
HETATM    2  S   UNL     1      39.780 -14.049   3.529  1.00  0.00    -0.039 SA
ENDROOT
BRANCH   1   3
HETATM    3  N   UNL     1      39.930 -14.388   0.956  1.00  0.00    -0.341 N 
HETATM    4  H   UNL     1      40.858 -13.984   0.840  1.00  0.00     0.164 HD
BRANCH   3   5
HETATM    5  C   UNL     1      38.976 -13.962  -0.061  1.00  0.00     0.241 C 
BRANCH   5   6
HETATM    6  N   UNL     1      39.386 -14.563  -1.327  1.00  0.00    -0.336 N 
HETATM    7  C   UNL     1      40.651 -14.466  -1.842  1.00  0.00     0.219 C 
HETATM    8  O   UNL     1      41.553 -13.866  -1.270  1.00  0.00    -0.274 OA
HETATM    9  H   UNL     1      38.729 -15.181  -1.784  1.00  0.00     0.164 HD
BRANCH   7  10
HETATM   10  C   UNL     1      40.860 -15.181  -3.160  1.00  0.00     0.102 C 
BRANCH  10  11
HETATM   11  C   UNL     1      39.914 -16.363  -3.355  1.00  0.00     0.005 C 
HETATM   12  C   UNL     1      38.907 -16.155  -4.478  1.00  0.00     0.005 C 
ENDBRANCH  10  11
ENDBRANCH   7  10
ENDBRANCH   5   6
BRANCH   5  13
HETATM   13  C   UNL     1      38.636 -12.403  -0.060  1.00  0.00     0.226 C 
HETATM   14 CL   UNL     1      38.164 -11.842  -1.707  1.00  0.00    -0.080 Cl
HETATM   15 CL   UNL     1      37.202 -12.107   1.011  1.00  0.00    -0.080 Cl
HETATM   16 CL   UNL     1      39.957 -11.362   0.558  1.00  0.00    -0.080 Cl
ENDBRANCH   5  13
ENDBRANCH   3   5
ENDBRANCH   1   3
BRANCH   1  17
HETATM   17  N   UNL     1      39.519 -16.350   2.149  1.00  0.00    -0.274 N 
HETATM   18  H   UNL     1      38.880 -16.804   1.502  1.00  0.00     0.189 HD
BRANCH  17  19
HETATM   19  N   UNL     1      40.477 -17.226   2.679  1.00  0.00    -0.264 N 
HETATM   20  C   UNL     1      41.601 -17.493   1.926  1.00  0.00     0.272 C 
HETATM   21  O   UNL     1      41.757 -17.048   0.789  1.00  0.00    -0.266 OA
HETATM   22  H   UNL     1      40.260 -17.657   3.574  1.00  0.00     0.190 HD
BRANCH  20  23
HETATM   23  C   UNL     1      42.632 -18.379   2.528  1.00  0.00     0.066 A 
HETATM   24  C   UNL     1      43.155 -18.068   3.794  1.00  0.00     0.081 A 
HETATM   25  C   UNL     1      44.128 -18.878   4.376  1.00  0.00     0.037 A 
HETATM   26  C   UNL     1      44.574 -20.019   3.710  1.00  0.00     0.003 A 
HETATM   27  C   UNL     1      44.043 -20.354   2.466  1.00  0.00     0.001 A 
HETATM   28  C   UNL     1      43.072 -19.539   1.875  1.00  0.00     0.020 A 
BRANCH  24  29
HETATM   29  O   UNL     1      42.757 -16.981   4.525  1.00  0.00    -0.360 OA
HETATM   30  H   UNL     1      41.775 -16.974   4.551  1.00  0.00     0.217 HD
ENDBRANCH  24  29
ENDBRANCH  20  23
ENDBRANCH  17  19
ENDBRANCH   1  17
TORSDOF 10
ENDMDL
