MODEL 1
REMARK VINA RESULT:     -10.1      0.000      0.000
REMARK  5 active torsions:
REMARK  status: ('A' for Active; 'I' for Inactive)
REMARK    1  A    between atoms: C_5  and  C_6 
REMARK    2  A    between atoms: C_10  and  C_11 
REMARK       I    between atoms: C_11  and  N_12 
REMARK    3  A    between atoms: N_12  and  N_13 
REMARK       I    between atoms: N_13  and  C_14 
REMARK       I    between atoms: C_14  and  N_15 
REMARK    4  A    between atoms: N_15  and  C_16 
REMARK    5  A    between atoms: C_16  and  C_17 
ROOT
HETATM    1  C   UNL     1      43.574 -14.092   6.540  1.00  0.00     0.288 C 
HETATM    2  N   UNL     1      44.153 -13.739   7.738  1.00  0.00    -0.261 N 
HETATM    3  O   UNL     1      42.940 -13.291   5.855  1.00  0.00    -0.264 OA
HETATM    4  H   UNL     1      44.657 -14.387   8.339  1.00  0.00     0.190 HD
ENDROOT
BRANCH   2   5
HETATM    5  N   UNL     1      44.001 -12.435   8.232  1.00  0.00    -0.249 N 
HETATM    6  C   UNL     1      44.273 -12.260   9.572  1.00  0.00     0.334 C 
HETATM    7  N   UNL     1      44.252 -10.940   9.939  1.00  0.00    -0.341 N 
HETATM    8  O   UNL     1      44.496 -13.198  10.333  1.00  0.00    -0.246 OA
HETATM    9  H   UNL     1      43.675 -10.343   9.362  1.00  0.00     0.164 HD
HETATM   10  H   UNL     1      44.241 -11.695   7.580  1.00  0.00     0.192 HD
BRANCH   7  11
HETATM   11  C   UNL     1      44.411 -10.552  11.328  1.00  0.00     0.129 C 
BRANCH  11  12
HETATM   12  C   UNL     1      43.415  -9.461  11.774  1.00  0.00     0.004 C 
HETATM   13  C   UNL     1      42.018  -9.637  11.151  1.00  0.00     0.010 C 
HETATM   14  C   UNL     1      41.240 -10.826  11.734  1.00  0.00    -0.018 C 
HETATM   15  C   UNL     1      39.838 -10.895  11.130  1.00  0.00     0.010 C 
HETATM   16  C   UNL     1      41.163 -10.732  13.263  1.00  0.00     0.004 C 
HETATM   17  C   UNL     1      42.543 -10.586  13.896  1.00  0.00     0.001 C 
HETATM   18  C   UNL     1      43.310  -9.404  13.307  1.00  0.00     0.006 C 
ENDBRANCH  11  12
ENDBRANCH   7  11
ENDBRANCH   2   5
BRANCH   1  19
HETATM   19  C   UNL     1      43.764 -15.464   6.156  1.00  0.00     0.121 A 
HETATM   20  N   UNL     1      44.200 -16.412   7.036  1.00  0.00    -0.272 N 
HETATM   21  N   UNL     1      44.354 -17.632   6.500  1.00  0.00    -0.174 NA
HETATM   22  H   UNL     1      44.427 -16.276   8.017  1.00  0.00     0.189 HD
HETATM   23  C   UNL     1      43.961 -17.494   5.224  1.00  0.00     0.089 A 
HETATM   24  C   UNL     1      43.589 -16.144   4.967  1.00  0.00     0.071 A 
BRANCH  23  25
HETATM   25  C   UNL     1      43.959 -18.616   4.283  1.00  0.00    -0.006 A 
HETATM   26  C   UNL     1      43.253 -18.540   3.075  1.00  0.00     0.014 A 
HETATM   27  C   UNL     1      43.272 -19.607   2.169  1.00  0.00     0.007 A 
HETATM   28  C   UNL     1      43.991 -20.770   2.459  1.00  0.00    -0.062 A 
HETATM   29  C   UNL     1      44.047 -21.902   1.475  1.00  0.00     0.048 C 
HETATM   30  C   UNL     1      44.702 -20.847   3.662  1.00  0.00     0.007 A 
HETATM   31  C   UNL     1      44.678 -19.783   4.568  1.00  0.00     0.014 A 
ENDBRANCH  23  25
ENDBRANCH   1  19
TORSDOF 5
ENDMDL
MODEL 2
REMARK VINA RESULT:      -9.8      1.619     10.937
REMARK  5 active torsions:
REMARK  status: ('A' for Active; 'I' for Inactive)
REMARK    1  A    between atoms: C_5  and  C_6 
REMARK    2  A    between atoms: C_10  and  C_11 
REMARK       I    between atoms: C_11  and  N_12 
REMARK    3  A    between atoms: N_12  and  N_13 
REMARK       I    between atoms: N_13  and  C_14 
REMARK       I    between atoms: C_14  and  N_15 
REMARK    4  A    between atoms: N_15  and  C_16 
REMARK    5  A    between atoms: C_16  and  C_17 
ROOT
HETATM    1  C   UNL     1      44.681 -13.102   8.261  1.00  0.00     0.288 C 
HETATM    2  N   UNL     1      43.855 -13.954   7.563  1.00  0.00    -0.261 N 
HETATM    3  O   UNL     1      45.900 -13.092   8.103  1.00  0.00    -0.264 OA
HETATM    4  H   UNL     1      42.848 -14.005   7.693  1.00  0.00     0.190 HD
ENDROOT
BRANCH   2   5
HETATM    5  N   UNL     1      44.403 -14.875   6.657  1.00  0.00    -0.249 N 
HETATM    6  C   UNL     1      44.375 -16.197   7.046  1.00  0.00     0.334 C 
HETATM    7  N   UNL     1      44.785 -17.042   6.048  1.00  0.00    -0.341 N 
HETATM    8  O   UNL     1      44.028 -16.552   8.169  1.00  0.00    -0.246 OA
HETATM    9  H   UNL     1      45.409 -16.631   5.367  1.00  0.00     0.164 HD
HETATM   10  H   UNL     1      44.272 -14.647   5.676  1.00  0.00     0.192 HD
BRANCH   7  11
HETATM   11  C   UNL     1      44.927 -18.466   6.290  1.00  0.00     0.129 C 
BRANCH  11  12
HETATM   12  C   UNL     1      43.736 -19.294   5.769  1.00  0.00     0.004 C 
HETATM   13  C   UNL     1      43.246 -18.832   4.384  1.00  0.00     0.010 C 
HETATM   14  C   UNL     1      44.215 -19.193   3.248  1.00  0.00    -0.018 C 
HETATM   15  C   UNL     1      43.634 -18.776   1.897  1.00  0.00     0.010 C 
HETATM   16  C   UNL     1      44.533 -20.693   3.256  1.00  0.00     0.004 C 
HETATM   17  C   UNL     1      45.045 -21.161   4.615  1.00  0.00     0.001 C 
HETATM   18  C   UNL     1      44.078 -20.793   5.738  1.00  0.00     0.006 C 
ENDBRANCH  11  12
ENDBRANCH   7  11
ENDBRANCH   2   5
BRANCH   1  19
HETATM   19  C   UNL     1      44.010 -12.233   9.187  1.00  0.00     0.121 A 
HETATM   20  N   UNL     1      43.135 -11.267   8.776  1.00  0.00    -0.272 N 
HETATM   21  N   UNL     1      42.627 -10.525   9.771  1.00  0.00    -0.174 NA
HETATM   22  H   UNL     1      42.861 -11.059   7.820  1.00  0.00     0.189 HD
HETATM   23  C   UNL     1      43.153 -11.050  10.889  1.00  0.00     0.089 A 
HETATM   24  C   UNL     1      44.032 -12.120  10.563  1.00  0.00     0.071 A 
BRANCH  23  25
HETATM   25  C   UNL     1      42.834 -10.529  12.220  1.00  0.00    -0.006 A 
HETATM   26  C   UNL     1      41.699 -10.974  12.913  1.00  0.00     0.014 A 
HETATM   27  C   UNL     1      41.410 -10.490  14.193  1.00  0.00     0.007 A 
HETATM   28  C   UNL     1      42.244  -9.547  14.800  1.00  0.00    -0.062 A 
HETATM   29  C   UNL     1      41.961  -9.052  16.188  1.00  0.00     0.048 C 
HETATM   30  C   UNL     1      43.381  -9.104  14.114  1.00  0.00     0.007 A 
HETATM   31  C   UNL     1      43.667  -9.585  12.832  1.00  0.00     0.014 A 
ENDBRANCH  23  25
ENDBRANCH   1  19
TORSDOF 5
ENDMDL
MODEL 3
REMARK VINA RESULT:      -9.1      1.298      1.594
REMARK  5 active torsions:
REMARK  status: ('A' for Active; 'I' for Inactive)
REMARK    1  A    between atoms: C_5  and  C_6 
REMARK    2  A    between atoms: C_10  and  C_11 
REMARK       I    between atoms: C_11  and  N_12 
REMARK    3  A    between atoms: N_12  and  N_13 
REMARK       I    between atoms: N_13  and  C_14 
REMARK       I    between atoms: C_14  and  N_15 
REMARK    4  A    between atoms: N_15  and  C_16 
REMARK    5  A    between atoms: C_16  and  C_17 
ROOT
HETATM    1  C   UNL     1      42.939 -13.572   6.226  1.00  0.00     0.288 C 
HETATM    2  N   UNL     1      43.738 -13.285   7.310  1.00  0.00    -0.261 N 
HETATM    3  O   UNL     1      42.083 -12.792   5.815  1.00  0.00    -0.264 OA
HETATM    4  H   UNL     1      44.434 -13.922   7.689  1.00  0.00     0.190 HD
ENDROOT
BRANCH   2   5
HETATM    5  N   UNL     1      43.566 -12.080   8.006  1.00  0.00    -0.249 N 
HETATM    6  C   UNL     1      43.988 -12.073   9.319  1.00  0.00     0.334 C 
HETATM    7  N   UNL     1      43.928 -10.824   9.879  1.00  0.00    -0.341 N 
HETATM    8  O   UNL     1      44.361 -13.088   9.902  1.00  0.00    -0.246 OA
HETATM    9  H   UNL     1      43.248 -10.200   9.465  1.00  0.00     0.164 HD
HETATM   10  H   UNL     1      43.677 -11.238   7.449  1.00  0.00     0.192 HD
BRANCH   7  11
HETATM   11  C   UNL     1      44.230 -10.623  11.284  1.00  0.00     0.129 C 
BRANCH  11  12
HETATM   12  C   UNL     1      43.481  -9.426  11.903  1.00  0.00     0.004 C 
HETATM   13  C   UNL     1      42.044  -9.279  11.371  1.00  0.00     0.010 C 
HETATM   14  C   UNL     1      41.092 -10.365  11.894  1.00  0.00    -0.018 C 
HETATM   15  C   UNL     1      39.670 -10.115  11.392  1.00  0.00     0.010 C 
HETATM   16  C   UNL     1      41.118 -10.423  13.427  1.00  0.00     0.004 C 
HETATM   17  C   UNL     1      42.533 -10.596  13.968  1.00  0.00     0.001 C 
HETATM   18  C   UNL     1      43.474  -9.515  13.439  1.00  0.00     0.006 C 
ENDBRANCH  11  12
ENDBRANCH   7  11
ENDBRANCH   2   5
BRANCH   1  19
HETATM   19  C   UNL     1      43.182 -14.851   5.617  1.00  0.00     0.121 A 
HETATM   20  N   UNL     1      43.075 -15.048   4.270  1.00  0.00    -0.272 N 
HETATM   21  N   UNL     1      43.303 -16.311   3.878  1.00  0.00    -0.174 NA
HETATM   22  H   UNL     1      42.832 -14.354   3.569  1.00  0.00     0.189 HD
HETATM   23  C   UNL     1      43.615 -16.965   5.008  1.00  0.00     0.089 A 
HETATM   24  C   UNL     1      43.543 -16.084   6.123  1.00  0.00     0.071 A 
BRANCH  23  25
HETATM   25  C   UNL     1      43.954 -18.390   5.014  1.00  0.00    -0.006 A 
HETATM   26  C   UNL     1      44.409 -19.026   3.851  1.00  0.00     0.014 A 
HETATM   27  C   UNL     1      44.752 -20.382   3.867  1.00  0.00     0.007 A 
HETATM   28  C   UNL     1      44.639 -21.128   5.044  1.00  0.00    -0.062 A 
HETATM   29  C   UNL     1      45.042 -22.573   5.077  1.00  0.00     0.048 C 
HETATM   30  C   UNL     1      44.191 -20.496   6.209  1.00  0.00     0.007 A 
HETATM   31  C   UNL     1      43.843 -19.141   6.191  1.00  0.00     0.014 A 
ENDBRANCH  23  25
ENDBRANCH   1  19
TORSDOF 5
ENDMDL
MODEL 4
REMARK VINA RESULT:      -9.0      1.808      2.708
REMARK  5 active torsions:
REMARK  status: ('A' for Active; 'I' for Inactive)
REMARK    1  A    between atoms: C_5  and  C_6 
REMARK    2  A    between atoms: C_10  and  C_11 
REMARK       I    between atoms: C_11  and  N_12 
REMARK    3  A    between atoms: N_12  and  N_13 
REMARK       I    between atoms: N_13  and  C_14 
REMARK       I    between atoms: C_14  and  N_15 
REMARK    4  A    between atoms: N_15  and  C_16 
REMARK    5  A    between atoms: C_16  and  C_17 
ROOT
HETATM    1  C   UNL     1      44.368 -13.139   8.015  1.00  0.00     0.288 C 
HETATM    2  N   UNL     1      43.469 -12.157   8.364  1.00  0.00    -0.261 N 
HETATM    3  O   UNL     1      45.469 -13.244   8.552  1.00  0.00    -0.264 OA
HETATM    4  H   UNL     1      42.565 -12.028   7.918  1.00  0.00     0.190 HD
ENDROOT
BRANCH   2   5
HETATM    5  N   UNL     1      43.810 -11.211   9.342  1.00  0.00    -0.249 N 
HETATM    6  C   UNL     1      42.758 -10.542   9.931  1.00  0.00     0.334 C 
HETATM    7  N   UNL     1      43.162  -9.753  10.977  1.00  0.00    -0.341 N 
HETATM    8  O   UNL     1      41.600 -10.649   9.538  1.00  0.00    -0.246 OA
HETATM    9  H   UNL     1      44.122  -9.439  10.931  1.00  0.00     0.164 HD
HETATM   10  H   UNL     1      44.622 -11.445   9.906  1.00  0.00     0.192 HD
BRANCH   7  11
HETATM   11  C   UNL     1      42.221  -8.887  11.661  1.00  0.00     0.129 C 
BRANCH  11  12
HETATM   12  C   UNL     1      42.791  -8.270  12.955  1.00  0.00     0.004 C 
HETATM   13  C   UNL     1      41.740  -7.478  13.753  1.00  0.00     0.010 C 
HETATM   14  C   UNL     1      40.697  -8.374  14.437  1.00  0.00    -0.018 C 
HETATM   15  C   UNL     1      39.734  -7.531  15.273  1.00  0.00     0.010 C 
HETATM   16  C   UNL     1      41.377  -9.437  15.310  1.00  0.00     0.004 C 
HETATM   17  C   UNL     1      42.402 -10.249  14.525  1.00  0.00     0.001 C 
HETATM   18  C   UNL     1      43.432  -9.349  13.844  1.00  0.00     0.006 C 
ENDBRANCH  11  12
ENDBRANCH   7  11
ENDBRANCH   2   5
BRANCH   1  19
HETATM   19  C   UNL     1      43.923 -14.025   6.975  1.00  0.00     0.121 A 
HETATM   20  N   UNL     1      42.801 -13.777   6.237  1.00  0.00    -0.272 N 
HETATM   21  N   UNL     1      42.515 -14.725   5.333  1.00  0.00    -0.174 NA
HETATM   22  H   UNL     1      42.180 -12.977   6.322  1.00  0.00     0.189 HD
HETATM   23  C   UNL     1      43.513 -15.616   5.449  1.00  0.00     0.089 A 
HETATM   24  C   UNL     1      44.414 -15.214   6.474  1.00  0.00     0.071 A 
BRANCH  23  25
HETATM   25  C   UNL     1      43.586 -16.816   4.613  1.00  0.00    -0.006 A 
HETATM   26  C   UNL     1      44.150 -18.002   5.105  1.00  0.00     0.014 A 
HETATM   27  C   UNL     1      44.197 -19.152   4.310  1.00  0.00     0.007 A 
HETATM   28  C   UNL     1      43.690 -19.136   3.007  1.00  0.00    -0.062 A 
HETATM   29  C   UNL     1      43.703 -20.376   2.164  1.00  0.00     0.048 C 
HETATM   30  C   UNL     1      43.122 -17.956   2.515  1.00  0.00     0.007 A 
HETATM   31  C   UNL     1      43.079 -16.805   3.308  1.00  0.00     0.014 A 
ENDBRANCH  23  25
ENDBRANCH   1  19
TORSDOF 5
ENDMDL
MODEL 5
REMARK VINA RESULT:      -8.9      1.689     10.926
REMARK  5 active torsions:
REMARK  status: ('A' for Active; 'I' for Inactive)
REMARK    1  A    between atoms: C_5  and  C_6 
REMARK    2  A    between atoms: C_10  and  C_11 
REMARK       I    between atoms: C_11  and  N_12 
REMARK    3  A    between atoms: N_12  and  N_13 
REMARK       I    between atoms: N_13  and  C_14 
REMARK       I    between atoms: C_14  and  N_15 
REMARK    4  A    between atoms: N_15  and  C_16 
REMARK    5  A    between atoms: C_16  and  C_17 
ROOT
HETATM    1  C   UNL     1      45.030 -12.934   8.115  1.00  0.00     0.288 C 
HETATM    2  N   UNL     1      43.984 -13.748   7.743  1.00  0.00    -0.261 N 
HETATM    3  O   UNL     1      46.110 -12.941   7.527  1.00  0.00    -0.264 OA
HETATM    4  H   UNL     1      43.091 -13.785   8.228  1.00  0.00     0.190 HD
ENDROOT
BRANCH   2   5
HETATM    5  N   UNL     1      44.142 -14.649   6.679  1.00  0.00    -0.249 N 
HETATM    6  C   UNL     1      43.161 -14.619   5.711  1.00  0.00     0.334 C 
HETATM    7  N   UNL     1      43.466 -15.414   4.636  1.00  0.00    -0.341 N 
HETATM    8  O   UNL     1      42.133 -13.957   5.826  1.00  0.00    -0.246 OA
HETATM    9  H   UNL     1      44.088 -16.185   4.836  1.00  0.00     0.164 HD
HETATM   10  H   UNL     1      45.102 -14.827   6.402  1.00  0.00     0.192 HD
BRANCH   7  11
HETATM   11  C   UNL     1      42.515 -15.602   3.557  1.00  0.00     0.129 C 
BRANCH  11  12
HETATM   12  C   UNL     1      43.170 -16.076   2.244  1.00  0.00     0.004 C 
HETATM   13  C   UNL     1      44.034 -17.337   2.428  1.00  0.00     0.010 C 
HETATM   14  C   UNL     1      43.206 -18.608   2.674  1.00  0.00    -0.018 C 
HETATM   15  C   UNL     1      44.118 -19.830   2.769  1.00  0.00     0.010 C 
HETATM   16  C   UNL     1      42.161 -18.802   1.567  1.00  0.00     0.004 C 
HETATM   17  C   UNL     1      41.279 -17.570   1.392  1.00  0.00     0.001 C 
HETATM   18  C   UNL     1      42.112 -16.311   1.153  1.00  0.00     0.006 C 
ENDBRANCH  11  12
ENDBRANCH   7  11
ENDBRANCH   2   5
BRANCH   1  19
HETATM   19  C   UNL     1      44.764 -12.083   9.242  1.00  0.00     0.121 A 
HETATM   20  N   UNL     1      45.534 -10.991   9.527  1.00  0.00    -0.272 N 
HETATM   21  N   UNL     1      45.163 -10.330  10.634  1.00  0.00    -0.174 NA
HETATM   22  H   UNL     1      46.341 -10.661   9.006  1.00  0.00     0.189 HD
HETATM   23  C   UNL     1      44.077 -10.986  11.073  1.00  0.00     0.089 A 
HETATM   24  C   UNL     1      43.799 -12.097  10.229  1.00  0.00     0.071 A 
BRANCH  23  25
HETATM   25  C   UNL     1      43.345 -10.566  12.269  1.00  0.00    -0.006 A 
HETATM   26  C   UNL     1      42.141 -11.187  12.631  1.00  0.00     0.014 A 
HETATM   27  C   UNL     1      41.457 -10.798  13.787  1.00  0.00     0.007 A 
HETATM   28  C   UNL     1      41.959  -9.776  14.599  1.00  0.00    -0.062 A 
HETATM   29  C   UNL     1      41.250  -9.381  15.860  1.00  0.00     0.048 C 
HETATM   30  C   UNL     1      43.164  -9.158  14.245  1.00  0.00     0.007 A 
HETATM   31  C   UNL     1      43.845  -9.544  13.086  1.00  0.00     0.014 A 
ENDBRANCH  23  25
ENDBRANCH   1  19
TORSDOF 5
ENDMDL
MODEL 6
REMARK VINA RESULT:      -8.7      3.262      3.981
REMARK  5 active torsions:
REMARK  status: ('A' for Active; 'I' for Inactive)
REMARK    1  A    between atoms: C_5  and  C_6 
REMARK    2  A    between atoms: C_10  and  C_11 
REMARK       I    between atoms: C_11  and  N_12 
REMARK    3  A    between atoms: N_12  and  N_13 
REMARK       I    between atoms: N_13  and  C_14 
REMARK       I    between atoms: C_14  and  N_15 
REMARK    4  A    between atoms: N_15  and  C_16 
REMARK    5  A    between atoms: C_16  and  C_17 
ROOT
HETATM    1  C   UNL     1      39.236 -12.950   5.963  1.00  0.00     0.288 C 
HETATM    2  N   UNL     1      39.536 -13.215   7.280  1.00  0.00    -0.261 N 
HETATM    3  O   UNL     1      38.484 -12.035   5.631  1.00  0.00    -0.264 OA
HETATM    4  H   UNL     1      40.131 -13.981   7.585  1.00  0.00     0.190 HD
ENDROOT
BRANCH   2   5
HETATM    5  N   UNL     1      38.950 -12.450   8.299  1.00  0.00    -0.249 N 
HETATM    6  C   UNL     1      39.658 -11.339   8.705  1.00  0.00     0.334 C 
HETATM    7  N   UNL     1      38.951 -10.565   9.589  1.00  0.00    -0.341 N 
HETATM    8  O   UNL     1      40.796 -11.097   8.314  1.00  0.00    -0.246 OA
HETATM    9  H   UNL     1      38.250 -11.058  10.125  1.00  0.00     0.164 HD
HETATM   10  H   UNL     1      37.935 -12.408   8.280  1.00  0.00     0.192 HD
BRANCH   7  11
HETATM   11  C   UNL     1      39.560  -9.407  10.215  1.00  0.00     0.129 C 
BRANCH  11  12
HETATM   12  C   UNL     1      39.965  -9.651  11.683  1.00  0.00     0.004 C 
HETATM   13  C   UNL     1      41.320 -10.369  11.817  1.00  0.00     0.010 C 
HETATM   14  C   UNL     1      42.517  -9.476  11.456  1.00  0.00    -0.018 C 
HETATM   15  C   UNL     1      43.830 -10.225  11.685  1.00  0.00     0.010 C 
HETATM   16  C   UNL     1      42.492  -8.174  12.266  1.00  0.00     0.004 C 
HETATM   17  C   UNL     1      41.165  -7.437  12.120  1.00  0.00     0.001 C 
HETATM   18  C   UNL     1      39.981  -8.334  12.477  1.00  0.00     0.006 C 
ENDBRANCH  11  12
ENDBRANCH   7  11
ENDBRANCH   2   5
BRANCH   1  19
HETATM   19  C   UNL     1      39.865 -13.823   5.010  1.00  0.00     0.121 A 
HETATM   20  N   UNL     1      39.951 -13.512   3.683  1.00  0.00    -0.272 N 
HETATM   21  N   UNL     1      40.539 -14.455   2.933  1.00  0.00    -0.174 NA
HETATM   22  H   UNL     1      39.606 -12.670   3.230  1.00  0.00     0.189 HD
HETATM   23  C   UNL     1      40.896 -15.410   3.808  1.00  0.00     0.089 A 
HETATM   24  C   UNL     1      40.484 -15.052   5.121  1.00  0.00     0.071 A 
BRANCH  23  25
HETATM   25  C   UNL     1      41.593 -16.627   3.390  1.00  0.00    -0.006 A 
HETATM   26  C   UNL     1      41.569 -17.047   2.052  1.00  0.00     0.014 A 
HETATM   27  C   UNL     1      42.255 -18.199   1.653  1.00  0.00     0.007 A 
HETATM   28  C   UNL     1      42.971 -18.957   2.585  1.00  0.00    -0.062 A 
HETATM   29  C   UNL     1      43.741 -20.171   2.156  1.00  0.00     0.048 C 
HETATM   30  C   UNL     1      43.003 -18.538   3.920  1.00  0.00     0.007 A 
HETATM   31  C   UNL     1      42.313 -17.389   4.319  1.00  0.00     0.014 A 
ENDBRANCH  23  25
ENDBRANCH   1  19
TORSDOF 5
ENDMDL
MODEL 7
REMARK VINA RESULT:      -8.5      9.085     12.622
REMARK  5 active torsions:
REMARK  status: ('A' for Active; 'I' for Inactive)
REMARK    1  A    between atoms: C_5  and  C_6 
REMARK    2  A    between atoms: C_10  and  C_11 
REMARK       I    between atoms: C_11  and  N_12 
REMARK    3  A    between atoms: N_12  and  N_13 
REMARK       I    between atoms: N_13  and  C_14 
REMARK       I    between atoms: C_14  and  N_15 
REMARK    4  A    between atoms: N_15  and  C_16 
REMARK    5  A    between atoms: C_16  and  C_17 
ROOT
HETATM    1  C   UNL     1      40.427 -15.201  -2.853  1.00  0.00     0.288 C 
HETATM    2  N   UNL     1      40.507 -15.781  -1.607  1.00  0.00    -0.261 N 
HETATM    3  O   UNL     1      41.416 -15.024  -3.561  1.00  0.00    -0.264 OA
HETATM    4  H   UNL     1      39.711 -15.914  -0.989  1.00  0.00     0.190 HD
ENDROOT
BRANCH   2   5
HETATM    5  N   UNL     1      41.754 -16.163  -1.092  1.00  0.00    -0.249 N 
HETATM    6  C   UNL     1      41.821 -16.322   0.276  1.00  0.00     0.334 C 
HETATM    7  N   UNL     1      43.023 -16.841   0.682  1.00  0.00    -0.341 N 
HETATM    8  O   UNL     1      40.899 -16.016   1.027  1.00  0.00    -0.246 OA
HETATM    9  H   UNL     1      43.800 -16.660   0.061  1.00  0.00     0.164 HD
HETATM   10  H   UNL     1      42.298 -16.780  -1.687  1.00  0.00     0.192 HD
BRANCH   7  11
HETATM   11  C   UNL     1      43.332 -16.988   2.092  1.00  0.00     0.129 C 
BRANCH  11  12
HETATM   12  C   UNL     1      42.537 -18.119   2.775  1.00  0.00     0.004 C 
HETATM   13  C   UNL     1      42.833 -19.505   2.174  1.00  0.00     0.010 C 
HETATM   14  C   UNL     1      44.229 -20.036   2.534  1.00  0.00    -0.018 C 
HETATM   15  C   UNL     1      44.426 -21.444   1.973  1.00  0.00     0.010 C 
HETATM   16  C   UNL     1      44.441 -20.028   4.054  1.00  0.00     0.004 C 
HETATM   17  C   UNL     1      44.178 -18.653   4.660  1.00  0.00     0.001 C 
HETATM   18  C   UNL     1      42.790 -18.132   4.292  1.00  0.00     0.006 C 
ENDBRANCH  11  12
ENDBRANCH   7  11
ENDBRANCH   2   5
BRANCH   1  19
HETATM   19  C   UNL     1      39.102 -14.818  -3.258  1.00  0.00     0.121 A 
HETATM   20  N   UNL     1      38.130 -15.737  -3.533  1.00  0.00    -0.272 N 
HETATM   21  N   UNL     1      36.964 -15.204  -3.929  1.00  0.00    -0.174 NA
HETATM   22  H   UNL     1      38.215 -16.748  -3.483  1.00  0.00     0.189 HD
HETATM   23  C   UNL     1      37.161 -13.877  -3.871  1.00  0.00     0.089 A 
HETATM   24  C   UNL     1      38.494 -13.595  -3.460  1.00  0.00     0.071 A 
BRANCH  23  25
HETATM   25  C   UNL     1      36.109 -12.918  -4.215  1.00  0.00    -0.006 A 
HETATM   26  C   UNL     1      35.221 -13.173  -5.269  1.00  0.00     0.014 A 
HETATM   27  C   UNL     1      34.203 -12.264  -5.579  1.00  0.00     0.007 A 
HETATM   28  C   UNL     1      34.061 -11.081  -4.847  1.00  0.00    -0.062 A 
HETATM   29  C   UNL     1      32.948 -10.122  -5.150  1.00  0.00     0.048 C 
HETATM   30  C   UNL     1      34.942 -10.827  -3.790  1.00  0.00     0.007 A 
HETATM   31  C   UNL     1      35.962 -11.733  -3.484  1.00  0.00     0.014 A 
ENDBRANCH  23  25
ENDBRANCH   1  19
TORSDOF 5
ENDMDL
MODEL 8
REMARK VINA RESULT:      -8.5      3.115     11.156
REMARK  5 active torsions:
REMARK  status: ('A' for Active; 'I' for Inactive)
REMARK    1  A    between atoms: C_5  and  C_6 
REMARK    2  A    between atoms: C_10  and  C_11 
REMARK       I    between atoms: C_11  and  N_12 
REMARK    3  A    between atoms: N_12  and  N_13 
REMARK       I    between atoms: N_13  and  C_14 
REMARK       I    between atoms: C_14  and  N_15 
REMARK    4  A    between atoms: N_15  and  C_16 
REMARK    5  A    between atoms: C_16  and  C_17 
ROOT
HETATM    1  C   UNL     1      39.335 -11.447   7.356  1.00  0.00     0.288 C 
HETATM    2  N   UNL     1      39.418 -12.818   7.454  1.00  0.00    -0.261 N 
HETATM    3  O   UNL     1      39.050 -10.879   6.303  1.00  0.00    -0.264 OA
HETATM    4  H   UNL     1      39.679 -13.313   8.303  1.00  0.00     0.190 HD
ENDROOT
BRANCH   2   5
HETATM    5  N   UNL     1      39.206 -13.615   6.320  1.00  0.00    -0.249 N 
HETATM    6  C   UNL     1      40.339 -14.051   5.666  1.00  0.00     0.334 C 
HETATM    7  N   UNL     1      40.052 -14.944   4.666  1.00  0.00    -0.341 N 
HETATM    8  O   UNL     1      41.466 -13.661   5.957  1.00  0.00    -0.246 OA
HETATM    9  H   UNL     1      39.126 -14.862   4.271  1.00  0.00     0.164 HD
HETATM   10  H   UNL     1      38.397 -14.227   6.366  1.00  0.00     0.192 HD
BRANCH   7  11
HETATM   11  C   UNL     1      41.097 -15.442   3.791  1.00  0.00     0.129 C 
BRANCH  11  12
HETATM   12  C   UNL     1      41.033 -16.967   3.573  1.00  0.00     0.004 C 
HETATM   13  C   UNL     1      41.722 -17.414   2.271  1.00  0.00     0.010 C 
HETATM   14  C   UNL     1      43.254 -17.314   2.332  1.00  0.00    -0.018 C 
HETATM   15  C   UNL     1      43.876 -17.845   1.040  1.00  0.00     0.010 C 
HETATM   16  C   UNL     1      43.804 -18.075   3.545  1.00  0.00     0.004 C 
HETATM   17  C   UNL     1      43.149 -17.623   4.847  1.00  0.00     0.001 C 
HETATM   18  C   UNL     1      41.627 -17.721   4.775  1.00  0.00     0.006 C 
ENDBRANCH  11  12
ENDBRANCH   7  11
ENDBRANCH   2   5
BRANCH   1  19
HETATM   19  C   UNL     1      39.610 -10.735   8.574  1.00  0.00     0.121 A 
HETATM   20  N   UNL     1      39.340  -9.404   8.715  1.00  0.00    -0.272 N 
HETATM   21  N   UNL     1      39.691  -8.894   9.905  1.00  0.00    -0.174 NA
HETATM   22  H   UNL     1      38.929  -8.787   8.019  1.00  0.00     0.189 HD
HETATM   23  C   UNL     1      40.172  -9.941  10.594  1.00  0.00     0.089 A 
HETATM   24  C   UNL     1      40.144 -11.114   9.789  1.00  0.00     0.071 A 
BRANCH  23  25
HETATM   25  C   UNL     1      40.656  -9.812  11.970  1.00  0.00    -0.006 A 
HETATM   26  C   UNL     1      41.605 -10.705  12.485  1.00  0.00     0.014 A 
HETATM   27  C   UNL     1      42.081 -10.564  13.793  1.00  0.00     0.007 A 
HETATM   28  C   UNL     1      41.610  -9.533  14.612  1.00  0.00    -0.062 A 
HETATM   29  C   UNL     1      42.145  -9.354  16.003  1.00  0.00     0.048 C 
HETATM   30  C   UNL     1      40.667  -8.636  14.099  1.00  0.00     0.007 A 
HETATM   31  C   UNL     1      40.189  -8.780  12.793  1.00  0.00     0.014 A 
ENDBRANCH  23  25
ENDBRANCH   1  19
TORSDOF 5
ENDMDL
MODEL 9
REMARK VINA RESULT:      -8.4      2.308     10.283
REMARK  5 active torsions:
REMARK  status: ('A' for Active; 'I' for Inactive)
REMARK    1  A    between atoms: C_5  and  C_6 
REMARK    2  A    between atoms: C_10  and  C_11 
REMARK       I    between atoms: C_11  and  N_12 
REMARK    3  A    between atoms: N_12  and  N_13 
REMARK       I    between atoms: N_13  and  C_14 
REMARK       I    between atoms: C_14  and  N_15 
REMARK    4  A    between atoms: N_15  and  C_16 
REMARK    5  A    between atoms: C_16  and  C_17 
ROOT
HETATM    1  C   UNL     1      45.186 -13.426   7.602  1.00  0.00     0.288 C 
HETATM    2  N   UNL     1      44.331 -14.504   7.642  1.00  0.00    -0.261 N 
HETATM    3  O   UNL     1      46.059 -13.310   6.743  1.00  0.00    -0.264 OA
HETATM    4  H   UNL     1      43.620 -14.640   8.356  1.00  0.00     0.190 HD
ENDROOT
BRANCH   2   5
HETATM    5  N   UNL     1      44.460 -15.535   6.700  1.00  0.00    -0.249 N 
HETATM    6  C   UNL     1      43.287 -15.989   6.135  1.00  0.00     0.334 C 
HETATM    7  N   UNL     1      43.511 -16.883   5.120  1.00  0.00    -0.341 N 
HETATM    8  O   UNL     1      42.179 -15.626   6.521  1.00  0.00    -0.246 OA
HETATM    9  H   UNL     1      44.383 -17.390   5.180  1.00  0.00     0.164 HD
HETATM   10  H   UNL     1      45.300 -15.499   6.131  1.00  0.00     0.192 HD
BRANCH   7  11
HETATM   11  C   UNL     1      42.405 -17.556   4.465  1.00  0.00     0.129 C 
BRANCH  11  12
HETATM   12  C   UNL     1      42.446 -17.441   2.928  1.00  0.00     0.004 C 
HETATM   13  C   UNL     1      41.074 -17.103   2.316  1.00  0.00     0.010 C 
HETATM   14  C   UNL     1      40.633 -15.656   2.583  1.00  0.00    -0.018 C 
HETATM   15  C   UNL     1      39.304 -15.365   1.884  1.00  0.00     0.010 C 
HETATM   16  C   UNL     1      41.709 -14.663   2.126  1.00  0.00     0.004 C 
HETATM   17  C   UNL     1      43.068 -14.969   2.746  1.00  0.00     0.001 C 
HETATM   18  C   UNL     1      43.497 -16.411   2.480  1.00  0.00     0.006 C 
ENDBRANCH  11  12
ENDBRANCH   7  11
ENDBRANCH   2   5
BRANCH   1  19
HETATM   19  C   UNL     1      44.983 -12.453   8.640  1.00  0.00     0.121 A 
HETATM   20  N   UNL     1      45.811 -11.378   8.802  1.00  0.00    -0.272 N 
HETATM   21  N   UNL     1      45.493 -10.590   9.840  1.00  0.00    -0.174 NA
HETATM   22  H   UNL     1      46.623 -11.143   8.239  1.00  0.00     0.189 HD
HETATM   23  C   UNL     1      44.385 -11.143  10.359  1.00  0.00     0.089 A 
HETATM   24  C   UNL     1      44.037 -12.318   9.636  1.00  0.00     0.071 A 
BRANCH  23  25
HETATM   25  C   UNL     1      43.697 -10.569  11.517  1.00  0.00    -0.006 A 
HETATM   26  C   UNL     1      43.457  -9.190  11.599  1.00  0.00     0.014 A 
HETATM   27  C   UNL     1      42.779  -8.649  12.697  1.00  0.00     0.007 A 
HETATM   28  C   UNL     1      42.338  -9.474  13.736  1.00  0.00    -0.062 A 
HETATM   29  C   UNL     1      41.577  -8.904  14.897  1.00  0.00     0.048 C 
HETATM   30  C   UNL     1      42.571 -10.851  13.654  1.00  0.00     0.007 A 
HETATM   31  C   UNL     1      43.252 -11.391  12.559  1.00  0.00     0.014 A 
ENDBRANCH  23  25
ENDBRANCH   1  19
TORSDOF 5
ENDMDL
MODEL 10
REMARK VINA RESULT:      -8.4      2.407     10.773
REMARK  5 active torsions:
REMARK  status: ('A' for Active; 'I' for Inactive)
REMARK    1  A    between atoms: C_5  and  C_6 
REMARK    2  A    between atoms: C_10  and  C_11 
REMARK       I    between atoms: C_11  and  N_12 
REMARK    3  A    between atoms: N_12  and  N_13 
REMARK       I    between atoms: N_13  and  C_14 
REMARK       I    between atoms: C_14  and  N_15 
REMARK    4  A    between atoms: N_15  and  C_16 
REMARK    5  A    between atoms: C_16  and  C_17 
ROOT
HETATM    1  C   UNL     1      41.583 -11.737   5.242  1.00  0.00     0.288 C 
HETATM    2  N   UNL     1      42.312 -12.904   5.209  1.00  0.00    -0.261 N 
HETATM    3  O   UNL     1      40.862 -11.386   4.309  1.00  0.00    -0.264 OA
HETATM    4  H   UNL     1      42.937 -13.206   5.953  1.00  0.00     0.190 HD
ENDROOT
BRANCH   2   5
HETATM    5  N   UNL     1      42.274 -13.722   4.071  1.00  0.00    -0.249 N 
HETATM    6  C   UNL     1      42.975 -14.906   4.152  1.00  0.00     0.334 C 
HETATM    7  N   UNL     1      42.763 -15.713   3.065  1.00  0.00    -0.341 N 
HETATM    8  O   UNL     1      43.709 -15.180   5.098  1.00  0.00    -0.246 OA
HETATM    9  H   UNL     1      42.499 -15.230   2.217  1.00  0.00     0.164 HD
HETATM   10  H   UNL     1      41.402 -13.701   3.552  1.00  0.00     0.192 HD
BRANCH   7  11
HETATM   11  C   UNL     1      43.490 -16.959   2.910  1.00  0.00     0.129 C 
BRANCH  11  12
HETATM   12  C   UNL     1      42.703 -18.190   3.404  1.00  0.00     0.004 C 
HETATM   13  C   UNL     1      42.882 -19.419   2.494  1.00  0.00     0.010 C 
HETATM   14  C   UNL     1      44.277 -20.054   2.603  1.00  0.00    -0.018 C 
HETATM   15  C   UNL     1      44.361 -21.310   1.736  1.00  0.00     0.010 C 
HETATM   16  C   UNL     1      44.615 -20.384   4.063  1.00  0.00     0.004 C 
HETATM   17  C   UNL     1      44.468 -19.168   4.971  1.00  0.00     0.001 C 
HETATM   18  C   UNL     1      43.080 -18.540   4.853  1.00  0.00     0.006 C 
ENDBRANCH  11  12
ENDBRANCH   7  11
ENDBRANCH   2   5
BRANCH   1  19
HETATM   19  C   UNL     1      41.731 -10.963   6.444  1.00  0.00     0.121 A 
HETATM   20  N   UNL     1      41.507  -9.616   6.474  1.00  0.00    -0.272 N 
HETATM   21  N   UNL     1      41.725  -9.049   7.670  1.00  0.00    -0.174 NA
HETATM   22  H   UNL     1      41.218  -9.028   5.698  1.00  0.00     0.189 HD
HETATM   23  C   UNL     1      42.065 -10.070   8.473  1.00  0.00     0.089 A 
HETATM   24  C   UNL     1      42.086 -11.288   7.738  1.00  0.00     0.071 A 
BRANCH  23  25
HETATM   25  C   UNL     1      42.373  -9.876   9.891  1.00  0.00    -0.006 A 
HETATM   26  C   UNL     1      43.530 -10.427  10.458  1.00  0.00     0.014 A 
HETATM   27  C   UNL     1      43.832 -10.221  11.808  1.00  0.00     0.007 A 
HETATM   28  C   UNL     1      42.978  -9.466  12.618  1.00  0.00    -0.062 A 
HETATM   29  C   UNL     1      43.315  -9.208  14.057  1.00  0.00     0.048 C 
HETATM   30  C   UNL     1      41.824  -8.909  12.055  1.00  0.00     0.007 A 
HETATM   31  C   UNL     1      41.521  -9.120  10.706  1.00  0.00     0.014 A 
ENDBRANCH  23  25
ENDBRANCH   1  19
TORSDOF 5
ENDMDL
