MODEL 1
REMARK VINA RESULT:      -7.4      0.000      0.000
REMARK  3 active torsions:
REMARK  status: ('A' for Active; 'I' for Inactive)
REMARK    1  A    between atoms: C_2  and  C_3 
REMARK    2  A    between atoms: C_7  and  N_8 
REMARK       I    between atoms: N_8  and  C_9 
REMARK    3  A    between atoms: C_9  and  C_10 
ROOT
HETATM    1  N   UNL     1      43.351 -14.830   6.832  1.00  0.00    -0.311 N 
HETATM    2  C   UNL     1      43.527 -16.201   6.741  1.00  0.00     0.234 C 
HETATM    3  O   UNL     1      44.584 -16.776   7.011  1.00  0.00    -0.272 OA
HETATM    4  H   UNL     1      42.455 -14.413   6.599  1.00  0.00     0.170 HD
ENDROOT
BRANCH   2   5
HETATM    5  C   UNL     1      42.300 -16.997   6.329  1.00  0.00     0.138 C 
HETATM    6  C   UNL     1      42.346 -17.555   4.952  1.00  0.00    -0.008 A 
HETATM    7  C   UNL     1      41.488 -16.834   4.136  1.00  0.00     0.076 A 
HETATM    8  C   UNL     1      43.118 -18.584   4.437  1.00  0.00     0.030 A 
HETATM    9  C   UNL     1      41.366 -17.095   2.787  1.00  0.00     0.039 A 
HETATM   10  O   UNL     1      40.831 -15.824   4.786  1.00  0.00    -0.349 OA
HETATM   11  C   UNL     1      42.132 -18.134   2.251  1.00  0.00     0.022 A 
HETATM   12  C   UNL     1      43.000 -18.869   3.074  1.00  0.00     0.011 A 
HETATM   13 BR   UNL     1      44.037 -20.260   2.322  1.00  0.00    -0.051 Br
HETATM   14  C   UNL     1      41.073 -16.089   6.192  1.00  0.00     0.194 C 
ENDBRANCH   2   5
BRANCH   1  15
HETATM   15  C   UNL     1      44.382 -13.981   7.184  1.00  0.00     0.126 A 
HETATM   16  N   UNL     1      45.547 -13.835   6.476  1.00  0.00    -0.262 N 
HETATM   17  N   UNL     1      46.396 -12.943   7.016  1.00  0.00    -0.178 NA
HETATM   18  H   UNL     1      45.802 -14.321   5.620  1.00  0.00     0.191 HD
HETATM   19  C   UNL     1      45.748 -12.500   8.100  1.00  0.00     0.058 A 
HETATM   20  C   UNL     1      44.487 -13.127   8.253  1.00  0.00     0.079 A 
BRANCH  19  21
HETATM   21  C   UNL     1      46.367 -11.463   8.976  1.00  0.00     0.056 C 
HETATM   22  C   UNL     1      45.414 -10.978  10.059  1.00  0.00     0.011 C 
ENDBRANCH  19  21
ENDBRANCH   1  15
TORSDOF 3
ENDMDL
MODEL 2
REMARK VINA RESULT:      -7.4      1.776      1.965
REMARK  3 active torsions:
REMARK  status: ('A' for Active; 'I' for Inactive)
REMARK    1  A    between atoms: C_2  and  C_3 
REMARK    2  A    between atoms: C_7  and  N_8 
REMARK       I    between atoms: N_8  and  C_9 
REMARK    3  A    between atoms: C_9  and  C_10 
ROOT
HETATM    1  N   UNL     1      43.620 -14.324   6.699  1.00  0.00    -0.311 N 
HETATM    2  C   UNL     1      43.534 -14.310   5.316  1.00  0.00     0.234 C 
HETATM    3  O   UNL     1      44.265 -13.631   4.591  1.00  0.00    -0.272 OA
HETATM    4  H   UNL     1      42.993 -14.907   7.244  1.00  0.00     0.170 HD
ENDROOT
BRANCH   2   5
HETATM    5  C   UNL     1      42.497 -15.241   4.710  1.00  0.00     0.138 C 
HETATM    6  C   UNL     1      43.044 -16.488   4.114  1.00  0.00    -0.008 A 
HETATM    7  C   UNL     1      42.984 -16.398   2.732  1.00  0.00     0.076 A 
HETATM    8  C   UNL     1      43.598 -17.597   4.731  1.00  0.00     0.030 A 
HETATM    9  C   UNL     1      43.475 -17.393   1.911  1.00  0.00     0.039 A 
HETATM   10  O   UNL     1      42.450 -15.222   2.279  1.00  0.00    -0.349 OA
HETATM   11  C   UNL     1      44.032 -18.522   2.515  1.00  0.00     0.022 A 
HETATM   12  C   UNL     1      44.091 -18.619   3.915  1.00  0.00     0.011 A 
HETATM   13 BR   UNL     1      44.864 -20.152   4.709  1.00  0.00    -0.051 Br
HETATM   14  C   UNL     1      41.861 -14.621   3.462  1.00  0.00     0.194 C 
ENDBRANCH   2   5
BRANCH   1  15
HETATM   15  C   UNL     1      44.509 -13.522   7.385  1.00  0.00     0.126 A 
HETATM   16  N   UNL     1      45.841 -13.399   7.084  1.00  0.00    -0.262 N 
HETATM   17  N   UNL     1      46.500 -12.551   7.894  1.00  0.00    -0.178 NA
HETATM   18  H   UNL     1      46.340 -13.872   6.335  1.00  0.00     0.191 HD
HETATM   19  C   UNL     1      45.555 -12.112   8.735  1.00  0.00     0.058 A 
HETATM   20  C   UNL     1      44.295 -12.698   8.463  1.00  0.00     0.079 A 
BRANCH  19  21
HETATM   21  C   UNL     1      45.894 -11.120   9.796  1.00  0.00     0.056 C 
HETATM   22  C   UNL     1      44.729 -10.868  10.743  1.00  0.00     0.011 C 
ENDBRANCH  19  21
ENDBRANCH   1  15
TORSDOF 3
ENDMDL
MODEL 3
REMARK VINA RESULT:      -7.3      5.003      8.150
REMARK  3 active torsions:
REMARK  status: ('A' for Active; 'I' for Inactive)
REMARK    1  A    between atoms: C_2  and  C_3 
REMARK    2  A    between atoms: C_7  and  N_8 
REMARK       I    between atoms: N_8  and  C_9 
REMARK    3  A    between atoms: C_9  and  C_10 
ROOT
HETATM    1  N   UNL     1      42.142 -15.404  -0.285  1.00  0.00    -0.311 N 
HETATM    2  C   UNL     1      42.121 -16.255   0.808  1.00  0.00     0.234 C 
HETATM    3  O   UNL     1      41.132 -16.908   1.149  1.00  0.00    -0.272 OA
HETATM    4  H   UNL     1      42.988 -14.895  -0.520  1.00  0.00     0.170 HD
ENDROOT
BRANCH   2   5
HETATM    5  C   UNL     1      43.433 -16.392   1.562  1.00  0.00     0.138 C 
HETATM    6  C   UNL     1      43.625 -17.692   2.258  1.00  0.00    -0.008 A 
HETATM    7  C   UNL     1      43.480 -17.505   3.625  1.00  0.00     0.076 A 
HETATM    8  C   UNL     1      43.858 -18.953   1.734  1.00  0.00     0.030 A 
HETATM    9  C   UNL     1      43.553 -18.553   4.519  1.00  0.00     0.039 A 
HETATM   10  O   UNL     1      43.211 -16.210   3.977  1.00  0.00    -0.349 OA
HETATM   11  C   UNL     1      43.794 -19.831   4.010  1.00  0.00     0.022 A 
HETATM   12  C   UNL     1      43.944 -20.025   2.627  1.00  0.00     0.011 A 
HETATM   13 BR   UNL     1      44.255 -21.767   1.961  1.00  0.00    -0.051 Br
HETATM   14  C   UNL     1      43.477 -15.451   2.770  1.00  0.00     0.194 C 
ENDBRANCH   2   5
BRANCH   1  15
HETATM   15  C   UNL     1      41.020 -15.174  -1.056  1.00  0.00     0.126 A 
HETATM   16  N   UNL     1      39.887 -14.541  -0.613  1.00  0.00    -0.262 N 
HETATM   17  N   UNL     1      38.931 -14.431  -1.553  1.00  0.00    -0.178 NA
HETATM   18  H   UNL     1      39.726 -14.168   0.318  1.00  0.00     0.191 HD
HETATM   19  C   UNL     1      39.475 -15.006  -2.633  1.00  0.00     0.058 A 
HETATM   20  C   UNL     1      40.778 -15.495  -2.369  1.00  0.00     0.079 A 
BRANCH  19  21
HETATM   21  C   UNL     1      38.716 -15.068  -3.916  1.00  0.00     0.056 C 
HETATM   22  C   UNL     1      37.210 -15.063  -3.696  1.00  0.00     0.011 C 
ENDBRANCH  19  21
ENDBRANCH   1  15
TORSDOF 3
ENDMDL
MODEL 4
REMARK VINA RESULT:      -7.0      3.873      5.851
REMARK  3 active torsions:
REMARK  status: ('A' for Active; 'I' for Inactive)
REMARK    1  A    between atoms: C_2  and  C_3 
REMARK    2  A    between atoms: C_7  and  N_8 
REMARK       I    between atoms: N_8  and  C_9 
REMARK    3  A    between atoms: C_9  and  C_10 
ROOT
HETATM    1  N   UNL     1      42.750 -16.462   3.950  1.00  0.00    -0.311 N 
HETATM    2  C   UNL     1      42.837 -17.231   5.099  1.00  0.00     0.234 C 
HETATM    3  O   UNL     1      41.887 -17.442   5.856  1.00  0.00    -0.272 OA
HETATM    4  H   UNL     1      43.567 -16.326   3.363  1.00  0.00     0.170 HD
ENDROOT
BRANCH   2   5
HETATM    5  C   UNL     1      44.191 -17.867   5.366  1.00  0.00     0.138 C 
HETATM    6  C   UNL     1      44.320 -19.280   4.924  1.00  0.00    -0.008 A 
HETATM    7  C   UNL     1      44.314 -20.109   6.035  1.00  0.00     0.076 A 
HETATM    8  C   UNL     1      44.386 -19.807   3.644  1.00  0.00     0.030 A 
HETATM    9  C   UNL     1      44.364 -21.484   5.925  1.00  0.00     0.039 A 
HETATM   10  O   UNL     1      44.199 -19.438   7.222  1.00  0.00    -0.349 OA
HETATM   11  C   UNL     1      44.438 -22.033   4.642  1.00  0.00     0.022 A 
HETATM   12  C   UNL     1      44.448 -21.197   3.514  1.00  0.00     0.011 A 
HETATM   13 BR   UNL     1      44.533 -21.967   1.788  1.00  0.00    -0.051 Br
HETATM   14  C   UNL     1      44.429 -18.049   6.868  1.00  0.00     0.194 C 
ENDBRANCH   2   5
BRANCH   1  15
HETATM   15  C   UNL     1      41.585 -15.816   3.588  1.00  0.00     0.126 A 
HETATM   16  N   UNL     1      40.888 -14.955   4.397  1.00  0.00    -0.262 N 
HETATM   17  N   UNL     1      39.786 -14.446   3.817  1.00  0.00    -0.178 NA
HETATM   18  H   UNL     1      41.129 -14.687   5.348  1.00  0.00     0.191 HD
HETATM   19  C   UNL     1      39.785 -14.992   2.595  1.00  0.00     0.058 A 
HETATM   20  C   UNL     1      40.886 -15.865   2.407  1.00  0.00     0.079 A 
BRANCH  19  21
HETATM   21  C   UNL     1      38.709 -14.653   1.620  1.00  0.00     0.056 C 
HETATM   22  C   UNL     1      39.267 -14.163   0.292  1.00  0.00     0.011 C 
ENDBRANCH  19  21
ENDBRANCH   1  15
TORSDOF 3
ENDMDL
MODEL 5
REMARK VINA RESULT:      -6.9      5.109      7.059
REMARK  3 active torsions:
REMARK  status: ('A' for Active; 'I' for Inactive)
REMARK    1  A    between atoms: C_2  and  C_3 
REMARK    2  A    between atoms: C_7  and  N_8 
REMARK       I    between atoms: N_8  and  C_9 
REMARK    3  A    between atoms: C_9  and  C_10 
ROOT
HETATM    1  N   UNL     1      41.582 -17.162   1.142  1.00  0.00    -0.311 N 
HETATM    2  C   UNL     1      42.760 -17.841   1.406  1.00  0.00     0.234 C 
HETATM    3  O   UNL     1      43.867 -17.477   1.003  1.00  0.00    -0.272 OA
HETATM    4  H   UNL     1      40.700 -17.508   1.504  1.00  0.00     0.170 HD
ENDROOT
BRANCH   2   5
HETATM    5  C   UNL     1      42.628 -19.070   2.291  1.00  0.00     0.138 C 
HETATM    6  C   UNL     1      43.145 -18.907   3.675  1.00  0.00    -0.008 A 
HETATM    7  C   UNL     1      44.335 -19.606   3.804  1.00  0.00     0.076 A 
HETATM    8  C   UNL     1      42.640 -18.162   4.728  1.00  0.00     0.030 A 
HETATM    9  C   UNL     1      45.072 -19.589   4.970  1.00  0.00     0.039 A 
HETATM   10  O   UNL     1      44.720 -20.253   2.661  1.00  0.00    -0.349 OA
HETATM   11  C   UNL     1      44.575 -18.849   6.046  1.00  0.00     0.022 A 
HETATM   12  C   UNL     1      43.368 -18.142   5.921  1.00  0.00     0.011 A 
HETATM   13 BR   UNL     1      42.725 -17.135   7.387  1.00  0.00    -0.051 Br
HETATM   14  C   UNL     1      43.546 -20.198   1.810  1.00  0.00     0.194 C 
ENDBRANCH   2   5
BRANCH   1  15
HETATM   15  C   UNL     1      41.550 -16.036   0.344  1.00  0.00     0.126 A 
HETATM   16  N   UNL     1      41.219 -16.032  -0.986  1.00  0.00    -0.262 N 
HETATM   17  N   UNL     1      41.255 -14.810  -1.546  1.00  0.00    -0.178 NA
HETATM   18  H   UNL     1      40.962 -16.838  -1.549  1.00  0.00     0.191 HD
HETATM   19  C   UNL     1      41.612 -14.005  -0.537  1.00  0.00     0.058 A 
HETATM   20  C   UNL     1      41.817 -14.727   0.664  1.00  0.00     0.079 A 
BRANCH  19  21
HETATM   21  C   UNL     1      41.745 -12.536  -0.757  1.00  0.00     0.056 C 
HETATM   22  C   UNL     1      40.441 -11.900  -1.216  1.00  0.00     0.011 C 
ENDBRANCH  19  21
ENDBRANCH   1  15
TORSDOF 3
ENDMDL
MODEL 6
REMARK VINA RESULT:      -6.9      3.999      6.719
REMARK  3 active torsions:
REMARK  status: ('A' for Active; 'I' for Inactive)
REMARK    1  A    between atoms: C_2  and  C_3 
REMARK    2  A    between atoms: C_7  and  N_8 
REMARK       I    between atoms: N_8  and  C_9 
REMARK    3  A    between atoms: C_9  and  C_10 
ROOT
HETATM    1  N   UNL     1      43.394 -16.635   3.592  1.00  0.00    -0.311 N 
HETATM    2  C   UNL     1      42.373 -16.204   4.423  1.00  0.00     0.234 C 
HETATM    3  O   UNL     1      41.734 -16.950   5.168  1.00  0.00    -0.272 OA
HETATM    4  H   UNL     1      43.888 -15.972   3.003  1.00  0.00     0.170 HD
ENDROOT
BRANCH   2   5
HETATM    5  C   UNL     1      42.103 -14.708   4.414  1.00  0.00     0.138 C 
HETATM    6  C   UNL     1      41.407 -14.202   3.201  1.00  0.00    -0.008 A 
HETATM    7  C   UNL     1      42.309 -13.499   2.417  1.00  0.00     0.076 A 
HETATM    8  C   UNL     1      40.098 -14.386   2.788  1.00  0.00     0.030 A 
HETATM    9  C   UNL     1      41.954 -12.960   1.197  1.00  0.00     0.039 A 
HETATM   10  O   UNL     1      43.571 -13.445   2.943  1.00  0.00    -0.349 OA
HETATM   11  C   UNL     1      40.636 -13.129   0.767  1.00  0.00     0.022 A 
HETATM   12  C   UNL     1      39.719 -13.837   1.560  1.00  0.00     0.011 A 
HETATM   13 BR   UNL     1      37.944 -14.066   0.948  1.00  0.00    -0.051 Br
HETATM   14  C   UNL     1      43.407 -13.911   4.308  1.00  0.00     0.194 C 
ENDBRANCH   2   5
BRANCH   1  15
HETATM   15  C   UNL     1      43.741 -17.967   3.490  1.00  0.00     0.126 A 
HETATM   16  N   UNL     1      44.246 -18.722   4.517  1.00  0.00    -0.262 N 
HETATM   17  N   UNL     1      44.502 -19.996   4.173  1.00  0.00    -0.178 NA
HETATM   18  H   UNL     1      44.428 -18.409   5.467  1.00  0.00     0.191 HD
HETATM   19  C   UNL     1      44.141 -20.059   2.885  1.00  0.00     0.058 A 
HETATM   20  C   UNL     1      43.667 -18.811   2.410  1.00  0.00     0.079 A 
BRANCH  19  21
HETATM   21  C   UNL     1      44.258 -21.341   2.131  1.00  0.00     0.056 C 
HETATM   22  C   UNL     1      44.564 -22.521   3.043  1.00  0.00     0.011 C 
ENDBRANCH  19  21
ENDBRANCH   1  15
TORSDOF 3
ENDMDL
MODEL 7
REMARK VINA RESULT:      -6.9      5.087      7.217
REMARK  3 active torsions:
REMARK  status: ('A' for Active; 'I' for Inactive)
REMARK    1  A    between atoms: C_2  and  C_3 
REMARK    2  A    between atoms: C_7  and  N_8 
REMARK       I    between atoms: N_8  and  C_9 
REMARK    3  A    between atoms: C_9  and  C_10 
ROOT
HETATM    1  N   UNL     1      41.959 -16.832   2.419  1.00  0.00    -0.311 N 
HETATM    2  C   UNL     1      42.458 -15.539   2.416  1.00  0.00     0.234 C 
HETATM    3  O   UNL     1      43.623 -15.253   2.701  1.00  0.00    -0.272 OA
HETATM    4  H   UNL     1      40.991 -17.007   2.171  1.00  0.00     0.170 HD
ENDROOT
BRANCH   2   5
HETATM    5  C   UNL     1      41.484 -14.458   1.977  1.00  0.00     0.138 C 
HETATM    6  C   UNL     1      41.416 -14.232   0.509  1.00  0.00    -0.008 A 
HETATM    7  C   UNL     1      42.045 -13.035   0.201  1.00  0.00     0.076 A 
HETATM    8  C   UNL     1      40.888 -15.035  -0.489  1.00  0.00     0.030 A 
HETATM    9  C   UNL     1      42.183 -12.593  -1.098  1.00  0.00     0.039 A 
HETATM   10  O   UNL     1      42.550 -12.383   1.293  1.00  0.00    -0.349 OA
HETATM   11  C   UNL     1      41.651 -13.387  -2.118  1.00  0.00     0.022 A 
HETATM   12  C   UNL     1      41.010 -14.597  -1.811  1.00  0.00     0.011 A 
HETATM   13 BR   UNL     1      40.312 -15.661  -3.210  1.00  0.00    -0.051 Br
HETATM   14  C   UNL     1      41.959 -13.072   2.424  1.00  0.00     0.194 C 
ENDBRANCH   2   5
BRANCH   1  15
HETATM   15  C   UNL     1      42.728 -17.912   2.806  1.00  0.00     0.126 A 
HETATM   16  N   UNL     1      43.103 -18.178   4.097  1.00  0.00    -0.262 N 
HETATM   17  N   UNL     1      43.846 -19.292   4.222  1.00  0.00    -0.178 NA
HETATM   18  H   UNL     1      42.874 -17.629   4.922  1.00  0.00     0.191 HD
HETATM   19  C   UNL     1      43.941 -19.757   2.970  1.00  0.00     0.058 A 
HETATM   20  C   UNL     1      43.265 -18.922   2.047  1.00  0.00     0.079 A 
BRANCH  19  21
HETATM   21  C   UNL     1      44.688 -21.017   2.688  1.00  0.00     0.056 C 
HETATM   22  C   UNL     1      44.015 -21.860   1.615  1.00  0.00     0.011 C 
ENDBRANCH  19  21
ENDBRANCH   1  15
TORSDOF 3
ENDMDL
MODEL 8
REMARK VINA RESULT:      -6.7      3.644      4.943
REMARK  3 active torsions:
REMARK  status: ('A' for Active; 'I' for Inactive)
REMARK    1  A    between atoms: C_2  and  C_3 
REMARK    2  A    between atoms: C_7  and  N_8 
REMARK       I    between atoms: N_8  and  C_9 
REMARK    3  A    between atoms: C_9  and  C_10 
ROOT
HETATM    1  N   UNL     1      43.016 -15.921   4.551  1.00  0.00    -0.311 N 
HETATM    2  C   UNL     1      42.959 -17.222   5.025  1.00  0.00     0.234 C 
HETATM    3  O   UNL     1      41.907 -17.838   5.211  1.00  0.00    -0.272 OA
HETATM    4  H   UNL     1      43.913 -15.466   4.414  1.00  0.00     0.170 HD
ENDROOT
BRANCH   2   5
HETATM    5  C   UNL     1      44.300 -17.896   5.264  1.00  0.00     0.138 C 
HETATM    6  C   UNL     1      44.383 -19.309   4.810  1.00  0.00    -0.008 A 
HETATM    7  C   UNL     1      44.373 -20.146   5.915  1.00  0.00     0.076 A 
HETATM    8  C   UNL     1      44.414 -19.827   3.525  1.00  0.00     0.030 A 
HETATM    9  C   UNL     1      44.385 -21.521   5.793  1.00  0.00     0.039 A 
HETATM   10  O   UNL     1      44.296 -19.481   7.108  1.00  0.00    -0.349 OA
HETATM   11  C   UNL     1      44.423 -22.062   4.505  1.00  0.00     0.022 A 
HETATM   12  C   UNL     1      44.437 -21.217   3.383  1.00  0.00     0.011 A 
HETATM   13 BR   UNL     1      44.473 -21.974   1.651  1.00  0.00    -0.051 Br
HETATM   14  C   UNL     1      44.558 -18.097   6.761  1.00  0.00     0.194 C 
ENDBRANCH   2   5
BRANCH   1  15
HETATM   15  C   UNL     1      41.877 -15.183   4.300  1.00  0.00     0.126 A 
HETATM   16  N   UNL     1      40.857 -15.580   3.475  1.00  0.00    -0.262 N 
HETATM   17  N   UNL     1      39.851 -14.691   3.396  1.00  0.00    -0.178 NA
HETATM   18  H   UNL     1      40.805 -16.449   2.949  1.00  0.00     0.191 HD
HETATM   19  C   UNL     1      40.239 -13.696   4.204  1.00  0.00     0.058 A 
HETATM   20  C   UNL     1      41.505 -13.954   4.786  1.00  0.00     0.079 A 
BRANCH  19  21
HETATM   21  C   UNL     1      39.365 -12.504   4.404  1.00  0.00     0.056 C 
HETATM   22  C   UNL     1      39.324 -12.056   5.858  1.00  0.00     0.011 C 
ENDBRANCH  19  21
ENDBRANCH   1  15
TORSDOF 3
ENDMDL
MODEL 9
REMARK VINA RESULT:      -6.5      3.532      6.250
REMARK  3 active torsions:
REMARK  status: ('A' for Active; 'I' for Inactive)
REMARK    1  A    between atoms: C_2  and  C_3 
REMARK    2  A    between atoms: C_7  and  N_8 
REMARK       I    between atoms: N_8  and  C_9 
REMARK    3  A    between atoms: C_9  and  C_10 
ROOT
HETATM    1  N   UNL     1      43.618 -16.520   3.283  1.00  0.00    -0.311 N 
HETATM    2  C   UNL     1      43.154 -16.846   4.547  1.00  0.00     0.234 C 
HETATM    3  O   UNL     1      41.964 -16.822   4.868  1.00  0.00    -0.272 OA
HETATM    4  H   UNL     1      44.611 -16.562   3.076  1.00  0.00     0.170 HD
ENDROOT
BRANCH   2   5
HETATM    5  C   UNL     1      44.212 -17.301   5.540  1.00  0.00     0.138 C 
HETATM    6  C   UNL     1      44.209 -18.757   5.839  1.00  0.00    -0.008 A 
HETATM    7  C   UNL     1      43.697 -18.962   7.111  1.00  0.00     0.076 A 
HETATM    8  C   UNL     1      44.578 -19.827   5.040  1.00  0.00     0.030 A 
HETATM    9  C   UNL     1      43.524 -20.226   7.637  1.00  0.00     0.039 A 
HETATM   10  O   UNL     1      43.340 -17.807   7.753  1.00  0.00    -0.349 OA
HETATM   11  C   UNL     1      43.897 -21.317   6.848  1.00  0.00     0.022 A 
HETATM   12  C   UNL     1      44.419 -21.114   5.560  1.00  0.00     0.011 A 
HETATM   13 BR   UNL     1      44.902 -22.609   4.507  1.00  0.00    -0.051 Br
HETATM   14  C   UNL     1      43.923 -16.755   6.942  1.00  0.00     0.194 C 
ENDBRANCH   2   5
BRANCH   1  15
HETATM   15  C   UNL     1      42.772 -16.081   2.284  1.00  0.00     0.126 A 
HETATM   16  N   UNL     1      41.865 -15.062   2.423  1.00  0.00    -0.262 N 
HETATM   17  N   UNL     1      41.159 -14.814   1.306  1.00  0.00    -0.178 NA
HETATM   18  H   UNL     1      41.697 -14.509   3.260  1.00  0.00     0.191 HD
HETATM   19  C   UNL     1      41.637 -15.699   0.422  1.00  0.00     0.058 A 
HETATM   20  C   UNL     1      42.642 -16.520   0.990  1.00  0.00     0.079 A 
BRANCH  19  21
HETATM   21  C   UNL     1      41.109 -15.730  -0.973  1.00  0.00     0.056 C 
HETATM   22  C   UNL     1      40.447 -14.419  -1.369  1.00  0.00     0.011 C 
ENDBRANCH  19  21
ENDBRANCH   1  15
TORSDOF 3
ENDMDL
MODEL 10
REMARK VINA RESULT:      -6.5      4.747      6.473
REMARK  3 active torsions:
REMARK  status: ('A' for Active; 'I' for Inactive)
REMARK    1  A    between atoms: C_2  and  C_3 
REMARK    2  A    between atoms: C_7  and  N_8 
REMARK       I    between atoms: N_8  and  C_9 
REMARK    3  A    between atoms: C_9  and  C_10 
ROOT
HETATM    1  N   UNL     1      41.577 -14.970   0.921  1.00  0.00    -0.311 N 
HETATM    2  C   UNL     1      40.751 -15.236   2.001  1.00  0.00     0.234 C 
HETATM    3  O   UNL     1      40.160 -14.365   2.642  1.00  0.00    -0.272 OA
HETATM    4  H   UNL     1      42.036 -15.730   0.428  1.00  0.00     0.170 HD
ENDROOT
BRANCH   2   5
HETATM    5  C   UNL     1      40.559 -16.706   2.337  1.00  0.00     0.138 C 
HETATM    6  C   UNL     1      41.489 -17.242   3.367  1.00  0.00    -0.008 A 
HETATM    7  C   UNL     1      42.427 -18.059   2.755  1.00  0.00     0.076 A 
HETATM    8  C   UNL     1      41.542 -16.994   4.729  1.00  0.00     0.030 A 
HETATM    9  C   UNL     1      43.453 -18.653   3.461  1.00  0.00     0.039 A 
HETATM   10  O   UNL     1      42.263 -18.167   1.401  1.00  0.00    -0.349 OA
HETATM   11  C   UNL     1      43.518 -18.420   4.837  1.00  0.00     0.022 A 
HETATM   12  C   UNL     1      42.568 -17.596   5.461  1.00  0.00     0.011 A 
HETATM   13 BR   UNL     1      42.688 -17.283   7.323  1.00  0.00    -0.051 Br
HETATM   14  C   UNL     1      40.951 -17.599   1.155  1.00  0.00     0.194 C 
ENDBRANCH   2   5
BRANCH   1  15
HETATM   15  C   UNL     1      41.851 -13.681   0.509  1.00  0.00     0.126 A 
HETATM   16  N   UNL     1      42.095 -12.629   1.354  1.00  0.00    -0.262 N 
HETATM   17  N   UNL     1      42.343 -11.472   0.714  1.00  0.00    -0.178 NA
HETATM   18  H   UNL     1      42.105 -12.656   2.370  1.00  0.00     0.191 HD
HETATM   19  C   UNL     1      42.263 -11.799  -0.582  1.00  0.00     0.058 A 
HETATM   20  C   UNL     1      41.948 -13.169  -0.761  1.00  0.00     0.079 A 
BRANCH  19  21
HETATM   21  C   UNL     1      42.499 -10.769  -1.635  1.00  0.00     0.056 C 
HETATM   22  C   UNL     1      43.735  -9.927  -1.352  1.00  0.00     0.011 C 
ENDBRANCH  19  21
ENDBRANCH   1  15
TORSDOF 3
ENDMDL
