MODEL 1
REMARK VINA RESULT:      -8.6      0.000      0.000
REMARK  7 active torsions:
REMARK  status: ('A' for Active; 'I' for Inactive)
REMARK    1  A    between atoms: C_2  and  N_3 
REMARK    2  A    between atoms: C_4  and  C_5 
REMARK       I    between atoms: C_5  and  N_6 
REMARK    3  A    between atoms: N_6  and  C_7 
REMARK    4  A    between atoms: C_7  and  C_8 
REMARK    5  A    between atoms: C_19  and  N_20 
REMARK       I    between atoms: N_20  and  C_21 
REMARK    6  A    between atoms: C_21  and  C_22 
REMARK    7  A    between atoms: C_25  and  O_26 
ROOT
HETATM    1  N   UNL     1      43.138 -16.448   5.325  1.00  0.00    -0.342 N 
HETATM    2  C   UNL     1      43.487 -15.156   5.698  1.00  0.00     0.104 A 
HETATM    3  C   UNL     1      43.009 -14.331   4.686  1.00  0.00     0.049 A 
HETATM    4  C   UNL     1      42.354 -15.121   3.708  1.00  0.00    -0.005 A 
HETATM    5  C   UNL     1      42.449 -16.447   4.122  1.00  0.00     0.045 A 
HETATM    6  C   UNL     1      41.676 -14.817   2.507  1.00  0.00     0.043 A 
HETATM    7  C   UNL     1      41.103 -15.841   1.746  1.00  0.00     0.035 A 
HETATM    8  C   UNL     1      41.226 -17.164   2.179  1.00  0.00     0.032 A 
HETATM    9  C   UNL     1      41.893 -17.491   3.367  1.00  0.00     0.033 A 
ENDROOT
BRANCH   7  10
HETATM   10  N   UNL     1      40.394 -15.622   0.545  1.00  0.00    -0.323 N 
HETATM   11  C   UNL     1      40.825 -14.903  -0.557  1.00  0.00     0.256 C 
HETATM   12  O   UNL     1      41.878 -14.285  -0.674  1.00  0.00    -0.267 OA
HETATM   13  H   UNL     1      39.437 -15.946   0.532  1.00  0.00     0.169 HD
BRANCH  11  14
HETATM   14  C   UNL     1      39.858 -14.855  -1.686  1.00  0.00     0.032 A 
HETATM   15  C   UNL     1      40.103 -15.655  -2.806  1.00  0.00     0.020 A 
HETATM   16  C   UNL     1      39.206 -15.650  -3.876  1.00  0.00     0.038 A 
HETATM   17  C   UNL     1      38.046 -14.872  -3.825  1.00  0.00     0.068 A 
HETATM   18  C   UNL     1      37.802 -14.071  -2.706  1.00  0.00     0.038 A 
HETATM   19  C   UNL     1      38.703 -14.063  -1.635  1.00  0.00     0.020 A 
BRANCH  17  20
HETATM   20  O   UNL     1      37.242 -14.967  -4.927  1.00  0.00    -0.356 OA
HETATM   21  C   UNL     1      36.052 -14.188  -4.907  1.00  0.00     0.210 C 
ENDBRANCH  17  20
ENDBRANCH  11  14
ENDBRANCH   7  10
BRANCH   2  22
HETATM   22  C   UNL     1      44.177 -14.792   6.927  1.00  0.00     0.268 C 
HETATM   23  N   UNL     1      44.734 -13.534   6.938  1.00  0.00    -0.353 N 
HETATM   24  H   UNL     1      44.820 -13.024   6.070  1.00  0.00     0.162 HD
HETATM   25  O   UNL     1      44.271 -15.537   7.900  1.00  0.00    -0.266 OA
BRANCH  23  26
HETATM   26  C   UNL     1      45.548 -13.062   8.045  1.00  0.00     0.160 C 
BRANCH  26  27
HETATM   27  C   UNL     1      44.745 -12.223   9.057  1.00  0.00     0.073 C 
HETATM   28  C   UNL     1      43.508 -11.641   8.358  1.00  0.00     0.047 C 
HETATM   29  O   UNL     1      44.280 -13.071  10.132  1.00  0.00    -0.379 OA
HETATM   30  C   UNL     1      44.440 -12.372  11.377  1.00  0.00     0.169 C 
HETATM   31  C   UNL     1      44.883 -10.960  11.058  1.00  0.00     0.029 C 
HETATM   32  C   UNL     1      45.577 -11.129   9.729  1.00  0.00     0.041 C 
ENDBRANCH  26  27
ENDBRANCH  23  26
ENDBRANCH   2  22
BRANCH   1  33
HETATM   33  C   UNL     1      43.443 -17.661   6.075  1.00  0.00     0.125 C 
HETATM   34  C   UNL     1      44.738 -18.312   5.619  1.00  0.00     0.027 C 
ENDBRANCH   1  33
TORSDOF 7
ENDMDL
MODEL 2
REMARK VINA RESULT:      -8.3      4.813      6.847
REMARK  7 active torsions:
REMARK  status: ('A' for Active; 'I' for Inactive)
REMARK    1  A    between atoms: C_2  and  N_3 
REMARK    2  A    between atoms: C_4  and  C_5 
REMARK       I    between atoms: C_5  and  N_6 
REMARK    3  A    between atoms: N_6  and  C_7 
REMARK    4  A    between atoms: C_7  and  C_8 
REMARK    5  A    between atoms: C_19  and  N_20 
REMARK       I    between atoms: N_20  and  C_21 
REMARK    6  A    between atoms: C_21  and  C_22 
REMARK    7  A    between atoms: C_25  and  O_26 
ROOT
HETATM    1  N   UNL     1      40.624 -11.775   6.185  1.00  0.00    -0.342 N 
HETATM    2  C   UNL     1      41.664 -11.359   7.007  1.00  0.00     0.104 A 
HETATM    3  C   UNL     1      42.594 -12.391   6.988  1.00  0.00     0.049 A 
HETATM    4  C   UNL     1      42.127 -13.426   6.139  1.00  0.00    -0.005 A 
HETATM    5  C   UNL     1      40.888 -13.026   5.648  1.00  0.00     0.045 A 
HETATM    6  C   UNL     1      42.663 -14.669   5.737  1.00  0.00     0.043 A 
HETATM    7  C   UNL     1      41.953 -15.486   4.850  1.00  0.00     0.035 A 
HETATM    8  C   UNL     1      40.704 -15.064   4.385  1.00  0.00     0.032 A 
HETATM    9  C   UNL     1      40.153 -13.835   4.768  1.00  0.00     0.033 A 
ENDROOT
BRANCH   7  10
HETATM   10  N   UNL     1      42.424 -16.733   4.385  1.00  0.00    -0.323 N 
HETATM   11  C   UNL     1      43.176 -16.967   3.246  1.00  0.00     0.256 C 
HETATM   12  O   UNL     1      43.528 -16.144   2.408  1.00  0.00    -0.267 OA
HETATM   13  H   UNL     1      42.095 -17.544   4.889  1.00  0.00     0.169 HD
BRANCH  11  14
HETATM   14  C   UNL     1      43.536 -18.392   3.021  1.00  0.00     0.032 A 
HETATM   15  C   UNL     1      44.323 -19.039   3.979  1.00  0.00     0.020 A 
HETATM   16  C   UNL     1      44.665 -20.381   3.809  1.00  0.00     0.038 A 
HETATM   17  C   UNL     1      44.201 -21.097   2.701  1.00  0.00     0.068 A 
HETATM   18  C   UNL     1      43.416 -20.450   1.743  1.00  0.00     0.038 A 
HETATM   19  C   UNL     1      43.079 -19.101   1.902  1.00  0.00     0.020 A 
BRANCH  17  20
HETATM   20  O   UNL     1      44.591 -22.407   2.659  1.00  0.00    -0.356 OA
HETATM   21  C   UNL     1      44.753 -23.055   3.914  1.00  0.00     0.210 C 
ENDBRANCH  17  20
ENDBRANCH  11  14
ENDBRANCH   7  10
BRANCH   2  22
HETATM   22  C   UNL     1      41.732 -10.077   7.693  1.00  0.00     0.268 C 
HETATM   23  N   UNL     1      41.417 -10.109   9.032  1.00  0.00    -0.353 N 
HETATM   24  H   UNL     1      40.973 -10.932   9.416  1.00  0.00     0.162 HD
HETATM   25  O   UNL     1      42.045  -9.025   7.140  1.00  0.00    -0.266 OA
BRANCH  23  26
HETATM   26  C   UNL     1      41.332  -8.900   9.833  1.00  0.00     0.160 C 
BRANCH  26  27
HETATM   27  C   UNL     1      41.526  -9.168  11.337  1.00  0.00     0.073 C 
HETATM   28  C   UNL     1      40.337  -8.580  12.110  1.00  0.00     0.047 C 
HETATM   29  O   UNL     1      41.541 -10.594  11.580  1.00  0.00    -0.379 OA
HETATM   30  C   UNL     1      42.571 -10.891  12.536  1.00  0.00     0.169 C 
HETATM   31  C   UNL     1      43.129  -9.575  13.034  1.00  0.00     0.029 C 
HETATM   32  C   UNL     1      42.859  -8.647  11.876  1.00  0.00     0.041 C 
ENDBRANCH  26  27
ENDBRANCH  23  26
ENDBRANCH   2  22
BRANCH   1  33
HETATM   33  C   UNL     1      39.407 -11.021   5.907  1.00  0.00     0.125 C 
HETATM   34  C   UNL     1      39.537 -10.150   4.669  1.00  0.00     0.027 C 
ENDBRANCH   1  33
TORSDOF 7
ENDMDL
MODEL 3
REMARK VINA RESULT:      -8.1      2.765     11.317
REMARK  7 active torsions:
REMARK  status: ('A' for Active; 'I' for Inactive)
REMARK    1  A    between atoms: C_2  and  N_3 
REMARK    2  A    between atoms: C_4  and  C_5 
REMARK       I    between atoms: C_5  and  N_6 
REMARK    3  A    between atoms: N_6  and  C_7 
REMARK    4  A    between atoms: C_7  and  C_8 
REMARK    5  A    between atoms: C_19  and  N_20 
REMARK       I    between atoms: N_20  and  C_21 
REMARK    6  A    between atoms: C_21  and  C_22 
REMARK    7  A    between atoms: C_25  and  O_26 
ROOT
HETATM    1  N   UNL     1      40.361 -14.629   2.223  1.00  0.00    -0.342 N 
HETATM    2  C   UNL     1      41.504 -14.567   1.436  1.00  0.00     0.104 A 
HETATM    3  C   UNL     1      42.466 -13.940   2.218  1.00  0.00     0.049 A 
HETATM    4  C   UNL     1      41.913 -13.637   3.488  1.00  0.00    -0.005 A 
HETATM    5  C   UNL     1      40.591 -14.072   3.472  1.00  0.00     0.045 A 
HETATM    6  C   UNL     1      42.432 -13.039   4.657  1.00  0.00     0.043 A 
HETATM    7  C   UNL     1      41.623 -12.890   5.788  1.00  0.00     0.035 A 
HETATM    8  C   UNL     1      40.295 -13.323   5.739  1.00  0.00     0.032 A 
HETATM    9  C   UNL     1      39.758 -13.921   4.591  1.00  0.00     0.033 A 
ENDROOT
BRANCH   7  10
HETATM   10  N   UNL     1      42.068 -12.320   7.001  1.00  0.00    -0.323 N 
HETATM   11  C   UNL     1      42.022 -10.984   7.359  1.00  0.00     0.256 C 
HETATM   12  O   UNL     1      41.632 -10.046   6.673  1.00  0.00    -0.267 OA
HETATM   13  H   UNL     1      42.556 -12.945   7.628  1.00  0.00     0.169 HD
BRANCH  11  14
HETATM   14  C   UNL     1      42.557 -10.685   8.714  1.00  0.00     0.032 A 
HETATM   15  C   UNL     1      41.798  -9.876   9.566  1.00  0.00     0.020 A 
HETATM   16  C   UNL     1      42.262  -9.590  10.850  1.00  0.00     0.038 A 
HETATM   17  C   UNL     1      43.467 -10.130  11.306  1.00  0.00     0.068 A 
HETATM   18  C   UNL     1      44.227 -10.936  10.454  1.00  0.00     0.038 A 
HETATM   19  C   UNL     1      43.773 -11.218   9.161  1.00  0.00     0.020 A 
BRANCH  17  20
HETATM   20  O   UNL     1      43.802  -9.788  12.588  1.00  0.00    -0.356 OA
HETATM   21  C   UNL     1      42.829 -10.066  13.587  1.00  0.00     0.210 C 
ENDBRANCH  17  20
ENDBRANCH  11  14
ENDBRANCH   7  10
BRANCH   2  22
HETATM   22  C   UNL     1      41.625 -15.101   0.087  1.00  0.00     0.268 C 
HETATM   23  N   UNL     1      41.656 -14.160  -0.917  1.00  0.00    -0.353 N 
HETATM   24  H   UNL     1      41.395 -13.206  -0.708  1.00  0.00     0.162 HD
HETATM   25  O   UNL     1      41.697 -16.302  -0.166  1.00  0.00    -0.266 OA
BRANCH  23  26
HETATM   26  C   UNL     1      41.663 -14.532  -2.321  1.00  0.00     0.160 C 
BRANCH  26  27
HETATM   27  C   UNL     1      40.334 -14.208  -3.029  1.00  0.00     0.073 C 
HETATM   28  C   UNL     1      40.444 -12.832  -3.699  1.00  0.00     0.047 C 
HETATM   29  O   UNL     1      40.087 -15.182  -4.070  1.00  0.00    -0.379 OA
HETATM   30  C   UNL     1      38.696 -15.540  -4.049  1.00  0.00     0.169 C 
HETATM   31  C   UNL     1      38.003 -14.638  -3.050  1.00  0.00     0.029 C 
HETATM   32  C   UNL     1      39.121 -14.285  -2.100  1.00  0.00     0.041 C 
ENDBRANCH  26  27
ENDBRANCH  23  26
ENDBRANCH   2  22
BRANCH   1  33
HETATM   33  C   UNL     1      39.080 -15.196   1.819  1.00  0.00     0.125 C 
HETATM   34  C   UNL     1      38.139 -14.147   1.250  1.00  0.00     0.027 C 
ENDBRANCH   1  33
TORSDOF 7
ENDMDL
MODEL 4
REMARK VINA RESULT:      -8.0      5.678     10.095
REMARK  7 active torsions:
REMARK  status: ('A' for Active; 'I' for Inactive)
REMARK    1  A    between atoms: C_2  and  N_3 
REMARK    2  A    between atoms: C_4  and  C_5 
REMARK       I    between atoms: C_5  and  N_6 
REMARK    3  A    between atoms: N_6  and  C_7 
REMARK    4  A    between atoms: C_7  and  C_8 
REMARK    5  A    between atoms: C_19  and  N_20 
REMARK       I    between atoms: N_20  and  C_21 
REMARK    6  A    between atoms: C_21  and  C_22 
REMARK    7  A    between atoms: C_25  and  O_26 
ROOT
HETATM    1  N   UNL     1      37.790 -11.333   1.614  1.00  0.00    -0.342 N 
HETATM    2  C   UNL     1      36.744 -11.856   0.864  1.00  0.00     0.104 A 
HETATM    3  C   UNL     1      37.074 -13.187   0.637  1.00  0.00     0.049 A 
HETATM    4  C   UNL     1      38.311 -13.477   1.265  1.00  0.00    -0.005 A 
HETATM    5  C   UNL     1      38.749 -12.301   1.869  1.00  0.00     0.045 A 
HETATM    6  C   UNL     1      39.092 -14.647   1.382  1.00  0.00     0.043 A 
HETATM    7  C   UNL     1      40.293 -14.622   2.101  1.00  0.00     0.035 A 
HETATM    8  C   UNL     1      40.714 -13.424   2.684  1.00  0.00     0.032 A 
HETATM    9  C   UNL     1      39.955 -12.250   2.584  1.00  0.00     0.033 A 
ENDROOT
BRANCH   7  10
HETATM   10  N   UNL     1      41.123 -15.750   2.279  1.00  0.00    -0.323 N 
HETATM   11  C   UNL     1      41.334 -16.451   3.455  1.00  0.00     0.256 C 
HETATM   12  O   UNL     1      40.880 -16.192   4.564  1.00  0.00    -0.267 OA
HETATM   13  H   UNL     1      41.690 -16.010   1.485  1.00  0.00     0.169 HD
BRANCH  11  14
HETATM   14  C   UNL     1      42.258 -17.609   3.330  1.00  0.00     0.032 A 
HETATM   15  C   UNL     1      42.465 -18.162   2.063  1.00  0.00     0.020 A 
HETATM   16  C   UNL     1      43.339 -19.238   1.907  1.00  0.00     0.038 A 
HETATM   17  C   UNL     1      44.036 -19.752   3.004  1.00  0.00     0.068 A 
HETATM   18  C   UNL     1      43.828 -19.200   4.271  1.00  0.00     0.038 A 
HETATM   19  C   UNL     1      42.944 -18.128   4.436  1.00  0.00     0.020 A 
BRANCH  17  20
HETATM   20  O   UNL     1      44.874 -20.793   2.717  1.00  0.00    -0.356 OA
HETATM   21  C   UNL     1      44.334 -21.830   1.906  1.00  0.00     0.210 C 
ENDBRANCH  17  20
ENDBRANCH  11  14
ENDBRANCH   7  10
BRANCH   2  22
HETATM   22  C   UNL     1      35.551 -11.126   0.459  1.00  0.00     0.268 C 
HETATM   23  N   UNL     1      34.572 -11.021   1.420  1.00  0.00    -0.353 N 
HETATM   24  H   UNL     1      34.627 -11.599   2.248  1.00  0.00     0.162 HD
HETATM   25  O   UNL     1      35.403 -10.631  -0.656  1.00  0.00    -0.266 OA
BRANCH  23  26
HETATM   26  C   UNL     1      33.280 -10.420   1.140  1.00  0.00     0.160 C 
BRANCH  26  27
HETATM   27  C   UNL     1      32.476 -10.116   2.419  1.00  0.00     0.073 C 
HETATM   28  C   UNL     1      31.830 -11.413   2.926  1.00  0.00     0.047 C 
HETATM   29  O   UNL     1      33.367  -9.640   3.453  1.00  0.00    -0.379 OA
HETATM   30  C   UNL     1      32.738  -8.548   4.142  1.00  0.00     0.169 C 
HETATM   31  C   UNL     1      31.322  -8.429   3.619  1.00  0.00     0.029 C 
HETATM   32  C   UNL     1      31.438  -9.008   2.231  1.00  0.00     0.041 C 
ENDBRANCH  26  27
ENDBRANCH  23  26
ENDBRANCH   2  22
BRANCH   1  33
HETATM   33  C   UNL     1      37.893  -9.956   2.083  1.00  0.00     0.125 C 
HETATM   34  C   UNL     1      37.438  -9.800   3.524  1.00  0.00     0.027 C 
ENDBRANCH   1  33
TORSDOF 7
ENDMDL
MODEL 5
REMARK VINA RESULT:      -7.9      3.847     11.286
REMARK  7 active torsions:
REMARK  status: ('A' for Active; 'I' for Inactive)
REMARK    1  A    between atoms: C_2  and  N_3 
REMARK    2  A    between atoms: C_4  and  C_5 
REMARK       I    between atoms: C_5  and  N_6 
REMARK    3  A    between atoms: N_6  and  C_7 
REMARK    4  A    between atoms: C_7  and  C_8 
REMARK    5  A    between atoms: C_19  and  N_20 
REMARK       I    between atoms: N_20  and  C_21 
REMARK    6  A    between atoms: C_21  and  C_22 
REMARK    7  A    between atoms: C_25  and  O_26 
ROOT
HETATM    1  N   UNL     1      41.550 -12.542   3.506  1.00  0.00    -0.342 N 
HETATM    2  C   UNL     1      41.992 -13.852   3.644  1.00  0.00     0.104 A 
HETATM    3  C   UNL     1      42.327 -13.997   4.985  1.00  0.00     0.049 A 
HETATM    4  C   UNL     1      42.071 -12.779   5.665  1.00  0.00    -0.005 A 
HETATM    5  C   UNL     1      41.589 -11.876   4.721  1.00  0.00     0.045 A 
HETATM    6  C   UNL     1      42.197 -12.373   7.011  1.00  0.00     0.043 A 
HETATM    7  C   UNL     1      41.837 -11.075   7.390  1.00  0.00     0.035 A 
HETATM    8  C   UNL     1      41.369 -10.186   6.418  1.00  0.00     0.032 A 
HETATM    9  C   UNL     1      41.234 -10.566   5.077  1.00  0.00     0.033 A 
ENDROOT
BRANCH   7  10
HETATM   10  N   UNL     1      41.916 -10.595   8.715  1.00  0.00    -0.323 N 
HETATM   11  C   UNL     1      43.060 -10.447   9.481  1.00  0.00     0.256 C 
HETATM   12  O   UNL     1      44.206 -10.751   9.167  1.00  0.00    -0.267 OA
HETATM   13  H   UNL     1      41.032 -10.433   9.179  1.00  0.00     0.169 HD
BRANCH  11  14
HETATM   14  C   UNL     1      42.829  -9.903  10.845  1.00  0.00     0.032 A 
HETATM   15  C   UNL     1      41.727  -9.067  11.050  1.00  0.00     0.020 A 
HETATM   16  C   UNL     1      41.470  -8.553  12.322  1.00  0.00     0.038 A 
HETATM   17  C   UNL     1      42.289  -8.890  13.403  1.00  0.00     0.068 A 
HETATM   18  C   UNL     1      43.392  -9.724  13.197  1.00  0.00     0.038 A 
HETATM   19  C   UNL     1      43.662 -10.234  11.922  1.00  0.00     0.020 A 
BRANCH  17  20
HETATM   20  O   UNL     1      41.921  -8.336  14.597  1.00  0.00    -0.356 OA
HETATM   21  C   UNL     1      42.137  -9.135  15.754  1.00  0.00     0.210 C 
ENDBRANCH  17  20
ENDBRANCH  11  14
ENDBRANCH   7  10
BRANCH   2  22
HETATM   22  C   UNL     1      42.038 -14.841   2.576  1.00  0.00     0.268 C 
HETATM   23  N   UNL     1      41.806 -16.139   2.968  1.00  0.00    -0.353 N 
HETATM   24  H   UNL     1      41.821 -16.369   3.953  1.00  0.00     0.162 HD
HETATM   25  O   UNL     1      42.267 -14.563   1.401  1.00  0.00    -0.266 OA
BRANCH  23  26
HETATM   26  C   UNL     1      41.924 -17.255   2.045  1.00  0.00     0.160 C 
BRANCH  26  27
HETATM   27  C   UNL     1      43.235 -18.042   2.231  1.00  0.00     0.073 C 
HETATM   28  C   UNL     1      44.312 -17.449   1.311  1.00  0.00     0.047 C 
HETATM   29  O   UNL     1      43.699 -17.902   3.593  1.00  0.00    -0.379 OA
HETATM   30  C   UNL     1      44.181 -19.175   4.053  1.00  0.00     0.169 C 
HETATM   31  C   UNL     1      44.161 -20.127   2.876  1.00  0.00     0.029 C 
HETATM   32  C   UNL     1      43.073 -19.547   2.006  1.00  0.00     0.041 C 
ENDBRANCH  26  27
ENDBRANCH  23  26
ENDBRANCH   2  22
BRANCH   1  33
HETATM   33  C   UNL     1      41.102 -11.923   2.264  1.00  0.00     0.125 C 
HETATM   34  C   UNL     1      39.602 -12.056   2.061  1.00  0.00     0.027 C 
ENDBRANCH   1  33
TORSDOF 7
ENDMDL
MODEL 6
REMARK VINA RESULT:      -7.9      6.045      9.319
REMARK  7 active torsions:
REMARK  status: ('A' for Active; 'I' for Inactive)
REMARK    1  A    between atoms: C_2  and  N_3 
REMARK    2  A    between atoms: C_4  and  C_5 
REMARK       I    between atoms: C_5  and  N_6 
REMARK    3  A    between atoms: N_6  and  C_7 
REMARK    4  A    between atoms: C_7  and  C_8 
REMARK    5  A    between atoms: C_19  and  N_20 
REMARK       I    between atoms: N_20  and  C_21 
REMARK    6  A    between atoms: C_21  and  C_22 
REMARK    7  A    between atoms: C_25  and  O_26 
ROOT
HETATM    1  N   UNL     1      38.098 -11.443   1.833  1.00  0.00    -0.342 N 
HETATM    2  C   UNL     1      38.143 -10.827   3.078  1.00  0.00     0.104 A 
HETATM    3  C   UNL     1      38.899 -11.668   3.886  1.00  0.00     0.049 A 
HETATM    4  C   UNL     1      39.329 -12.786   3.127  1.00  0.00    -0.005 A 
HETATM    5  C   UNL     1      38.813 -12.631   1.843  1.00  0.00     0.045 A 
HETATM    6  C   UNL     1      40.126 -13.913   3.422  1.00  0.00     0.043 A 
HETATM    7  C   UNL     1      40.396 -14.862   2.429  1.00  0.00     0.035 A 
HETATM    8  C   UNL     1      39.853 -14.687   1.153  1.00  0.00     0.032 A 
HETATM    9  C   UNL     1      39.061 -13.576   0.836  1.00  0.00     0.033 A 
ENDROOT
BRANCH   7  10
HETATM   10  N   UNL     1      41.196 -16.006   2.636  1.00  0.00    -0.323 N 
HETATM   11  C   UNL     1      42.573 -16.045   2.779  1.00  0.00     0.256 C 
HETATM   12  O   UNL     1      43.353 -15.102   2.703  1.00  0.00    -0.267 OA
HETATM   13  H   UNL     1      40.718 -16.895   2.579  1.00  0.00     0.169 HD
BRANCH  11  14
HETATM   14  C   UNL     1      43.137 -17.403   2.999  1.00  0.00     0.032 A 
HETATM   15  C   UNL     1      43.159 -18.296   1.923  1.00  0.00     0.020 A 
HETATM   16  C   UNL     1      43.698 -19.573   2.088  1.00  0.00     0.038 A 
HETATM   17  C   UNL     1      44.244 -19.959   3.315  1.00  0.00     0.068 A 
HETATM   18  C   UNL     1      44.220 -19.067   4.391  1.00  0.00     0.038 A 
HETATM   19  C   UNL     1      43.671 -17.789   4.235  1.00  0.00     0.020 A 
BRANCH  17  20
HETATM   20  O   UNL     1      44.755 -21.227   3.344  1.00  0.00    -0.356 OA
HETATM   21  C   UNL     1      44.346 -22.093   2.292  1.00  0.00     0.210 C 
ENDBRANCH  17  20
ENDBRANCH  11  14
ENDBRANCH   7  10
BRANCH   2  22
HETATM   22  C   UNL     1      37.538  -9.544   3.404  1.00  0.00     0.268 C 
HETATM   23  N   UNL     1      36.299  -9.613   4.000  1.00  0.00    -0.353 N 
HETATM   24  H   UNL     1      35.797 -10.491   3.996  1.00  0.00     0.162 HD
HETATM   25  O   UNL     1      38.072  -8.461   3.174  1.00  0.00    -0.266 OA
BRANCH  23  26
HETATM   26  C   UNL     1      35.516  -8.424   4.287  1.00  0.00     0.160 C 
BRANCH  26  27
HETATM   27  C   UNL     1      33.999  -8.693   4.266  1.00  0.00     0.073 C 
HETATM   28  C   UNL     1      33.624  -9.346   2.929  1.00  0.00     0.047 C 
HETATM   29  O   UNL     1      33.654  -9.623   5.318  1.00  0.00    -0.379 OA
HETATM   30  C   UNL     1      32.435  -9.189   5.941  1.00  0.00     0.169 C 
HETATM   31  C   UNL     1      31.905  -8.015   5.146  1.00  0.00     0.029 C 
HETATM   32  C   UNL     1      33.160  -7.442   4.534  1.00  0.00     0.041 C 
ENDBRANCH  26  27
ENDBRANCH  23  26
ENDBRANCH   2  22
BRANCH   1  33
HETATM   33  C   UNL     1      37.401 -10.934   0.658  1.00  0.00     0.125 C 
HETATM   34  C   UNL     1      35.969 -11.434   0.574  1.00  0.00     0.027 C 
ENDBRANCH   1  33
TORSDOF 7
ENDMDL
MODEL 7
REMARK VINA RESULT:      -7.6      4.576     10.471
REMARK  7 active torsions:
REMARK  status: ('A' for Active; 'I' for Inactive)
REMARK    1  A    between atoms: C_2  and  N_3 
REMARK    2  A    between atoms: C_4  and  C_5 
REMARK       I    between atoms: C_5  and  N_6 
REMARK    3  A    between atoms: N_6  and  C_7 
REMARK    4  A    between atoms: C_7  and  C_8 
REMARK    5  A    between atoms: C_19  and  N_20 
REMARK       I    between atoms: N_20  and  C_21 
REMARK    6  A    between atoms: C_21  and  C_22 
REMARK    7  A    between atoms: C_25  and  O_26 
ROOT
HETATM    1  N   UNL     1      39.139 -13.469  -0.824  1.00  0.00    -0.342 N 
HETATM    2  C   UNL     1      39.849 -13.406  -2.016  1.00  0.00     0.104 A 
HETATM    3  C   UNL     1      40.919 -14.281  -1.863  1.00  0.00     0.049 A 
HETATM    4  C   UNL     1      40.847 -14.889  -0.584  1.00  0.00    -0.005 A 
HETATM    5  C   UNL     1      39.728 -14.364   0.056  1.00  0.00     0.045 A 
HETATM    6  C   UNL     1      41.637 -15.853   0.079  1.00  0.00     0.043 A 
HETATM    7  C   UNL     1      41.291 -16.278   1.367  1.00  0.00     0.035 A 
HETATM    8  C   UNL     1      40.170 -15.723   1.991  1.00  0.00     0.032 A 
HETATM    9  C   UNL     1      39.371 -14.767   1.352  1.00  0.00     0.033 A 
ENDROOT
BRANCH   7  10
HETATM   10  N   UNL     1      42.015 -17.249   2.092  1.00  0.00    -0.323 N 
HETATM   11  C   UNL     1      42.981 -17.019   3.058  1.00  0.00     0.256 C 
HETATM   12  O   UNL     1      43.419 -15.934   3.424  1.00  0.00    -0.267 OA
HETATM   13  H   UNL     1      41.877 -18.208   1.805  1.00  0.00     0.169 HD
BRANCH  11  14
HETATM   14  C   UNL     1      43.563 -18.248   3.659  1.00  0.00     0.032 A 
HETATM   15  C   UNL     1      44.014 -19.258   2.804  1.00  0.00     0.020 A 
HETATM   16  C   UNL     1      44.582 -20.417   3.334  1.00  0.00     0.038 A 
HETATM   17  C   UNL     1      44.734 -20.566   4.715  1.00  0.00     0.068 A 
HETATM   18  C   UNL     1      44.283 -19.557   5.570  1.00  0.00     0.038 A 
HETATM   19  C   UNL     1      43.701 -18.397   5.045  1.00  0.00     0.020 A 
BRANCH  17  20
HETATM   20  O   UNL     1      45.320 -21.738   5.106  1.00  0.00    -0.356 OA
HETATM   21  C   UNL     1      44.776 -22.929   4.552  1.00  0.00     0.210 C 
ENDBRANCH  17  20
ENDBRANCH  11  14
ENDBRANCH   7  10
BRANCH   2  22
HETATM   22  C   UNL     1      39.483 -12.602  -3.173  1.00  0.00     0.268 C 
HETATM   23  N   UNL     1      40.507 -11.870  -3.729  1.00  0.00    -0.353 N 
HETATM   24  H   UNL     1      41.372 -11.763  -3.216  1.00  0.00     0.162 HD
HETATM   25  O   UNL     1      38.346 -12.560  -3.639  1.00  0.00    -0.266 OA
BRANCH  23  26
HETATM   26  C   UNL     1      40.283 -10.935  -4.817  1.00  0.00     0.160 C 
BRANCH  26  27
HETATM   27  C   UNL     1      40.891  -9.546  -4.541  1.00  0.00     0.073 C 
HETATM   28  C   UNL     1      40.748  -8.677  -5.799  1.00  0.00     0.047 C 
HETATM   29  O   UNL     1      40.159  -8.897  -3.477  1.00  0.00    -0.379 OA
HETATM   30  C   UNL     1      41.092  -8.241  -2.604  1.00  0.00     0.169 C 
HETATM   31  C   UNL     1      42.465  -8.353  -3.231  1.00  0.00     0.029 C 
HETATM   32  C   UNL     1      42.342  -9.607  -4.062  1.00  0.00     0.041 C 
ENDBRANCH  26  27
ENDBRANCH  23  26
ENDBRANCH   2  22
BRANCH   1  33
HETATM   33  C   UNL     1      37.935 -12.708  -0.511  1.00  0.00     0.125 C 
HETATM   34  C   UNL     1      38.251 -11.361   0.117  1.00  0.00     0.027 C 
ENDBRANCH   1  33
TORSDOF 7
ENDMDL
MODEL 8
REMARK VINA RESULT:      -7.6      4.356      6.176
REMARK  7 active torsions:
REMARK  status: ('A' for Active; 'I' for Inactive)
REMARK    1  A    between atoms: C_2  and  N_3 
REMARK    2  A    between atoms: C_4  and  C_5 
REMARK       I    between atoms: C_5  and  N_6 
REMARK    3  A    between atoms: N_6  and  C_7 
REMARK    4  A    between atoms: C_7  and  C_8 
REMARK    5  A    between atoms: C_19  and  N_20 
REMARK       I    between atoms: N_20  and  C_21 
REMARK    6  A    between atoms: C_21  and  C_22 
REMARK    7  A    between atoms: C_25  and  O_26 
ROOT
HETATM    1  N   UNL     1      41.231 -13.916   4.350  1.00  0.00    -0.342 N 
HETATM    2  C   UNL     1      41.402 -15.271   4.093  1.00  0.00     0.104 A 
HETATM    3  C   UNL     1      41.543 -15.377   2.714  1.00  0.00     0.049 A 
HETATM    4  C   UNL     1      41.476 -14.085   2.136  1.00  0.00    -0.005 A 
HETATM    5  C   UNL     1      41.274 -13.181   3.175  1.00  0.00     0.045 A 
HETATM    6  C   UNL     1      41.582 -13.605   0.812  1.00  0.00     0.043 A 
HETATM    7  C   UNL     1      41.489 -12.234   0.552  1.00  0.00     0.035 A 
HETATM    8  C   UNL     1      41.272 -11.351   1.614  1.00  0.00     0.032 A 
HETATM    9  C   UNL     1      41.166 -11.803   2.935  1.00  0.00     0.033 A 
ENDROOT
BRANCH   7  10
HETATM   10  N   UNL     1      41.602 -11.671  -0.738  1.00  0.00    -0.323 N 
HETATM   11  C   UNL     1      42.726 -11.087  -1.297  1.00  0.00     0.256 C 
HETATM   12  O   UNL     1      43.813 -10.907  -0.759  1.00  0.00    -0.267 OA
HETATM   13  H   UNL     1      40.743 -11.607  -1.267  1.00  0.00     0.169 HD
BRANCH  11  14
HETATM   14  C   UNL     1      42.543 -10.592  -2.687  1.00  0.00     0.032 A 
HETATM   15  C   UNL     1      42.508  -9.210  -2.902  1.00  0.00     0.020 A 
HETATM   16  C   UNL     1      42.356  -8.710  -4.195  1.00  0.00     0.038 A 
HETATM   17  C   UNL     1      42.269  -9.579  -5.286  1.00  0.00     0.068 A 
HETATM   18  C   UNL     1      42.302 -10.959  -5.072  1.00  0.00     0.038 A 
HETATM   19  C   UNL     1      42.443 -11.468  -3.775  1.00  0.00     0.020 A 
BRANCH  17  20
HETATM   20  O   UNL     1      42.139  -8.965  -6.501  1.00  0.00    -0.356 OA
HETATM   21  C   UNL     1      41.588  -9.753  -7.549  1.00  0.00     0.210 C 
ENDBRANCH  17  20
ENDBRANCH  11  14
ENDBRANCH   7  10
BRANCH   2  22
HETATM   22  C   UNL     1      41.454 -16.319   5.102  1.00  0.00     0.268 C 
HETATM   23  N   UNL     1      42.671 -16.948   5.234  1.00  0.00    -0.353 N 
HETATM   24  H   UNL     1      43.377 -16.812   4.524  1.00  0.00     0.162 HD
HETATM   25  O   UNL     1      40.494 -16.639   5.800  1.00  0.00    -0.266 OA
BRANCH  23  26
HETATM   26  C   UNL     1      42.858 -18.086   6.118  1.00  0.00     0.160 C 
BRANCH  26  27
HETATM   27  C   UNL     1      44.134 -18.885   5.794  1.00  0.00     0.073 C 
HETATM   28  C   UNL     1      45.351 -18.140   6.360  1.00  0.00     0.047 C 
HETATM   29  O   UNL     1      44.076 -20.178   6.440  1.00  0.00    -0.379 OA
HETATM   30  C   UNL     1      44.567 -21.174   5.530  1.00  0.00     0.169 C 
HETATM   31  C   UNL     1      45.103 -20.458   4.309  1.00  0.00     0.029 C 
HETATM   32  C   UNL     1      44.301 -19.180   4.302  1.00  0.00     0.041 C 
ENDBRANCH  26  27
ENDBRANCH  23  26
ENDBRANCH   2  22
BRANCH   1  33
HETATM   33  C   UNL     1      41.029 -13.320   5.665  1.00  0.00     0.125 C 
HETATM   34  C   UNL     1      39.557 -13.165   6.009  1.00  0.00     0.027 C 
ENDBRANCH   1  33
TORSDOF 7
ENDMDL
MODEL 9
REMARK VINA RESULT:      -7.6      5.173      9.984
REMARK  7 active torsions:
REMARK  status: ('A' for Active; 'I' for Inactive)
REMARK    1  A    between atoms: C_2  and  N_3 
REMARK    2  A    between atoms: C_4  and  C_5 
REMARK       I    between atoms: C_5  and  N_6 
REMARK    3  A    between atoms: N_6  and  C_7 
REMARK    4  A    between atoms: C_7  and  C_8 
REMARK    5  A    between atoms: C_19  and  N_20 
REMARK       I    between atoms: N_20  and  C_21 
REMARK    6  A    between atoms: C_21  and  C_22 
REMARK    7  A    between atoms: C_25  and  O_26 
ROOT
HETATM    1  N   UNL     1      39.071 -12.463   0.411  1.00  0.00    -0.342 N 
HETATM    2  C   UNL     1      38.580 -11.951   1.606  1.00  0.00     0.104 A 
HETATM    3  C   UNL     1      38.980 -12.846   2.591  1.00  0.00     0.049 A 
HETATM    4  C   UNL     1      39.730 -13.892   1.997  1.00  0.00    -0.005 A 
HETATM    5  C   UNL     1      39.773 -13.639   0.629  1.00  0.00     0.045 A 
HETATM    6  C   UNL     1      40.388 -15.030   2.512  1.00  0.00     0.043 A 
HETATM    7  C   UNL     1      41.080 -15.891   1.652  1.00  0.00     0.035 A 
HETATM    8  C   UNL     1      41.093 -15.619   0.281  1.00  0.00     0.032 A 
HETATM    9  C   UNL     1      40.449 -14.495  -0.253  1.00  0.00     0.033 A 
ENDROOT
BRANCH   7  10
HETATM   10  N   UNL     1      41.778 -17.038   2.086  1.00  0.00    -0.323 N 
HETATM   11  C   UNL     1      43.117 -17.118   2.429  1.00  0.00     0.256 C 
HETATM   12  O   UNL     1      43.952 -16.222   2.372  1.00  0.00    -0.267 OA
HETATM   13  H   UNL     1      41.263 -17.907   2.051  1.00  0.00     0.169 HD
BRANCH  11  14
HETATM   14  C   UNL     1      43.568 -18.467   2.864  1.00  0.00     0.032 A 
HETATM   15  C   UNL     1      43.549 -19.508   1.930  1.00  0.00     0.020 A 
HETATM   16  C   UNL     1      43.982 -20.782   2.298  1.00  0.00     0.038 A 
HETATM   17  C   UNL     1      44.465 -21.022   3.588  1.00  0.00     0.068 A 
HETATM   18  C   UNL     1      44.482 -19.983   4.521  1.00  0.00     0.038 A 
HETATM   19  C   UNL     1      44.038 -18.705   4.162  1.00  0.00     0.020 A 
BRANCH  17  20
HETATM   20  O   UNL     1      44.874 -22.306   3.818  1.00  0.00    -0.356 OA
HETATM   21  C   UNL     1      45.257 -22.615   5.153  1.00  0.00     0.210 C 
ENDBRANCH  17  20
ENDBRANCH  11  14
ENDBRANCH   7  10
BRANCH   2  22
HETATM   22  C   UNL     1      37.837 -10.707   1.746  1.00  0.00     0.268 C 
HETATM   23  N   UNL     1      36.467 -10.835   1.731  1.00  0.00    -0.353 N 
HETATM   24  H   UNL     1      36.055 -11.708   1.430  1.00  0.00     0.162 HD
HETATM   25  O   UNL     1      38.371  -9.606   1.869  1.00  0.00    -0.266 OA
BRANCH  23  26
HETATM   26  C   UNL     1      35.585  -9.681   1.750  1.00  0.00     0.160 C 
BRANCH  26  27
HETATM   27  C   UNL     1      34.229  -9.958   1.074  1.00  0.00     0.073 C 
HETATM   28  C   UNL     1      34.451 -10.870  -0.141  1.00  0.00     0.047 C 
HETATM   29  O   UNL     1      33.361 -10.659   1.993  1.00  0.00    -0.379 OA
HETATM   30  C   UNL     1      32.035 -10.116   1.887  1.00  0.00     0.169 C 
HETATM   31  C   UNL     1      32.034  -9.130   0.737  1.00  0.00     0.029 C 
HETATM   32  C   UNL     1      33.475  -8.684   0.688  1.00  0.00     0.041 C 
ENDBRANCH  26  27
ENDBRANCH  23  26
ENDBRANCH   2  22
BRANCH   1  33
HETATM   33  C   UNL     1      38.887 -11.868  -0.907  1.00  0.00     0.125 C 
HETATM   34  C   UNL     1      37.648 -12.394  -1.611  1.00  0.00     0.027 C 
ENDBRANCH   1  33
TORSDOF 7
ENDMDL
MODEL 10
REMARK VINA RESULT:      -7.5      6.206      9.455
REMARK  7 active torsions:
REMARK  status: ('A' for Active; 'I' for Inactive)
REMARK    1  A    between atoms: C_2  and  N_3 
REMARK    2  A    between atoms: C_4  and  C_5 
REMARK       I    between atoms: C_5  and  N_6 
REMARK    3  A    between atoms: N_6  and  C_7 
REMARK    4  A    between atoms: C_7  and  C_8 
REMARK    5  A    between atoms: C_19  and  N_20 
REMARK       I    between atoms: N_20  and  C_21 
REMARK    6  A    between atoms: C_21  and  C_22 
REMARK    7  A    between atoms: C_25  and  O_26 
ROOT
HETATM    1  N   UNL     1      38.973 -10.338   4.514  1.00  0.00    -0.342 N 
HETATM    2  C   UNL     1      38.156 -10.246   3.395  1.00  0.00     0.104 A 
HETATM    3  C   UNL     1      38.439 -11.371   2.629  1.00  0.00     0.049 A 
HETATM    4  C   UNL     1      39.415 -12.155   3.293  1.00  0.00    -0.005 A 
HETATM    5  C   UNL     1      39.743 -11.490   4.472  1.00  0.00     0.045 A 
HETATM    6  C   UNL     1      40.041 -13.386   2.995  1.00  0.00     0.043 A 
HETATM    7  C   UNL     1      40.978 -13.930   3.881  1.00  0.00     0.035 A 
HETATM    8  C   UNL     1      41.297 -13.232   5.050  1.00  0.00     0.032 A 
HETATM    9  C   UNL     1      40.689 -12.012   5.367  1.00  0.00     0.033 A 
ENDROOT
BRANCH   7  10
HETATM   10  N   UNL     1      41.635 -15.161   3.668  1.00  0.00    -0.323 N 
HETATM   11  C   UNL     1      41.482 -16.325   4.402  1.00  0.00     0.256 C 
HETATM   12  O   UNL     1      40.787 -16.486   5.399  1.00  0.00    -0.267 OA
HETATM   13  H   UNL     1      42.360 -15.157   2.964  1.00  0.00     0.169 HD
BRANCH  11  14
HETATM   14  C   UNL     1      42.303 -17.470   3.929  1.00  0.00     0.032 A 
HETATM   15  C   UNL     1      42.345 -17.738   2.557  1.00  0.00     0.020 A 
HETATM   16  C   UNL     1      43.120 -18.794   2.076  1.00  0.00     0.038 A 
HETATM   17  C   UNL     1      43.882 -19.571   2.953  1.00  0.00     0.068 A 
HETATM   18  C   UNL     1      43.839 -19.305   4.324  1.00  0.00     0.038 A 
HETATM   19  C   UNL     1      43.055 -18.254   4.814  1.00  0.00     0.020 A 
BRANCH  17  20
HETATM   20  O   UNL     1      44.611 -20.563   2.357  1.00  0.00    -0.356 OA
HETATM   21  C   UNL     1      43.888 -21.719   1.954  1.00  0.00     0.210 C 
ENDBRANCH  17  20
ENDBRANCH  11  14
ENDBRANCH   7  10
BRANCH   2  22
HETATM   22  C   UNL     1      37.189  -9.187   3.143  1.00  0.00     0.268 C 
HETATM   23  N   UNL     1      35.925  -9.415   3.637  1.00  0.00    -0.353 N 
HETATM   24  H   UNL     1      35.677 -10.343   3.951  1.00  0.00     0.162 HD
HETATM   25  O   UNL     1      37.456  -8.152   2.535  1.00  0.00    -0.266 OA
BRANCH  23  26
HETATM   26  C   UNL     1      34.821  -8.507   3.376  1.00  0.00     0.160 C 
BRANCH  26  27
HETATM   27  C   UNL     1      33.467  -9.067   3.851  1.00  0.00     0.073 C 
HETATM   28  C   UNL     1      32.984 -10.129   2.853  1.00  0.00     0.047 C 
HETATM   29  O   UNL     1      33.631  -9.716   5.133  1.00  0.00    -0.379 OA
HETATM   30  C   UNL     1      32.516  -9.377   5.972  1.00  0.00     0.169 C 
HETATM   31  C   UNL     1      31.526  -8.601   5.129  1.00  0.00     0.029 C 
HETATM   32  C   UNL     1      32.410  -7.984   4.074  1.00  0.00     0.041 C 
ENDBRANCH  26  27
ENDBRANCH  23  26
ENDBRANCH   2  22
BRANCH   1  33
HETATM   33  C   UNL     1      39.035  -9.369   5.603  1.00  0.00     0.125 C 
HETATM   34  C   UNL     1      40.083  -8.296   5.361  1.00  0.00     0.027 C 
ENDBRANCH   1  33
TORSDOF 7
ENDMDL
