MODEL 1
REMARK VINA RESULT:      -9.3      0.000      0.000
REMARK  6 active torsions:
REMARK  status: ('A' for Active; 'I' for Inactive)
REMARK    1  A    between atoms: C_2  and  O_3 
REMARK    2  A    between atoms: C_2  and  C_4 
REMARK    3  A    between atoms: C_6  and  N_7 
REMARK       I    between atoms: N_7  and  C_8 
REMARK    4  A    between atoms: C_8  and  C_9 
REMARK    5  A    between atoms: C_12  and  C_13 
REMARK    6  A    between atoms: C_18  and  C_19 
ROOT
HETATM    1  C   UNL     1      41.476 -15.922   3.485  1.00  0.00     0.096 C 
HETATM    2  C   UNL     1      42.334 -16.909   3.934  1.00  0.00     0.138 C 
HETATM    3  N   UNL     1      42.799 -16.473   5.155  1.00  0.00    -0.240 N 
HETATM    4  C   UNL     1      43.761 -17.189   5.974  1.00  0.00     0.221 C 
HETATM    5  C   UNL     1      43.923 -18.639   5.483  1.00  0.00     0.067 C 
HETATM    6  C   UNL     1      43.989 -18.687   3.950  1.00  0.00     0.125 C 
HETATM    7  N   UNL     1      42.754 -18.093   3.407  1.00  0.00    -0.365 N 
HETATM    8  N   UNL     1      42.450 -15.210   5.437  1.00  0.00    -0.181 NA
HETATM    9  C   UNL     1      41.619 -14.889   4.441  1.00  0.00     0.160 C 
HETATM   10  H   UNL     1      42.729 -18.190   2.388  1.00  0.00     0.162 HD
ENDROOT
BRANCH   1  11
HETATM   11  C   UNL     1      40.640 -15.885   2.295  1.00  0.00     0.261 C 
HETATM   12  N   UNL     1      40.779 -14.722   1.561  1.00  0.00    -0.323 N 
HETATM   13  H   UNL     1      41.506 -14.091   1.883  1.00  0.00     0.169 HD
HETATM   14  O   UNL     1      39.933 -16.842   2.005  1.00  0.00    -0.267 OA
BRANCH  12  15
HETATM   15  C   UNL     1      40.120 -14.370   0.367  1.00  0.00     0.035 A 
HETATM   16  C   UNL     1      40.515 -14.807  -0.900  1.00  0.00     0.039 A 
HETATM   17  C   UNL     1      39.821 -14.409  -2.057  1.00  0.00    -0.028 A 
HETATM   18  C   UNL     1      38.720 -13.552  -1.924  1.00  0.00     0.010 A 
HETATM   19  C   UNL     1      38.309 -13.122  -0.663  1.00  0.00     0.003 A 
HETATM   20  C   UNL     1      39.004 -13.533   0.476  1.00  0.00     0.029 A 
BRANCH  17  21
HETATM   21  C   UNL     1      40.294 -14.877  -3.417  1.00  0.00     0.147 C 
HETATM   22  C   UNL     1      39.414 -15.986  -3.976  1.00  0.00     0.044 C 
BRANCH  21  23
HETATM   23  O   UNL     1      41.638 -15.349  -3.342  1.00  0.00    -0.391 OA
HETATM   24  H   UNL     1      42.179 -14.731  -3.864  1.00  0.00     0.210 HD
ENDBRANCH  21  23
ENDBRANCH  17  21
ENDBRANCH  12  15
ENDBRANCH   1  11
BRANCH   4  25
HETATM   25  C   UNL     1      43.361 -17.191   7.434  1.00  0.00     0.409 C 
HETATM   26  F   UNL     1      43.689 -16.060   8.088  1.00  0.00    -0.169 F 
HETATM   27  F   UNL     1      42.038 -17.412   7.602  1.00  0.00    -0.169 F 
HETATM   28  F   UNL     1      44.006 -18.201   8.079  1.00  0.00    -0.169 F 
ENDBRANCH   4  25
BRANCH   6  29
HETATM   29  C   UNL     1      44.203 -20.105   3.480  1.00  0.00     0.005 A 
HETATM   30  S   UNL     1      44.835 -21.282   4.557  1.00  0.00    -0.104 SA
HETATM   31  C   UNL     1      44.761 -22.506   3.367  1.00  0.00     0.050 A 
HETATM   32  C   UNL     1      44.267 -22.036   2.171  1.00  0.00     0.008 A 
HETATM   33  C   UNL     1      43.949 -20.650   2.234  1.00  0.00     0.017 A 
ENDBRANCH   6  29
TORSDOF 6
ENDMDL
MODEL 2
REMARK VINA RESULT:      -9.0      4.401      8.419
REMARK  6 active torsions:
REMARK  status: ('A' for Active; 'I' for Inactive)
REMARK    1  A    between atoms: C_2  and  O_3 
REMARK    2  A    between atoms: C_2  and  C_4 
REMARK    3  A    between atoms: C_6  and  N_7 
REMARK       I    between atoms: N_7  and  C_8 
REMARK    4  A    between atoms: C_8  and  C_9 
REMARK    5  A    between atoms: C_12  and  C_13 
REMARK    6  A    between atoms: C_18  and  C_19 
ROOT
HETATM    1  C   UNL     1      42.175 -15.039   1.702  1.00  0.00     0.096 C 
HETATM    2  C   UNL     1      41.534 -14.482   0.611  1.00  0.00     0.138 C 
HETATM    3  N   UNL     1      41.848 -13.141   0.636  1.00  0.00    -0.240 N 
HETATM    4  C   UNL     1      41.355 -12.161  -0.316  1.00  0.00     0.221 C 
HETATM    5  C   UNL     1      40.736 -12.857  -1.543  1.00  0.00     0.067 C 
HETATM    6  C   UNL     1      39.875 -14.051  -1.110  1.00  0.00     0.125 C 
HETATM    7  N   UNL     1      40.721 -14.993  -0.356  1.00  0.00    -0.365 N 
HETATM    8  N   UNL     1      42.486 -12.765   1.753  1.00  0.00    -0.181 NA
HETATM    9  C   UNL     1      42.715 -13.921   2.383  1.00  0.00     0.160 C 
HETATM   10  H   UNL     1      40.196 -15.842  -0.129  1.00  0.00     0.162 HD
ENDROOT
BRANCH   1  11
HETATM   11  C   UNL     1      42.263 -16.428   2.124  1.00  0.00     0.261 C 
HETATM   12  N   UNL     1      43.435 -16.727   2.793  1.00  0.00    -0.323 N 
HETATM   13  H   UNL     1      44.035 -15.933   2.991  1.00  0.00     0.169 HD
HETATM   14  O   UNL     1      41.335 -17.199   1.912  1.00  0.00    -0.267 OA
BRANCH  12  15
HETATM   15  C   UNL     1      43.831 -17.968   3.328  1.00  0.00     0.035 A 
HETATM   16  C   UNL     1      43.991 -19.129   2.568  1.00  0.00     0.039 A 
HETATM   17  C   UNL     1      44.378 -20.343   3.166  1.00  0.00    -0.028 A 
HETATM   18  C   UNL     1      44.594 -20.377   4.550  1.00  0.00     0.010 A 
HETATM   19  C   UNL     1      44.450 -19.221   5.314  1.00  0.00     0.003 A 
HETATM   20  C   UNL     1      44.075 -18.022   4.705  1.00  0.00     0.029 A 
BRANCH  17  21
HETATM   21  C   UNL     1      44.514 -21.589   2.317  1.00  0.00     0.147 C 
HETATM   22  C   UNL     1      43.314 -21.789   1.401  1.00  0.00     0.044 C 
BRANCH  21  23
HETATM   23  O   UNL     1      44.660 -22.743   3.143  1.00  0.00    -0.391 OA
HETATM   24  H   UNL     1      44.161 -23.458   2.713  1.00  0.00     0.210 HD
ENDBRANCH  21  23
ENDBRANCH  17  21
ENDBRANCH  12  15
ENDBRANCH   1  11
BRANCH   4  25
HETATM   25  C   UNL     1      42.450 -11.220  -0.768  1.00  0.00     0.409 C 
HETATM   26  F   UNL     1      42.863 -10.367   0.190  1.00  0.00    -0.169 F 
HETATM   27  F   UNL     1      43.530 -11.881  -1.243  1.00  0.00    -0.169 F 
HETATM   28  F   UNL     1      41.991 -10.447  -1.789  1.00  0.00    -0.169 F 
ENDBRANCH   4  25
BRANCH   6  29
HETATM   29  C   UNL     1      39.227 -14.692  -2.313  1.00  0.00     0.005 A 
HETATM   30  S   UNL     1      40.109 -15.811  -3.269  1.00  0.00    -0.104 SA
HETATM   31  C   UNL     1      38.784 -16.058  -4.320  1.00  0.00     0.050 A 
HETATM   32  C   UNL     1      37.689 -15.306  -3.957  1.00  0.00     0.008 A 
HETATM   33  C   UNL     1      37.945 -14.514  -2.802  1.00  0.00     0.017 A 
ENDBRANCH   6  29
TORSDOF 6
ENDMDL
MODEL 3
REMARK VINA RESULT:      -8.8      1.620      2.008
REMARK  6 active torsions:
REMARK  status: ('A' for Active; 'I' for Inactive)
REMARK    1  A    between atoms: C_2  and  O_3 
REMARK    2  A    between atoms: C_2  and  C_4 
REMARK    3  A    between atoms: C_6  and  N_7 
REMARK       I    between atoms: N_7  and  C_8 
REMARK    4  A    between atoms: C_8  and  C_9 
REMARK    5  A    between atoms: C_12  and  C_13 
REMARK    6  A    between atoms: C_18  and  C_19 
ROOT
HETATM    1  C   UNL     1      42.618 -15.869   2.413  1.00  0.00     0.096 C 
HETATM    2  C   UNL     1      43.098 -16.843   3.270  1.00  0.00     0.138 C 
HETATM    3  N   UNL     1      43.179 -16.246   4.508  1.00  0.00    -0.240 N 
HETATM    4  C   UNL     1      43.671 -16.900   5.708  1.00  0.00     0.221 C 
HETATM    5  C   UNL     1      43.753 -18.424   5.503  1.00  0.00     0.067 C 
HETATM    6  C   UNL     1      44.333 -18.754   4.121  1.00  0.00     0.125 C 
HETATM    7  N   UNL     1      43.474 -18.140   3.091  1.00  0.00    -0.365 N 
HETATM    8  N   UNL     1      42.965 -14.923   4.476  1.00  0.00    -0.181 NA
HETATM    9  C   UNL     1      42.590 -14.701   3.212  1.00  0.00     0.160 C 
HETATM   10  H   UNL     1      43.785 -18.416   2.156  1.00  0.00     0.162 HD
ENDROOT
BRANCH   1  11
HETATM   11  C   UNL     1      42.260 -15.958   1.007  1.00  0.00     0.261 C 
HETATM   12  N   UNL     1      41.961 -14.735   0.437  1.00  0.00    -0.323 N 
HETATM   13  H   UNL     1      42.119 -13.929   1.032  1.00  0.00     0.169 HD
HETATM   14  O   UNL     1      42.281 -17.038   0.430  1.00  0.00    -0.267 OA
BRANCH  12  15
HETATM   15  C   UNL     1      41.579 -14.472  -0.894  1.00  0.00     0.035 A 
HETATM   16  C   UNL     1      40.713 -15.284  -1.630  1.00  0.00     0.039 A 
HETATM   17  C   UNL     1      40.380 -14.974  -2.962  1.00  0.00    -0.028 A 
HETATM   18  C   UNL     1      40.940 -13.832  -3.550  1.00  0.00     0.010 A 
HETATM   19  C   UNL     1      41.793 -13.008  -2.819  1.00  0.00     0.003 A 
HETATM   20  C   UNL     1      42.107 -13.326  -1.496  1.00  0.00     0.029 A 
BRANCH  17  21
HETATM   21  C   UNL     1      39.461 -15.891  -3.741  1.00  0.00     0.147 C 
HETATM   22  C   UNL     1      38.015 -15.417  -3.703  1.00  0.00     0.044 C 
BRANCH  21  23
HETATM   23  O   UNL     1      39.525 -17.219  -3.223  1.00  0.00    -0.391 OA
HETATM   24  H   UNL     1      39.852 -17.145  -2.310  1.00  0.00     0.210 HD
ENDBRANCH  21  23
ENDBRANCH  17  21
ENDBRANCH  12  15
ENDBRANCH   1  11
BRANCH   4  25
HETATM   25  C   UNL     1      42.799 -16.598   6.907  1.00  0.00     0.409 C 
HETATM   26  F   UNL     1      42.658 -17.638   7.753  1.00  0.00    -0.169 F 
HETATM   27  F   UNL     1      43.247 -15.534   7.611  1.00  0.00    -0.169 F 
HETATM   28  F   UNL     1      41.544 -16.282   6.486  1.00  0.00    -0.169 F 
ENDBRANCH   4  25
BRANCH   6  29
HETATM   29  C   UNL     1      44.462 -20.247   3.950  1.00  0.00     0.005 A 
HETATM   30  S   UNL     1      44.192 -20.964   2.415  1.00  0.00    -0.104 SA
HETATM   31  C   UNL     1      44.520 -22.530   3.015  1.00  0.00     0.050 A 
HETATM   32  C   UNL     1      44.828 -22.516   4.357  1.00  0.00     0.008 A 
HETATM   33  C   UNL     1      44.790 -21.200   4.898  1.00  0.00     0.017 A 
ENDBRANCH   6  29
TORSDOF 6
ENDMDL
MODEL 4
REMARK VINA RESULT:      -8.8      1.165      1.901
REMARK  6 active torsions:
REMARK  status: ('A' for Active; 'I' for Inactive)
REMARK    1  A    between atoms: C_2  and  O_3 
REMARK    2  A    between atoms: C_2  and  C_4 
REMARK    3  A    between atoms: C_6  and  N_7 
REMARK       I    between atoms: N_7  and  C_8 
REMARK    4  A    between atoms: C_8  and  C_9 
REMARK    5  A    between atoms: C_12  and  C_13 
REMARK    6  A    between atoms: C_18  and  C_19 
ROOT
HETATM    1  C   UNL     1      41.233 -15.595   3.208  1.00  0.00     0.096 C 
HETATM    2  C   UNL     1      42.035 -16.634   3.643  1.00  0.00     0.138 C 
HETATM    3  N   UNL     1      42.404 -16.310   4.930  1.00  0.00    -0.240 N 
HETATM    4  C   UNL     1      43.283 -17.113   5.762  1.00  0.00     0.221 C 
HETATM    5  C   UNL     1      43.460 -18.522   5.167  1.00  0.00     0.067 C 
HETATM    6  C   UNL     1      43.652 -18.447   3.646  1.00  0.00     0.125 C 
HETATM    7  N   UNL     1      42.477 -17.782   3.055  1.00  0.00    -0.365 N 
HETATM    8  N   UNL     1      42.054 -15.066   5.285  1.00  0.00    -0.181 NA
HETATM    9  C   UNL     1      41.314 -14.646   4.255  1.00  0.00     0.160 C 
HETATM   10  H   UNL     1      42.534 -17.795   2.033  1.00  0.00     0.162 HD
ENDROOT
BRANCH   1  11
HETATM   11  C   UNL     1      40.499 -15.441   1.963  1.00  0.00     0.261 C 
HETATM   12  N   UNL     1      41.298 -15.072   0.896  1.00  0.00    -0.323 N 
HETATM   13  H   UNL     1      42.294 -15.049   1.087  1.00  0.00     0.169 HD
HETATM   14  O   UNL     1      39.297 -15.672   1.919  1.00  0.00    -0.267 OA
BRANCH  12  15
HETATM   15  C   UNL     1      40.905 -14.841  -0.437  1.00  0.00     0.035 A 
HETATM   16  C   UNL     1      40.247 -13.687  -0.867  1.00  0.00     0.039 A 
HETATM   17  C   UNL     1      39.870 -13.522  -2.213  1.00  0.00    -0.028 A 
HETATM   18  C   UNL     1      40.158 -14.545  -3.126  1.00  0.00     0.010 A 
HETATM   19  C   UNL     1      40.827 -15.694  -2.710  1.00  0.00     0.003 A 
HETATM   20  C   UNL     1      41.202 -15.839  -1.373  1.00  0.00     0.029 A 
BRANCH  17  21
HETATM   21  C   UNL     1      39.131 -12.271  -2.639  1.00  0.00     0.147 C 
HETATM   22  C   UNL     1      37.794 -12.128  -1.927  1.00  0.00     0.044 C 
BRANCH  21  23
HETATM   23  O   UNL     1      38.905 -12.280  -4.048  1.00  0.00    -0.391 OA
HETATM   24  H   UNL     1      38.561 -11.401  -4.280  1.00  0.00     0.210 HD
ENDBRANCH  21  23
ENDBRANCH  17  21
ENDBRANCH  12  15
ENDBRANCH   1  11
BRANCH   4  25
HETATM   25  C   UNL     1      42.763 -17.224   7.179  1.00  0.00     0.409 C 
HETATM   26  F   UNL     1      41.421 -17.144   7.273  1.00  0.00    -0.169 F 
HETATM   27  F   UNL     1      43.165 -18.364   7.785  1.00  0.00    -0.169 F 
HETATM   28  F   UNL     1      43.255 -16.197   7.923  1.00  0.00    -0.169 F 
ENDBRANCH   4  25
BRANCH   6  29
HETATM   29  C   UNL     1      43.880 -19.827   3.079  1.00  0.00     0.005 A 
HETATM   30  S   UNL     1      44.775 -20.986   3.972  1.00  0.00    -0.104 SA
HETATM   31  C   UNL     1      44.579 -22.171   2.757  1.00  0.00     0.050 A 
HETATM   32  C   UNL     1      43.849 -21.701   1.689  1.00  0.00     0.008 A 
HETATM   33  C   UNL     1      43.449 -20.347   1.872  1.00  0.00     0.017 A 
ENDBRANCH   6  29
TORSDOF 6
ENDMDL
MODEL 5
REMARK VINA RESULT:      -8.5      4.602      8.792
REMARK  6 active torsions:
REMARK  status: ('A' for Active; 'I' for Inactive)
REMARK    1  A    between atoms: C_2  and  O_3 
REMARK    2  A    between atoms: C_2  and  C_4 
REMARK    3  A    between atoms: C_6  and  N_7 
REMARK       I    between atoms: N_7  and  C_8 
REMARK    4  A    between atoms: C_8  and  C_9 
REMARK    5  A    between atoms: C_12  and  C_13 
REMARK    6  A    between atoms: C_18  and  C_19 
ROOT
HETATM    1  C   UNL     1      42.070 -14.808   1.624  1.00  0.00     0.096 C 
HETATM    2  C   UNL     1      41.480 -14.288   0.487  1.00  0.00     0.138 C 
HETATM    3  N   UNL     1      41.826 -12.955   0.461  1.00  0.00    -0.240 N 
HETATM    4  C   UNL     1      41.390 -12.010  -0.553  1.00  0.00     0.221 C 
HETATM    5  C   UNL     1      40.797 -12.747  -1.767  1.00  0.00     0.067 C 
HETATM    6  C   UNL     1      39.892 -13.901  -1.310  1.00  0.00     0.125 C 
HETATM    7  N   UNL     1      40.689 -14.825  -0.484  1.00  0.00    -0.365 N 
HETATM    8  N   UNL     1      42.435 -12.542   1.581  1.00  0.00    -0.181 NA
HETATM    9  C   UNL     1      42.614 -13.672   2.271  1.00  0.00     0.160 C 
HETATM   10  H   UNL     1      40.136 -15.651  -0.237  1.00  0.00     0.162 HD
ENDROOT
BRANCH   1  11
HETATM   11  C   UNL     1      42.109 -16.177   2.112  1.00  0.00     0.261 C 
HETATM   12  N   UNL     1      43.344 -16.549   2.610  1.00  0.00    -0.323 N 
HETATM   13  H   UNL     1      44.031 -15.805   2.664  1.00  0.00     0.169 HD
HETATM   14  O   UNL     1      41.099 -16.870   2.093  1.00  0.00    -0.267 OA
BRANCH  12  15
HETATM   15  C   UNL     1      43.716 -17.794   3.154  1.00  0.00     0.035 A 
HETATM   16  C   UNL     1      43.746 -18.069   4.523  1.00  0.00     0.039 A 
HETATM   17  C   UNL     1      44.140 -19.332   5.004  1.00  0.00    -0.028 A 
HETATM   18  C   UNL     1      44.515 -20.318   4.083  1.00  0.00     0.010 A 
HETATM   19  C   UNL     1      44.474 -20.059   2.714  1.00  0.00     0.003 A 
HETATM   20  C   UNL     1      44.073 -18.804   2.253  1.00  0.00     0.029 A 
BRANCH  17  21
HETATM   21  C   UNL     1      44.190 -19.586   6.495  1.00  0.00     0.147 C 
HETATM   22  C   UNL     1      43.745 -20.999   6.848  1.00  0.00     0.044 C 
BRANCH  21  23
HETATM   23  O   UNL     1      43.361 -18.655   7.189  1.00  0.00    -0.391 OA
HETATM   24  H   UNL     1      42.687 -19.178   7.656  1.00  0.00     0.210 HD
ENDBRANCH  21  23
ENDBRANCH  17  21
ENDBRANCH  12  15
ENDBRANCH   1  11
BRANCH   4  25
HETATM   25  C   UNL     1      42.524 -11.117  -1.008  1.00  0.00     0.409 C 
HETATM   26  F   UNL     1      42.241 -10.402  -2.115  1.00  0.00    -0.169 F 
HETATM   27  F   UNL     1      42.924 -10.262  -0.040  1.00  0.00    -0.169 F 
HETATM   28  F   UNL     1      43.605 -11.881  -1.319  1.00  0.00    -0.169 F 
ENDBRANCH   4  25
BRANCH   6  29
HETATM   29  C   UNL     1      39.271 -14.582  -2.505  1.00  0.00     0.005 A 
HETATM   30  S   UNL     1      37.720 -14.103  -3.058  1.00  0.00    -0.104 SA
HETATM   31  C   UNL     1      37.749 -15.242  -4.331  1.00  0.00     0.050 A 
HETATM   32  C   UNL     1      38.913 -15.977  -4.340  1.00  0.00     0.008 A 
HETATM   33  C   UNL     1      39.790 -15.600  -3.284  1.00  0.00     0.017 A 
ENDBRANCH   6  29
TORSDOF 6
ENDMDL
MODEL 6
REMARK VINA RESULT:      -8.3      2.178      3.105
REMARK  6 active torsions:
REMARK  status: ('A' for Active; 'I' for Inactive)
REMARK    1  A    between atoms: C_2  and  O_3 
REMARK    2  A    between atoms: C_2  and  C_4 
REMARK    3  A    between atoms: C_6  and  N_7 
REMARK       I    between atoms: N_7  and  C_8 
REMARK    4  A    between atoms: C_8  and  C_9 
REMARK    5  A    between atoms: C_12  and  C_13 
REMARK    6  A    between atoms: C_18  and  C_19 
ROOT
HETATM    1  C   UNL     1      42.044 -15.069   4.144  1.00  0.00     0.096 C 
HETATM    2  C   UNL     1      42.701 -16.260   4.394  1.00  0.00     0.138 C 
HETATM    3  N   UNL     1      43.168 -16.167   5.686  1.00  0.00    -0.240 N 
HETATM    4  C   UNL     1      43.953 -17.191   6.354  1.00  0.00     0.221 C 
HETATM    5  C   UNL     1      43.895 -18.517   5.576  1.00  0.00     0.067 C 
HETATM    6  C   UNL     1      44.032 -18.266   4.068  1.00  0.00     0.125 C 
HETATM    7  N   UNL     1      42.944 -17.369   3.639  1.00  0.00    -0.365 N 
HETATM    8  N   UNL     1      43.021 -14.946   6.218  1.00  0.00    -0.181 NA
HETATM    9  C   UNL     1      42.308 -14.291   5.296  1.00  0.00     0.160 C 
HETATM   10  H   UNL     1      42.956 -17.253   2.622  1.00  0.00     0.162 HD
ENDROOT
BRANCH   1  11
HETATM   11  C   UNL     1      41.289 -14.648   2.975  1.00  0.00     0.261 C 
HETATM   12  N   UNL     1      40.049 -14.120   3.282  1.00  0.00    -0.323 N 
HETATM   13  H   UNL     1      39.860 -14.002   4.272  1.00  0.00     0.169 HD
HETATM   14  O   UNL     1      41.779 -14.740   1.856  1.00  0.00    -0.267 OA
BRANCH  12  15
HETATM   15  C   UNL     1      39.078 -13.623   2.390  1.00  0.00     0.035 A 
HETATM   16  C   UNL     1      38.667 -12.288   2.350  1.00  0.00     0.039 A 
HETATM   17  C   UNL     1      37.681 -11.857   1.443  1.00  0.00    -0.028 A 
HETATM   18  C   UNL     1      37.104 -12.795   0.576  1.00  0.00     0.010 A 
HETATM   19  C   UNL     1      37.517 -14.125   0.599  1.00  0.00     0.003 A 
HETATM   20  C   UNL     1      38.502 -14.535   1.499  1.00  0.00     0.029 A 
BRANCH  17  21
HETATM   21  C   UNL     1      37.238 -10.410   1.446  1.00  0.00     0.147 C 
HETATM   22  C   UNL     1      35.762 -10.264   1.102  1.00  0.00     0.044 C 
BRANCH  21  23
HETATM   23  O   UNL     1      38.005  -9.651   0.514  1.00  0.00    -0.391 OA
HETATM   24  H   UNL     1      37.540  -8.806   0.393  1.00  0.00     0.210 HD
ENDBRANCH  21  23
ENDBRANCH  17  21
ENDBRANCH  12  15
ENDBRANCH   1  11
BRANCH   4  25
HETATM   25  C   UNL     1      43.483 -17.417   7.775  1.00  0.00     0.409 C 
HETATM   26  F   UNL     1      44.036 -18.495   8.365  1.00  0.00    -0.169 F 
HETATM   27  F   UNL     1      43.699 -16.341   8.564  1.00  0.00    -0.169 F 
HETATM   28  F   UNL     1      42.139 -17.633   7.778  1.00  0.00    -0.169 F 
ENDBRANCH   4  25
BRANCH   6  29
HETATM   29  C   UNL     1      44.030 -19.575   3.317  1.00  0.00     0.005 A 
HETATM   30  S   UNL     1      44.862 -20.933   3.955  1.00  0.00    -0.104 SA
HETATM   31  C   UNL     1      44.400 -21.919   2.638  1.00  0.00     0.050 A 
HETATM   32  C   UNL     1      43.628 -21.234   1.726  1.00  0.00     0.008 A 
HETATM   33  C   UNL     1      43.418 -19.881   2.115  1.00  0.00     0.017 A 
ENDBRANCH   6  29
TORSDOF 6
ENDMDL
MODEL 7
REMARK VINA RESULT:      -8.3      2.309      2.595
REMARK  6 active torsions:
REMARK  status: ('A' for Active; 'I' for Inactive)
REMARK    1  A    between atoms: C_2  and  O_3 
REMARK    2  A    between atoms: C_2  and  C_4 
REMARK    3  A    between atoms: C_6  and  N_7 
REMARK       I    between atoms: N_7  and  C_8 
REMARK    4  A    between atoms: C_8  and  C_9 
REMARK    5  A    between atoms: C_12  and  C_13 
REMARK    6  A    between atoms: C_18  and  C_19 
ROOT
HETATM    1  C   UNL     1      42.795 -15.057   3.680  1.00  0.00     0.096 C 
HETATM    2  C   UNL     1      43.206 -16.315   4.079  1.00  0.00     0.138 C 
HETATM    3  N   UNL     1      43.428 -16.225   5.435  1.00  0.00    -0.240 N 
HETATM    4  C   UNL     1      43.908 -17.315   6.267  1.00  0.00     0.221 C 
HETATM    5  C   UNL     1      43.799 -18.658   5.521  1.00  0.00     0.067 C 
HETATM    6  C   UNL     1      44.255 -18.506   4.064  1.00  0.00     0.125 C 
HETATM    7  N   UNL     1      43.417 -17.485   3.411  1.00  0.00    -0.365 N 
HETATM    8  N   UNL     1      43.368 -14.969   5.900  1.00  0.00    -0.181 NA
HETATM    9  C   UNL     1      42.951 -14.266   4.843  1.00  0.00     0.160 C 
HETATM   10  H   UNL     1      43.639 -17.423   2.414  1.00  0.00     0.162 HD
ENDROOT
BRANCH   1  11
HETATM   11  C   UNL     1      42.349 -14.591   2.377  1.00  0.00     0.261 C 
HETATM   12  N   UNL     1      41.944 -13.270   2.373  1.00  0.00    -0.323 N 
HETATM   13  H   UNL     1      42.097 -12.767   3.241  1.00  0.00     0.169 HD
HETATM   14  O   UNL     1      42.392 -15.336   1.405  1.00  0.00    -0.267 OA
BRANCH  12  15
HETATM   15  C   UNL     1      41.459 -12.517   1.285  1.00  0.00     0.035 A 
HETATM   16  C   UNL     1      42.271 -11.754   0.442  1.00  0.00     0.039 A 
HETATM   17  C   UNL     1      41.723 -11.014  -0.622  1.00  0.00    -0.028 A 
HETATM   18  C   UNL     1      40.337 -11.045  -0.823  1.00  0.00     0.010 A 
HETATM   19  C   UNL     1      39.520 -11.815   0.003  1.00  0.00     0.003 A 
HETATM   20  C   UNL     1      40.080 -12.550   1.049  1.00  0.00     0.029 A 
BRANCH  17  21
HETATM   21  C   UNL     1      42.628 -10.174  -1.498  1.00  0.00     0.147 C 
HETATM   22  C   UNL     1      42.585 -10.618  -2.953  1.00  0.00     0.044 C 
BRANCH  21  23
HETATM   23  O   UNL     1      43.975 -10.242  -1.034  1.00  0.00    -0.391 OA
HETATM   24  H   UNL     1      44.364  -9.363  -1.181  1.00  0.00     0.210 HD
ENDBRANCH  21  23
ENDBRANCH  17  21
ENDBRANCH  12  15
ENDBRANCH   1  11
BRANCH   4  25
HETATM   25  C   UNL     1      43.148 -17.398   7.573  1.00  0.00     0.409 C 
HETATM   26  F   UNL     1      41.818 -17.220   7.440  1.00  0.00    -0.169 F 
HETATM   27  F   UNL     1      43.359 -18.569   8.215  1.00  0.00    -0.169 F 
HETATM   28  F   UNL     1      43.577 -16.415   8.410  1.00  0.00    -0.169 F 
ENDBRANCH   4  25
BRANCH   6  29
HETATM   29  C   UNL     1      44.198 -19.838   3.357  1.00  0.00     0.005 A 
HETATM   30  S   UNL     1      44.847 -21.238   4.107  1.00  0.00    -0.104 SA
HETATM   31  C   UNL     1      44.410 -22.229   2.785  1.00  0.00     0.050 A 
HETATM   32  C   UNL     1      43.783 -21.515   1.789  1.00  0.00     0.008 A 
HETATM   33  C   UNL     1      43.664 -20.135   2.116  1.00  0.00     0.017 A 
ENDBRANCH   6  29
TORSDOF 6
ENDMDL
MODEL 8
REMARK VINA RESULT:      -8.1      5.109      9.140
REMARK  6 active torsions:
REMARK  status: ('A' for Active; 'I' for Inactive)
REMARK    1  A    between atoms: C_2  and  O_3 
REMARK    2  A    between atoms: C_2  and  C_4 
REMARK    3  A    between atoms: C_6  and  N_7 
REMARK       I    between atoms: N_7  and  C_8 
REMARK    4  A    between atoms: C_8  and  C_9 
REMARK    5  A    between atoms: C_12  and  C_13 
REMARK    6  A    between atoms: C_18  and  C_19 
ROOT
HETATM    1  C   UNL     1      43.721 -14.867   6.168  1.00  0.00     0.096 C 
HETATM    2  C   UNL     1      43.340 -15.136   4.866  1.00  0.00     0.138 C 
HETATM    3  N   UNL     1      43.572 -16.481   4.678  1.00  0.00    -0.240 N 
HETATM    4  C   UNL     1      43.344 -17.190   3.431  1.00  0.00     0.221 C 
HETATM    5  C   UNL     1      42.491 -16.342   2.469  1.00  0.00     0.067 C 
HETATM    6  C   UNL     1      42.955 -14.879   2.481  1.00  0.00     0.125 C 
HETATM    7  N   UNL     1      42.849 -14.362   3.857  1.00  0.00    -0.365 N 
HETATM    8  N   UNL     1      44.237 -17.052   5.691  1.00  0.00    -0.181 NA
HETATM    9  C   UNL     1      44.296 -16.082   6.609  1.00  0.00     0.160 C 
HETATM   10  H   UNL     1      43.068 -13.362   3.882  1.00  0.00     0.162 HD
ENDROOT
BRANCH   1  11
HETATM   11  C   UNL     1      43.621 -13.635   6.933  1.00  0.00     0.261 C 
HETATM   12  N   UNL     1      44.496 -13.578   8.002  1.00  0.00    -0.323 N 
HETATM   13  H   UNL     1      45.156 -14.346   8.063  1.00  0.00     0.169 HD
HETATM   14  O   UNL     1      42.846 -12.752   6.586  1.00  0.00    -0.267 OA
BRANCH  12  15
HETATM   15  C   UNL     1      44.653 -12.534   8.935  1.00  0.00     0.035 A 
HETATM   16  C   UNL     1      43.686 -12.180   9.879  1.00  0.00     0.039 A 
HETATM   17  C   UNL     1      43.900 -11.118  10.776  1.00  0.00    -0.028 A 
HETATM   18  C   UNL     1      45.104 -10.405  10.706  1.00  0.00     0.010 A 
HETATM   19  C   UNL     1      46.081 -10.759   9.777  1.00  0.00     0.003 A 
HETATM   20  C   UNL     1      45.857 -11.821   8.899  1.00  0.00     0.029 A 
BRANCH  17  21
HETATM   21  C   UNL     1      42.819 -10.742  11.767  1.00  0.00     0.147 C 
HETATM   22  C   UNL     1      43.371  -9.939  12.936  1.00  0.00     0.044 C 
BRANCH  21  23
HETATM   23  O   UNL     1      42.177 -11.911  12.273  1.00  0.00    -0.391 OA
HETATM   24  H   UNL     1      42.857 -12.605  12.316  1.00  0.00     0.210 HD
ENDBRANCH  21  23
ENDBRANCH  17  21
ENDBRANCH  12  15
ENDBRANCH   1  11
BRANCH   4  25
HETATM   25  C   UNL     1      42.669 -18.524   3.662  1.00  0.00     0.409 C 
HETATM   26  F   UNL     1      43.504 -19.485   4.105  1.00  0.00    -0.169 F 
HETATM   27  F   UNL     1      41.631 -18.432   4.523  1.00  0.00    -0.169 F 
HETATM   28  F   UNL     1      42.157 -18.982   2.488  1.00  0.00    -0.169 F 
ENDBRANCH   4  25
BRANCH   6  29
HETATM   29  C   UNL     1      42.151 -14.067   1.496  1.00  0.00     0.005 A 
HETATM   30  S   UNL     1      41.247 -14.854   0.268  1.00  0.00    -0.104 SA
HETATM   31  C   UNL     1      40.670 -13.370  -0.351  1.00  0.00     0.050 A 
HETATM   32  C   UNL     1      41.153 -12.292   0.357  1.00  0.00     0.008 A 
HETATM   33  C   UNL     1      42.011 -12.693   1.420  1.00  0.00     0.017 A 
ENDBRANCH   6  29
TORSDOF 6
ENDMDL
MODEL 9
REMARK VINA RESULT:      -8.0      2.489      3.037
REMARK  6 active torsions:
REMARK  status: ('A' for Active; 'I' for Inactive)
REMARK    1  A    between atoms: C_2  and  O_3 
REMARK    2  A    between atoms: C_2  and  C_4 
REMARK    3  A    between atoms: C_6  and  N_7 
REMARK       I    between atoms: N_7  and  C_8 
REMARK    4  A    between atoms: C_8  and  C_9 
REMARK    5  A    between atoms: C_12  and  C_13 
REMARK    6  A    between atoms: C_18  and  C_19 
ROOT
HETATM    1  C   UNL     1      43.021 -15.551   5.021  1.00  0.00     0.096 C 
HETATM    2  C   UNL     1      43.497 -16.848   5.063  1.00  0.00     0.138 C 
HETATM    3  N   UNL     1      43.979 -17.029   6.340  1.00  0.00    -0.240 N 
HETATM    4  C   UNL     1      44.609 -18.248   6.818  1.00  0.00     0.221 C 
HETATM    5  C   UNL     1      44.352 -19.412   5.844  1.00  0.00     0.067 C 
HETATM    6  C   UNL     1      44.517 -18.948   4.390  1.00  0.00     0.125 C 
HETATM    7  N   UNL     1      43.570 -17.847   4.138  1.00  0.00    -0.365 N 
HETATM    8  N   UNL     1      44.016 -15.899   7.059  1.00  0.00    -0.181 NA
HETATM    9  C   UNL     1      43.402 -15.010   6.272  1.00  0.00     0.160 C 
HETATM   10  H   UNL     1      43.594 -17.574   3.152  1.00  0.00     0.162 HD
ENDROOT
BRANCH   1  11
HETATM   11  C   UNL     1      42.330 -14.845   3.954  1.00  0.00     0.261 C 
HETATM   12  N   UNL     1      41.133 -14.280   4.352  1.00  0.00    -0.323 N 
HETATM   13  H   UNL     1      40.933 -14.342   5.344  1.00  0.00     0.169 HD
HETATM   14  O   UNL     1      42.834 -14.759   2.841  1.00  0.00    -0.267 OA
BRANCH  12  15
HETATM   15  C   UNL     1      40.227 -13.536   3.570  1.00  0.00     0.035 A 
HETATM   16  C   UNL     1      39.550 -14.050   2.461  1.00  0.00     0.039 A 
HETATM   17  C   UNL     1      38.666 -13.250   1.714  1.00  0.00    -0.028 A 
HETATM   18  C   UNL     1      38.476 -11.915   2.094  1.00  0.00     0.010 A 
HETATM   19  C   UNL     1      39.135 -11.398   3.208  1.00  0.00     0.003 A 
HETATM   20  C   UNL     1      40.003 -12.206   3.943  1.00  0.00     0.029 A 
BRANCH  17  21
HETATM   21  C   UNL     1      37.971 -13.829   0.500  1.00  0.00     0.147 C 
HETATM   22  C   UNL     1      37.393 -12.745  -0.398  1.00  0.00     0.044 C 
BRANCH  21  23
HETATM   23  O   UNL     1      36.920 -14.708   0.898  1.00  0.00    -0.391 OA
HETATM   24  H   UNL     1      36.157 -14.502   0.331  1.00  0.00     0.210 HD
ENDBRANCH  21  23
ENDBRANCH  17  21
ENDBRANCH  12  15
ENDBRANCH   1  11
BRANCH   4  25
HETATM   25  C   UNL     1      44.118 -18.626   8.199  1.00  0.00     0.409 C 
HETATM   26  F   UNL     1      43.180 -17.791   8.689  1.00  0.00    -0.169 F 
HETATM   27  F   UNL     1      43.630 -19.886   8.242  1.00  0.00    -0.169 F 
HETATM   28  F   UNL     1      45.156 -18.583   9.076  1.00  0.00    -0.169 F 
ENDBRANCH   4  25
BRANCH   6  29
HETATM   29  C   UNL     1      44.319 -20.108   3.445  1.00  0.00     0.005 A 
HETATM   30  S   UNL     1      43.430 -19.892   1.994  1.00  0.00    -0.104 SA
HETATM   31  C   UNL     1      43.661 -21.521   1.533  1.00  0.00     0.050 A 
HETATM   32  C   UNL     1      44.399 -22.221   2.461  1.00  0.00     0.008 A 
HETATM   33  C   UNL     1      44.774 -21.408   3.567  1.00  0.00     0.017 A 
ENDBRANCH   6  29
TORSDOF 6
ENDMDL
MODEL 10
REMARK VINA RESULT:      -7.9      3.691      7.817
REMARK  6 active torsions:
REMARK  status: ('A' for Active; 'I' for Inactive)
REMARK    1  A    between atoms: C_2  and  O_3 
REMARK    2  A    between atoms: C_2  and  C_4 
REMARK    3  A    between atoms: C_6  and  N_7 
REMARK       I    between atoms: N_7  and  C_8 
REMARK    4  A    between atoms: C_8  and  C_9 
REMARK    5  A    between atoms: C_12  and  C_13 
REMARK    6  A    between atoms: C_18  and  C_19 
ROOT
HETATM    1  C   UNL     1      40.732 -15.470   4.748  1.00  0.00     0.096 C 
HETATM    2  C   UNL     1      40.230 -14.616   3.784  1.00  0.00     0.138 C 
HETATM    3  N   UNL     1      40.023 -13.412   4.420  1.00  0.00    -0.240 N 
HETATM    4  C   UNL     1      39.467 -12.229   3.786  1.00  0.00     0.221 C 
HETATM    5  C   UNL     1      39.469 -12.380   2.254  1.00  0.00     0.067 C 
HETATM    6  C   UNL     1      39.016 -13.790   1.848  1.00  0.00     0.125 C 
HETATM    7  N   UNL     1      39.926 -14.772   2.464  1.00  0.00    -0.365 N 
HETATM    8  N   UNL     1      40.181 -13.480   5.749  1.00  0.00    -0.181 NA
HETATM    9  C   UNL     1      40.645 -14.718   5.944  1.00  0.00     0.160 C 
HETATM   10  H   UNL     1      39.704 -15.717   2.141  1.00  0.00     0.162 HD
ENDROOT
BRANCH   1  11
HETATM   11  C   UNL     1      41.205 -16.840   4.626  1.00  0.00     0.261 C 
HETATM   12  N   UNL     1      42.306 -16.970   3.799  1.00  0.00    -0.323 N 
HETATM   13  H   UNL     1      42.701 -16.098   3.464  1.00  0.00     0.169 HD
HETATM   14  O   UNL     1      40.663 -17.740   5.254  1.00  0.00    -0.267 OA
BRANCH  12  15
HETATM   15  C   UNL     1      43.003 -18.149   3.469  1.00  0.00     0.035 A 
HETATM   16  C   UNL     1      43.564 -19.013   4.413  1.00  0.00     0.039 A 
HETATM   17  C   UNL     1      44.260 -20.170   4.017  1.00  0.00    -0.028 A 
HETATM   18  C   UNL     1      44.393 -20.445   2.650  1.00  0.00     0.010 A 
HETATM   19  C   UNL     1      43.825 -19.597   1.701  1.00  0.00     0.003 A 
HETATM   20  C   UNL     1      43.130 -18.457   2.110  1.00  0.00     0.029 A 
BRANCH  17  21
HETATM   21  C   UNL     1      44.881 -21.069   5.066  1.00  0.00     0.147 C 
HETATM   22  C   UNL     1      44.834 -22.535   4.660  1.00  0.00     0.044 C 
BRANCH  21  23
HETATM   23  O   UNL     1      44.212 -20.915   6.316  1.00  0.00    -0.391 OA
HETATM   24  H   UNL     1      43.871 -21.792   6.558  1.00  0.00     0.210 HD
ENDBRANCH  21  23
ENDBRANCH  17  21
ENDBRANCH  12  15
ENDBRANCH   1  11
BRANCH   4  25
HETATM   25  C   UNL     1      40.226 -10.979   4.172  1.00  0.00     0.409 C 
HETATM   26  F   UNL     1      40.135  -9.986   3.265  1.00  0.00    -0.169 F 
HETATM   27  F   UNL     1      39.839 -10.494   5.374  1.00  0.00    -0.169 F 
HETATM   28  F   UNL     1      41.551 -11.269   4.282  1.00  0.00    -0.169 F 
ENDBRANCH   4  25
BRANCH   6  29
HETATM   29  C   UNL     1      38.968 -13.911   0.345  1.00  0.00     0.005 A 
HETATM   30  S   UNL     1      40.381 -14.336  -0.529  1.00  0.00    -0.104 SA
HETATM   31  C   UNL     1      39.554 -14.280  -2.024  1.00  0.00     0.050 A 
HETATM   32  C   UNL     1      38.228 -13.943  -1.868  1.00  0.00     0.008 A 
HETATM   33  C   UNL     1      37.890 -13.726  -0.502  1.00  0.00     0.017 A 
ENDBRANCH   6  29
TORSDOF 6
ENDMDL
