MODEL 1
REMARK VINA RESULT:      -8.5      0.000      0.000
REMARK  3 active torsions:
REMARK  status: ('A' for Active; 'I' for Inactive)
REMARK    1  A    between atoms: C_6  and  C_7 
REMARK    2  A    between atoms: C_13  and  C_14 
REMARK    3  A    between atoms: C_14  and  C_15 
ROOT
HETATM    1  C   UNL     1      44.592 -21.966   2.103  1.00  0.00     0.070 C 
HETATM    2  C   UNL     1      44.336 -20.622   2.721  1.00  0.00     0.033 A 
HETATM    3  N   UNL     1      44.115 -19.599   1.878  1.00  0.00    -0.246 NA
HETATM    4  C   UNL     1      43.880 -18.411   2.467  1.00  0.00     0.112 A 
HETATM    5  C   UNL     1      43.853 -18.142   3.832  1.00  0.00     0.043 A 
HETATM    6  C   UNL     1      44.094 -19.240   4.701  1.00  0.00     0.065 A 
HETATM    7  C   UNL     1      44.330 -20.493   4.103  1.00  0.00     0.044 A 
HETATM    8  S   UNL     1      43.573 -17.041   1.507  1.00  0.00    -0.063 SA
HETATM    9  C   UNL     1      43.344 -16.042   2.875  1.00  0.00     0.085 A 
HETATM   10  C   UNL     1      43.570 -16.746   4.045  1.00  0.00     0.061 A 
HETATM   11  N   UNL     1      43.507 -16.159   5.265  1.00  0.00    -0.397 N 
HETATM   12  H   UNL     1      43.495 -15.134   5.306  1.00  0.00     0.156 HD
HETATM   13  H   UNL     1      44.013 -16.537   6.065  1.00  0.00     0.156 HD
ENDROOT
BRANCH   9  14
HETATM   14  C   UNL     1      43.057 -14.619   2.743  1.00  0.00     0.201 C 
HETATM   15  O   UNL     1      43.783 -13.749   3.231  1.00  0.00    -0.286 OA
BRANCH  14  16
HETATM   16  C   UNL     1      41.841 -14.138   2.034  1.00  0.00     0.018 A 
HETATM   17  C   UNL     1      40.634 -14.820   2.245  1.00  0.00     0.055 A 
HETATM   18  C   UNL     1      39.526 -14.388   1.549  1.00  0.00     0.106 A 
HETATM   19  C   UNL     1      39.588 -13.335   0.666  1.00  0.00     0.105 A 
HETATM   20  O   UNL     1      38.280 -14.924   1.629  1.00  0.00    -0.323 OA
HETATM   21  O   UNL     1      38.387 -13.078   0.082  1.00  0.00    -0.323 OA
HETATM   22  C   UNL     1      40.762 -12.655   0.424  1.00  0.00     0.040 A 
HETATM   23  C   UNL     1      37.565 -14.098   0.687  1.00  0.00     0.352 A 
HETATM   24  C   UNL     1      41.908 -13.069   1.111  1.00  0.00     0.018 A 
ENDBRANCH  14  16
ENDBRANCH   9  14
BRANCH   6  25
HETATM   25  C   UNL     1      44.053 -19.141   6.202  1.00  0.00     0.418 C 
HETATM   26  F   UNL     1      45.075 -18.407   6.728  1.00  0.00    -0.166 F 
HETATM   27  F   UNL     1      42.904 -18.573   6.660  1.00  0.00    -0.166 F 
HETATM   28  F   UNL     1      44.132 -20.355   6.819  1.00  0.00    -0.166 F 
ENDBRANCH   6  25
TORSDOF 3
ENDMDL
MODEL 2
REMARK VINA RESULT:      -8.5      2.262      3.337
REMARK  3 active torsions:
REMARK  status: ('A' for Active; 'I' for Inactive)
REMARK    1  A    between atoms: C_6  and  C_7 
REMARK    2  A    between atoms: C_13  and  C_14 
REMARK    3  A    between atoms: C_14  and  C_15 
ROOT
HETATM    1  C   UNL     1      45.052 -20.616   4.600  1.00  0.00     0.070 C 
HETATM    2  C   UNL     1      44.063 -19.492   4.481  1.00  0.00     0.033 A 
HETATM    3  N   UNL     1      43.682 -19.148   3.239  1.00  0.00    -0.246 NA
HETATM    4  C   UNL     1      42.788 -18.144   3.170  1.00  0.00     0.112 A 
HETATM    5  C   UNL     1      42.238 -17.437   4.235  1.00  0.00     0.043 A 
HETATM    6  C   UNL     1      42.660 -17.817   5.537  1.00  0.00     0.065 A 
HETATM    7  C   UNL     1      43.587 -18.875   5.629  1.00  0.00     0.044 A 
HETATM    8  S   UNL     1      42.218 -17.625   1.654  1.00  0.00    -0.063 SA
HETATM    9  C   UNL     1      41.177 -16.466   2.358  1.00  0.00     0.085 A 
HETATM   10  C   UNL     1      41.325 -16.441   3.735  1.00  0.00     0.061 A 
HETATM   11  N   UNL     1      40.649 -15.565   4.518  1.00  0.00    -0.397 N 
HETATM   12  H   UNL     1      40.179 -14.775   4.062  1.00  0.00     0.156 HD
HETATM   13  H   UNL     1      41.004 -15.284   5.432  1.00  0.00     0.156 HD
ENDROOT
BRANCH   9  14
HETATM   14  C   UNL     1      40.352 -15.583   1.544  1.00  0.00     0.201 C 
HETATM   15  O   UNL     1      39.127 -15.515   1.673  1.00  0.00    -0.286 OA
BRANCH  14  16
HETATM   16  C   UNL     1      40.948 -14.732   0.480  1.00  0.00     0.018 A 
HETATM   17  C   UNL     1      41.588 -13.543   0.860  1.00  0.00     0.055 A 
HETATM   18  C   UNL     1      42.099 -12.744  -0.139  1.00  0.00     0.106 A 
HETATM   19  C   UNL     1      41.983 -13.080  -1.469  1.00  0.00     0.105 A 
HETATM   20  O   UNL     1      42.749 -11.565   0.041  1.00  0.00    -0.323 OA
HETATM   21  O   UNL     1      42.548 -12.154  -2.288  1.00  0.00    -0.323 OA
HETATM   22  C   UNL     1      41.346 -14.233  -1.876  1.00  0.00     0.040 A 
HETATM   23  C   UNL     1      43.021 -11.189  -1.325  1.00  0.00     0.352 A 
HETATM   24  C   UNL     1      40.812 -15.066  -0.887  1.00  0.00     0.018 A 
ENDBRANCH  14  16
ENDBRANCH   9  14
BRANCH   6  25
HETATM   25  C   UNL     1      42.132 -17.195   6.801  1.00  0.00     0.418 C 
HETATM   26  F   UNL     1      40.774 -17.252   6.911  1.00  0.00    -0.166 F 
HETATM   27  F   UNL     1      42.628 -17.783   7.923  1.00  0.00    -0.166 F 
HETATM   28  F   UNL     1      42.443 -15.871   6.914  1.00  0.00    -0.166 F 
ENDBRANCH   6  25
TORSDOF 3
ENDMDL
MODEL 3
REMARK VINA RESULT:      -8.4      4.929      8.196
REMARK  3 active torsions:
REMARK  status: ('A' for Active; 'I' for Inactive)
REMARK    1  A    between atoms: C_6  and  C_7 
REMARK    2  A    between atoms: C_13  and  C_14 
REMARK    3  A    between atoms: C_14  and  C_15 
ROOT
HETATM    1  C   UNL     1      43.082  -9.871  -0.587  1.00  0.00     0.070 C 
HETATM    2  C   UNL     1      42.580 -11.286  -0.597  1.00  0.00     0.033 A 
HETATM    3  N   UNL     1      42.525 -11.918   0.588  1.00  0.00    -0.246 NA
HETATM    4  C   UNL     1      42.062 -13.182   0.544  1.00  0.00     0.112 A 
HETATM    5  C   UNL     1      41.651 -13.886  -0.585  1.00  0.00     0.043 A 
HETATM    6  C   UNL     1      41.723 -13.196  -1.825  1.00  0.00     0.065 A 
HETATM    7  C   UNL     1      42.195 -11.869  -1.796  1.00  0.00     0.044 A 
HETATM    8  S   UNL     1      41.932 -14.083   1.980  1.00  0.00    -0.063 SA
HETATM    9  C   UNL     1      41.278 -15.434   1.162  1.00  0.00     0.085 A 
HETATM   10  C   UNL     1      41.228 -15.208  -0.203  1.00  0.00     0.061 A 
HETATM   11  N   UNL     1      40.802 -16.153  -1.077  1.00  0.00    -0.397 N 
HETATM   12  H   UNL     1      40.711 -17.117  -0.737  1.00  0.00     0.156 HD
HETATM   13  H   UNL     1      41.099 -16.151  -2.052  1.00  0.00     0.156 HD
ENDROOT
BRANCH   9  14
HETATM   14  C   UNL     1      40.942 -16.665   1.864  1.00  0.00     0.201 C 
HETATM   15  O   UNL     1      39.777 -17.032   2.038  1.00  0.00    -0.286 OA
BRANCH  14  16
HETATM   16  C   UNL     1      41.998 -17.538   2.444  1.00  0.00     0.018 A 
HETATM   17  C   UNL     1      41.997 -17.753   3.830  1.00  0.00     0.055 A 
HETATM   18  C   UNL     1      43.005 -18.529   4.358  1.00  0.00     0.106 A 
HETATM   19  C   UNL     1      43.992 -19.072   3.568  1.00  0.00     0.105 A 
HETATM   20  O   UNL     1      43.160 -18.843   5.670  1.00  0.00    -0.323 OA
HETATM   21  O   UNL     1      44.890 -19.797   4.287  1.00  0.00    -0.323 OA
HETATM   22  C   UNL     1      44.031 -18.867   2.206  1.00  0.00     0.040 A 
HETATM   23  C   UNL     1      44.365 -19.637   5.621  1.00  0.00     0.352 A 
HETATM   24  C   UNL     1      43.024 -18.080   1.637  1.00  0.00     0.018 A 
ENDBRANCH  14  16
ENDBRANCH   9  14
BRANCH   6  25
HETATM   25  C   UNL     1      41.275 -13.785  -3.135  1.00  0.00     0.418 C 
HETATM   26  F   UNL     1      39.956 -14.131  -3.155  1.00  0.00    -0.166 F 
HETATM   27  F   UNL     1      41.461 -12.938  -4.183  1.00  0.00    -0.166 F 
HETATM   28  F   UNL     1      41.948 -14.926  -3.464  1.00  0.00    -0.166 F 
ENDBRANCH   6  25
TORSDOF 3
ENDMDL
MODEL 4
REMARK VINA RESULT:      -8.4      2.560      3.240
REMARK  3 active torsions:
REMARK  status: ('A' for Active; 'I' for Inactive)
REMARK    1  A    between atoms: C_6  and  C_7 
REMARK    2  A    between atoms: C_13  and  C_14 
REMARK    3  A    between atoms: C_14  and  C_15 
ROOT
HETATM    1  C   UNL     1      44.489 -21.703   2.087  1.00  0.00     0.070 C 
HETATM    2  C   UNL     1      44.261 -20.428   2.847  1.00  0.00     0.033 A 
HETATM    3  N   UNL     1      43.990 -19.330   2.121  1.00  0.00    -0.246 NA
HETATM    4  C   UNL     1      43.782 -18.207   2.835  1.00  0.00     0.112 A 
HETATM    5  C   UNL     1      43.828 -18.073   4.219  1.00  0.00     0.043 A 
HETATM    6  C   UNL     1      44.121 -19.248   4.962  1.00  0.00     0.065 A 
HETATM    7  C   UNL     1      44.330 -20.434   4.233  1.00  0.00     0.044 A 
HETATM    8  S   UNL     1      43.416 -16.753   2.032  1.00  0.00    -0.063 SA
HETATM    9  C   UNL     1      43.258 -15.894   3.501  1.00  0.00     0.085 A 
HETATM   10  C   UNL     1      43.550 -16.707   4.583  1.00  0.00     0.061 A 
HETATM   11  N   UNL     1      43.552 -16.243   5.857  1.00  0.00    -0.397 N 
HETATM   12  H   UNL     1      43.538 -15.226   5.999  1.00  0.00     0.156 HD
HETATM   13  H   UNL     1      44.103 -16.692   6.587  1.00  0.00     0.156 HD
ENDROOT
BRANCH   9  14
HETATM   14  C   UNL     1      42.957 -14.469   3.526  1.00  0.00     0.201 C 
HETATM   15  O   UNL     1      43.614 -13.642   2.887  1.00  0.00    -0.286 OA
BRANCH  14  16
HETATM   16  C   UNL     1      41.850 -13.926   4.358  1.00  0.00     0.018 A 
HETATM   17  C   UNL     1      42.130 -12.858   5.223  1.00  0.00     0.055 A 
HETATM   18  C   UNL     1      41.105 -12.393   6.018  1.00  0.00     0.106 A 
HETATM   19  C   UNL     1      39.849 -12.954   5.985  1.00  0.00     0.105 A 
HETATM   20  O   UNL     1      41.193 -11.371   6.908  1.00  0.00    -0.323 OA
HETATM   21  O   UNL     1      38.991 -12.352   6.850  1.00  0.00    -0.323 OA
HETATM   22  C   UNL     1      39.546 -14.015   5.158  1.00  0.00     0.040 A 
HETATM   23  C   UNL     1      39.852 -11.357   7.442  1.00  0.00     0.352 A 
HETATM   24  C   UNL     1      40.565 -14.514   4.340  1.00  0.00     0.018 A 
ENDBRANCH  14  16
ENDBRANCH   9  14
BRANCH   6  25
HETATM   25  C   UNL     1      44.162 -19.296   6.466  1.00  0.00     0.418 C 
HETATM   26  F   UNL     1      45.198 -18.591   7.006  1.00  0.00    -0.166 F 
HETATM   27  F   UNL     1      43.030 -18.804   7.039  1.00  0.00    -0.166 F 
HETATM   28  F   UNL     1      44.299 -20.562   6.955  1.00  0.00    -0.166 F 
ENDBRANCH   6  25
TORSDOF 3
ENDMDL
MODEL 5
REMARK VINA RESULT:      -8.4      1.062      1.684
REMARK  3 active torsions:
REMARK  status: ('A' for Active; 'I' for Inactive)
REMARK    1  A    between atoms: C_6  and  C_7 
REMARK    2  A    between atoms: C_13  and  C_14 
REMARK    3  A    between atoms: C_14  and  C_15 
ROOT
HETATM    1  C   UNL     1      44.618 -21.971   2.195  1.00  0.00     0.070 C 
HETATM    2  C   UNL     1      44.295 -20.584   2.670  1.00  0.00     0.033 A 
HETATM    3  N   UNL     1      43.871 -19.709   1.743  1.00  0.00    -0.246 NA
HETATM    4  C   UNL     1      43.582 -18.477   2.205  1.00  0.00     0.112 A 
HETATM    5  C   UNL     1      43.685 -18.029   3.518  1.00  0.00     0.043 A 
HETATM    6  C   UNL     1      44.140 -18.973   4.478  1.00  0.00     0.065 A 
HETATM    7  C   UNL     1      44.436 -20.270   4.014  1.00  0.00     0.044 A 
HETATM    8  S   UNL     1      43.023 -17.284   1.131  1.00  0.00    -0.063 SA
HETATM    9  C   UNL     1      42.850 -16.132   2.383  1.00  0.00     0.085 A 
HETATM   10  C   UNL     1      43.283 -16.649   3.592  1.00  0.00     0.061 A 
HETATM   11  N   UNL     1      43.301 -15.910   4.729  1.00  0.00    -0.397 N 
HETATM   12  H   UNL     1      43.186 -14.893   4.644  1.00  0.00     0.156 HD
HETATM   13  H   UNL     1      43.934 -16.129   5.497  1.00  0.00     0.156 HD
ENDROOT
BRANCH   9  14
HETATM   14  C   UNL     1      42.401 -14.772   2.115  1.00  0.00     0.201 C 
HETATM   15  O   UNL     1      43.037 -13.781   2.482  1.00  0.00    -0.286 OA
BRANCH  14  16
HETATM   16  C   UNL     1      41.121 -14.506   1.406  1.00  0.00     0.018 A 
HETATM   17  C   UNL     1      41.176 -14.104   0.064  1.00  0.00     0.055 A 
HETATM   18  C   UNL     1      39.984 -13.821  -0.568  1.00  0.00     0.106 A 
HETATM   19  C   UNL     1      38.776 -13.914   0.084  1.00  0.00     0.105 A 
HETATM   20  O   UNL     1      39.846 -13.422  -1.860  1.00  0.00    -0.323 OA
HETATM   21  O   UNL     1      37.728 -13.585  -0.717  1.00  0.00    -0.323 OA
HETATM   22  C   UNL     1      38.690 -14.290   1.407  1.00  0.00     0.040 A 
HETATM   23  C   UNL     1      38.414 -13.262  -1.945  1.00  0.00     0.352 A 
HETATM   24  C   UNL     1      39.881 -14.581   2.081  1.00  0.00     0.018 A 
ENDBRANCH  14  16
ENDBRANCH   9  14
BRANCH   6  25
HETATM   25  C   UNL     1      44.264 -18.676   5.948  1.00  0.00     0.418 C 
HETATM   26  F   UNL     1      44.559 -19.772   6.704  1.00  0.00    -0.166 F 
HETATM   27  F   UNL     1      45.232 -17.758   6.218  1.00  0.00    -0.166 F 
HETATM   28  F   UNL     1      43.118 -18.168   6.488  1.00  0.00    -0.166 F 
ENDBRANCH   6  25
TORSDOF 3
ENDMDL
MODEL 6
REMARK VINA RESULT:      -8.3      2.640      4.034
REMARK  3 active torsions:
REMARK  status: ('A' for Active; 'I' for Inactive)
REMARK    1  A    between atoms: C_6  and  C_7 
REMARK    2  A    between atoms: C_13  and  C_14 
REMARK    3  A    between atoms: C_14  and  C_15 
ROOT
HETATM    1  C   UNL     1      43.720 -18.406   7.621  1.00  0.00     0.070 C 
HETATM    2  C   UNL     1      43.252 -18.159   6.216  1.00  0.00     0.033 A 
HETATM    3  N   UNL     1      42.402 -17.134   6.032  1.00  0.00    -0.246 NA
HETATM    4  C   UNL     1      42.009 -16.934   4.759  1.00  0.00     0.112 A 
HETATM    5  C   UNL     1      42.382 -17.674   3.641  1.00  0.00     0.043 A 
HETATM    6  C   UNL     1      43.278 -18.754   3.864  1.00  0.00     0.065 A 
HETATM    7  C   UNL     1      43.709 -18.970   5.188  1.00  0.00     0.044 A 
HETATM    8  S   UNL     1      40.945 -15.660   4.396  1.00  0.00    -0.063 SA
HETATM    9  C   UNL     1      40.974 -16.013   2.724  1.00  0.00     0.085 A 
HETATM   10  C   UNL     1      41.740 -17.137   2.469  1.00  0.00     0.061 A 
HETATM   11  N   UNL     1      41.873 -17.655   1.224  1.00  0.00    -0.397 N 
HETATM   12  H   UNL     1      41.228 -17.328   0.495  1.00  0.00     0.156 HD
HETATM   13  H   UNL     1      42.100 -18.638   1.076  1.00  0.00     0.156 HD
ENDROOT
BRANCH   9  14
HETATM   14  C   UNL     1      40.183 -15.250   1.766  1.00  0.00     0.201 C 
HETATM   15  O   UNL     1      38.950 -15.231   1.792  1.00  0.00    -0.286 OA
BRANCH  14  16
HETATM   16  C   UNL     1      40.830 -14.472   0.676  1.00  0.00     0.018 A 
HETATM   17  C   UNL     1      41.520 -13.299   1.014  1.00  0.00     0.055 A 
HETATM   18  C   UNL     1      42.078 -12.567  -0.011  1.00  0.00     0.106 A 
HETATM   19  C   UNL     1      41.961 -12.953  -1.326  1.00  0.00     0.105 A 
HETATM   20  O   UNL     1      42.780 -11.412   0.130  1.00  0.00    -0.323 OA
HETATM   21  O   UNL     1      42.577 -12.089  -2.176  1.00  0.00    -0.323 OA
HETATM   22  C   UNL     1      41.276 -14.091  -1.694  1.00  0.00     0.040 A 
HETATM   23  C   UNL     1      43.083 -11.106  -1.248  1.00  0.00     0.352 A 
HETATM   24  C   UNL     1      40.693 -14.857  -0.678  1.00  0.00     0.018 A 
ENDBRANCH  14  16
ENDBRANCH   9  14
BRANCH   6  25
HETATM   25  C   UNL     1      43.823 -19.627   2.765  1.00  0.00     0.418 C 
HETATM   26  F   UNL     1      42.859 -20.305   2.079  1.00  0.00    -0.166 F 
HETATM   27  F   UNL     1      44.526 -18.923   1.836  1.00  0.00    -0.166 F 
HETATM   28  F   UNL     1      44.679 -20.587   3.221  1.00  0.00    -0.166 F 
ENDBRANCH   6  25
TORSDOF 3
ENDMDL
MODEL 7
REMARK VINA RESULT:      -8.0      2.151      3.189
REMARK  3 active torsions:
REMARK  status: ('A' for Active; 'I' for Inactive)
REMARK    1  A    between atoms: C_6  and  C_7 
REMARK    2  A    between atoms: C_13  and  C_14 
REMARK    3  A    between atoms: C_14  and  C_15 
ROOT
HETATM    1  C   UNL     1      43.946 -19.388   7.841  1.00  0.00     0.070 C 
HETATM    2  C   UNL     1      43.722 -18.766   6.493  1.00  0.00     0.033 A 
HETATM    3  N   UNL     1      43.361 -17.472   6.475  1.00  0.00    -0.246 NA
HETATM    4  C   UNL     1      43.177 -16.944   5.250  1.00  0.00     0.112 A 
HETATM    5  C   UNL     1      43.313 -17.595   4.027  1.00  0.00     0.043 A 
HETATM    6  C   UNL     1      43.691 -18.964   4.075  1.00  0.00     0.065 A 
HETATM    7  C   UNL     1      43.899 -19.530   5.348  1.00  0.00     0.044 A 
HETATM    8  S   UNL     1      42.732 -15.310   5.094  1.00  0.00    -0.063 SA
HETATM    9  C   UNL     1      42.747 -15.391   3.387  1.00  0.00     0.085 A 
HETATM   10  C   UNL     1      43.026 -16.677   2.955  1.00  0.00     0.061 A 
HETATM   11  N   UNL     1      43.038 -17.012   1.642  1.00  0.00    -0.397 N 
HETATM   12  H   UNL     1      42.633 -16.348   0.972  1.00  0.00     0.156 HD
HETATM   13  H   UNL     1      42.870 -17.969   1.334  1.00  0.00     0.156 HD
ENDROOT
BRANCH   9  14
HETATM   14  C   UNL     1      42.397 -14.242   2.563  1.00  0.00     0.201 C 
HETATM   15  O   UNL     1      43.102 -13.231   2.502  1.00  0.00    -0.286 OA
BRANCH  14  16
HETATM   16  C   UNL     1      41.140 -14.214   1.768  1.00  0.00     0.018 A 
HETATM   17  C   UNL     1      41.234 -14.015   0.383  1.00  0.00     0.055 A 
HETATM   18  C   UNL     1      40.059 -13.951  -0.335  1.00  0.00     0.106 A 
HETATM   19  C   UNL     1      38.830 -14.063   0.273  1.00  0.00     0.105 A 
HETATM   20  O   UNL     1      39.958 -13.766  -1.677  1.00  0.00    -0.323 OA
HETATM   21  O   UNL     1      37.803 -13.966  -0.613  1.00  0.00    -0.323 OA
HETATM   22  C   UNL     1      38.704 -14.243   1.634  1.00  0.00     0.040 A 
HETATM   23  C   UNL     1      38.525 -13.764  -1.846  1.00  0.00     0.352 A 
HETATM   24  C   UNL     1      39.876 -14.310   2.394  1.00  0.00     0.018 A 
ENDBRANCH  14  16
ENDBRANCH   9  14
BRANCH   6  25
HETATM   25  C   UNL     1      43.930 -19.806   2.851  1.00  0.00     0.418 C 
HETATM   26  F   UNL     1      42.818 -19.976   2.080  1.00  0.00    -0.166 F 
HETATM   27  F   UNL     1      44.883 -19.284   2.032  1.00  0.00    -0.166 F 
HETATM   28  F   UNL     1      44.355 -21.068   3.147  1.00  0.00    -0.166 F 
ENDBRANCH   6  25
TORSDOF 3
ENDMDL
MODEL 8
REMARK VINA RESULT:      -8.0      1.537      1.990
REMARK  3 active torsions:
REMARK  status: ('A' for Active; 'I' for Inactive)
REMARK    1  A    between atoms: C_6  and  C_7 
REMARK    2  A    between atoms: C_13  and  C_14 
REMARK    3  A    between atoms: C_14  and  C_15 
ROOT
HETATM    1  C   UNL     1      44.640 -21.500   2.400  1.00  0.00     0.070 C 
HETATM    2  C   UNL     1      44.036 -20.216   2.891  1.00  0.00     0.033 A 
HETATM    3  N   UNL     1      43.218 -19.568   2.045  1.00  0.00    -0.246 NA
HETATM    4  C   UNL     1      42.687 -18.425   2.521  1.00  0.00     0.112 A 
HETATM    5  C   UNL     1      42.905 -17.857   3.772  1.00  0.00     0.043 A 
HETATM    6  C   UNL     1      43.777 -18.560   4.646  1.00  0.00     0.065 A 
HETATM    7  C   UNL     1      44.333 -19.764   4.169  1.00  0.00     0.044 A 
HETATM    8  S   UNL     1      41.624 -17.521   1.549  1.00  0.00    -0.063 SA
HETATM    9  C   UNL     1      41.373 -16.357   2.776  1.00  0.00     0.085 A 
HETATM   10  C   UNL     1      42.152 -16.635   3.887  1.00  0.00     0.061 A 
HETATM   11  N   UNL     1      42.175 -15.825   4.974  1.00  0.00    -0.397 N 
HETATM   12  H   UNL     1      41.766 -14.888   4.885  1.00  0.00     0.156 HD
HETATM   13  H   UNL     1      42.977 -15.800   5.603  1.00  0.00     0.156 HD
ENDROOT
BRANCH   9  14
HETATM   14  C   UNL     1      40.519 -15.196   2.567  1.00  0.00     0.201 C 
HETATM   15  O   UNL     1      39.752 -14.772   3.436  1.00  0.00    -0.286 OA
BRANCH  14  16
HETATM   16  C   UNL     1      40.503 -14.472   1.267  1.00  0.00     0.018 A 
HETATM   17  C   UNL     1      39.281 -14.344   0.592  1.00  0.00     0.055 A 
HETATM   18  C   UNL     1      39.289 -13.707  -0.630  1.00  0.00     0.106 A 
HETATM   19  C   UNL     1      40.449 -13.219  -1.187  1.00  0.00     0.105 A 
HETATM   20  O   UNL     1      38.205 -13.492  -1.420  1.00  0.00    -0.323 OA
HETATM   21  O   UNL     1      40.236 -12.635  -2.396  1.00  0.00    -0.323 OA
HETATM   22  C   UNL     1      41.668 -13.343  -0.556  1.00  0.00     0.040 A 
HETATM   23  C   UNL     1      38.813 -12.823  -2.544  1.00  0.00     0.352 A 
HETATM   24  C   UNL     1      41.697 -13.988   0.685  1.00  0.00     0.018 A 
ENDBRANCH  14  16
ENDBRANCH   9  14
BRANCH   6  25
HETATM   25  C   UNL     1      44.086 -18.117   6.051  1.00  0.00     0.418 C 
HETATM   26  F   UNL     1      44.628 -16.868   6.122  1.00  0.00    -0.166 F 
HETATM   27  F   UNL     1      42.985 -18.099   6.850  1.00  0.00    -0.166 F 
HETATM   28  F   UNL     1      44.982 -18.931   6.681  1.00  0.00    -0.166 F 
ENDBRANCH   6  25
TORSDOF 3
ENDMDL
MODEL 9
REMARK VINA RESULT:      -7.7      3.648      5.217
REMARK  3 active torsions:
REMARK  status: ('A' for Active; 'I' for Inactive)
REMARK    1  A    between atoms: C_6  and  C_7 
REMARK    2  A    between atoms: C_13  and  C_14 
REMARK    3  A    between atoms: C_14  and  C_15 
ROOT
HETATM    1  C   UNL     1      40.325 -14.678   6.125  1.00  0.00     0.070 C 
HETATM    2  C   UNL     1      40.758 -14.991   4.722  1.00  0.00     0.033 A 
HETATM    3  N   UNL     1      40.461 -14.082   3.778  1.00  0.00    -0.246 NA
HETATM    4  C   UNL     1      40.871 -14.391   2.533  1.00  0.00     0.112 A 
HETATM    5  C   UNL     1      41.551 -15.538   2.135  1.00  0.00     0.043 A 
HETATM    6  C   UNL     1      41.850 -16.485   3.151  1.00  0.00     0.065 A 
HETATM    7  C   UNL     1      41.438 -16.173   4.462  1.00  0.00     0.044 A 
HETATM    8  S   UNL     1      40.566 -13.314   1.253  1.00  0.00    -0.063 SA
HETATM    9  C   UNL     1      41.371 -14.312   0.122  1.00  0.00     0.085 A 
HETATM   10  C   UNL     1      41.804 -15.484   0.718  1.00  0.00     0.061 A 
HETATM   11  N   UNL     1      42.420 -16.467   0.016  1.00  0.00    -0.397 N 
HETATM   12  H   UNL     1      42.378 -16.426  -1.009  1.00  0.00     0.156 HD
HETATM   13  H   UNL     1      42.404 -17.437   0.330  1.00  0.00     0.156 HD
ENDROOT
BRANCH   9  14
HETATM   14  C   UNL     1      41.454 -13.957  -1.289  1.00  0.00     0.201 C 
HETATM   15  O   UNL     1      42.376 -13.277  -1.747  1.00  0.00    -0.286 OA
BRANCH  14  16
HETATM   16  C   UNL     1      40.404 -14.375  -2.255  1.00  0.00     0.018 A 
HETATM   17  C   UNL     1      39.267 -13.566  -2.392  1.00  0.00     0.055 A 
HETATM   18  C   UNL     1      38.283 -13.987  -3.260  1.00  0.00     0.106 A 
HETATM   19  C   UNL     1      38.392 -15.163  -3.966  1.00  0.00     0.105 A 
HETATM   20  O   UNL     1      37.120 -13.333  -3.520  1.00  0.00    -0.323 OA
HETATM   21  O   UNL     1      37.311 -15.394  -4.758  1.00  0.00    -0.323 OA
HETATM   22  C   UNL     1      39.489 -15.989  -3.841  1.00  0.00     0.040 A 
HETATM   23  C   UNL     1      36.502 -14.236  -4.461  1.00  0.00     0.352 A 
HETATM   24  C   UNL     1      40.505 -15.593  -2.965  1.00  0.00     0.018 A 
ENDBRANCH  14  16
ENDBRANCH   9  14
BRANCH   6  25
HETATM   25  C   UNL     1      42.620 -17.755   2.909  1.00  0.00     0.418 C 
HETATM   26  F   UNL     1      43.900 -17.544   2.487  1.00  0.00    -0.166 F 
HETATM   27  F   UNL     1      42.711 -18.534   4.021  1.00  0.00    -0.166 F 
HETATM   28  F   UNL     1      42.055 -18.547   1.952  1.00  0.00    -0.166 F 
ENDBRANCH   6  25
TORSDOF 3
ENDMDL
MODEL 10
REMARK VINA RESULT:      -7.7      3.166      4.027
REMARK  3 active torsions:
REMARK  status: ('A' for Active; 'I' for Inactive)
REMARK    1  A    between atoms: C_6  and  C_7 
REMARK    2  A    between atoms: C_13  and  C_14 
REMARK    3  A    between atoms: C_14  and  C_15 
ROOT
HETATM    1  C   UNL     1      44.166 -19.163   7.407  1.00  0.00     0.070 C 
HETATM    2  C   UNL     1      43.540 -18.646   6.144  1.00  0.00     0.033 A 
HETATM    3  N   UNL     1      42.670 -17.630   6.270  1.00  0.00    -0.246 NA
HETATM    4  C   UNL     1      42.135 -17.185   5.117  1.00  0.00     0.112 A 
HETATM    5  C   UNL     1      42.382 -17.671   3.836  1.00  0.00     0.043 A 
HETATM    6  C   UNL     1      43.303 -18.748   3.731  1.00  0.00     0.065 A 
HETATM    7  C   UNL     1      43.881 -19.218   4.926  1.00  0.00     0.044 A 
HETATM    8  S   UNL     1      41.030 -15.894   5.143  1.00  0.00    -0.063 SA
HETATM    9  C   UNL     1      40.871 -15.897   3.441  1.00  0.00     0.085 A 
HETATM   10  C   UNL     1      41.609 -16.924   2.878  1.00  0.00     0.061 A 
HETATM   11  N   UNL     1      41.602 -17.173   1.545  1.00  0.00    -0.397 N 
HETATM   12  H   UNL     1      40.878 -16.721   0.975  1.00  0.00     0.156 HD
HETATM   13  H   UNL     1      41.815 -18.098   1.174  1.00  0.00     0.156 HD
ENDROOT
BRANCH   9  14
HETATM   14  C   UNL     1      39.974 -14.977   2.754  1.00  0.00     0.201 C 
HETATM   15  O   UNL     1      39.142 -15.357   1.926  1.00  0.00    -0.286 OA
BRANCH  14  16
HETATM   16  C   UNL     1      40.037 -13.510   2.995  1.00  0.00     0.018 A 
HETATM   17  C   UNL     1      39.158 -12.952   3.934  1.00  0.00     0.055 A 
HETATM   18  C   UNL     1      39.199 -11.587   4.116  1.00  0.00     0.106 A 
HETATM   19  C   UNL     1      40.059 -10.785   3.402  1.00  0.00     0.105 A 
HETATM   20  O   UNL     1      38.427 -10.878   4.980  1.00  0.00    -0.323 OA
HETATM   21  O   UNL     1      39.935  -9.471   3.730  1.00  0.00    -0.323 OA
HETATM   22  C   UNL     1      40.925 -11.300   2.461  1.00  0.00     0.040 A 
HETATM   23  C   UNL     1      38.889  -9.535   4.722  1.00  0.00     0.352 A 
HETATM   24  C   UNL     1      40.906 -12.683   2.247  1.00  0.00     0.018 A 
ENDBRANCH  14  16
ENDBRANCH   9  14
BRANCH   6  25
HETATM   25  C   UNL     1      43.724 -19.362   2.423  1.00  0.00     0.418 C 
HETATM   26  F   UNL     1      42.707 -19.987   1.762  1.00  0.00    -0.166 F 
HETATM   27  F   UNL     1      44.235 -18.448   1.554  1.00  0.00    -0.166 F 
HETATM   28  F   UNL     1      44.693 -20.311   2.567  1.00  0.00    -0.166 F 
ENDBRANCH   6  25
TORSDOF 3
ENDMDL
