MODEL 1
REMARK VINA RESULT:      -8.2      0.000      0.000
REMARK  4 active torsions:
REMARK  status: ('A' for Active; 'I' for Inactive)
REMARK    1  A    between atoms: C_2  and  N_3 
REMARK       I    between atoms: N_3  and  C_4 
REMARK       I    between atoms: C_4  and  N_5 
REMARK    2  A    between atoms: N_5  and  C_6 
REMARK    3  A    between atoms: C_14  and  C_15 
REMARK       I    between atoms: C_15  and  N_16 
REMARK    4  A    between atoms: N_16  and  C_17 
ROOT
HETATM    1  C   UNL     1      40.037 -15.681   2.325  1.00  0.00     0.031 A 
HETATM    2  C   UNL     1      40.704 -15.886   1.120  1.00  0.00     0.037 A 
HETATM    3  C   UNL     1      41.876 -16.654   1.122  1.00  0.00     0.048 A 
HETATM    4  C   UNL     1      42.384 -17.230   2.307  1.00  0.00     0.055 A 
HETATM    5  C   UNL     1      41.680 -17.037   3.502  1.00  0.00     0.049 A 
HETATM    6 CL   UNL     1      42.129 -17.723   5.026  1.00  0.00    -0.083 Cl
HETATM    7  C   UNL     1      40.516 -16.260   3.504  1.00  0.00     0.027 A 
ENDROOT
BRANCH   2   8
HETATM    8  N   UNL     1      40.286 -15.335  -0.109  1.00  0.00    -0.309 N 
HETATM    9  C   UNL     1      40.891 -14.332  -0.815  1.00  0.00     0.325 C 
HETATM   10  N   UNL     1      40.408 -14.080  -2.070  1.00  0.00    -0.306 N 
HETATM   11  O   UNL     1      41.801 -13.617  -0.400  1.00  0.00    -0.247 OA
HETATM   12  H   UNL     1      40.798 -13.234  -2.468  1.00  0.00     0.171 HD
HETATM   13  H   UNL     1      39.339 -15.541  -0.390  1.00  0.00     0.170 HD
BRANCH  10  14
HETATM   14  C   UNL     1      39.623 -14.846  -2.906  1.00  0.00     0.072 A 
HETATM   15  C   UNL     1      38.288 -14.739  -3.354  1.00  0.00     0.169 A 
HETATM   16  N   UNL     1      37.937 -15.737  -4.171  1.00  0.00    -0.185 NA
HETATM   17  N   UNL     1      39.035 -16.507  -4.217  1.00  0.00    -0.287 N 
HETATM   18  H   UNL     1      39.006 -17.354  -4.777  1.00  0.00     0.188 HD
HETATM   19  C   UNL     1      40.066 -16.022  -3.467  1.00  0.00     0.140 A 
ENDBRANCH  10  14
ENDBRANCH   2   8
BRANCH   4  20
HETATM   20  C   UNL     1      43.653 -18.009   2.152  1.00  0.00     0.253 C 
HETATM   21  N   UNL     1      43.785 -19.178   2.866  1.00  0.00    -0.352 N 
HETATM   22  H   UNL     1      43.043 -19.446   3.501  1.00  0.00     0.163 HD
HETATM   23  O   UNL     1      44.547 -17.570   1.437  1.00  0.00    -0.268 OA
BRANCH  21  24
HETATM   24  C   UNL     1      45.014 -19.962   2.877  1.00  0.00     0.084 C 
HETATM   25  C   UNL     1      45.495 -20.208   4.314  1.00  0.00     0.025 C 
HETATM   26  C   UNL     1      44.611 -21.204   5.064  1.00  0.00     0.002 C 
HETATM   27  C   UNL     1      44.468 -22.516   4.299  1.00  0.00     0.000 C 
HETATM   28  C   UNL     1      43.958 -22.288   2.879  1.00  0.00     0.002 C 
HETATM   29  C   UNL     1      44.823 -21.283   2.121  1.00  0.00     0.025 C 
ENDBRANCH  21  24
ENDBRANCH   4  20
TORSDOF 4
ENDMDL
MODEL 2
REMARK VINA RESULT:      -7.8      2.571      8.034
REMARK  4 active torsions:
REMARK  status: ('A' for Active; 'I' for Inactive)
REMARK    1  A    between atoms: C_2  and  N_3 
REMARK       I    between atoms: N_3  and  C_4 
REMARK       I    between atoms: C_4  and  N_5 
REMARK    2  A    between atoms: N_5  and  C_6 
REMARK    3  A    between atoms: C_14  and  C_15 
REMARK       I    between atoms: C_15  and  N_16 
REMARK    4  A    between atoms: N_16  and  C_17 
ROOT
HETATM    1  C   UNL     1      42.098 -17.098   5.248  1.00  0.00     0.031 A 
HETATM    2  C   UNL     1      42.170 -17.540   3.930  1.00  0.00     0.037 A 
HETATM    3  C   UNL     1      41.443 -16.852   2.949  1.00  0.00     0.048 A 
HETATM    4  C   UNL     1      40.656 -15.722   3.264  1.00  0.00     0.055 A 
HETATM    5  C   UNL     1      40.624 -15.276   4.592  1.00  0.00     0.049 A 
HETATM    6 CL   UNL     1      39.764 -13.877   5.134  1.00  0.00    -0.083 Cl
HETATM    7  C   UNL     1      41.339 -15.970   5.575  1.00  0.00     0.027 A 
ENDROOT
BRANCH   2   8
HETATM    8  N   UNL     1      42.911 -18.669   3.522  1.00  0.00    -0.309 N 
HETATM    9  C   UNL     1      43.907 -18.711   2.587  1.00  0.00     0.325 C 
HETATM   10  N   UNL     1      44.608 -19.881   2.480  1.00  0.00    -0.306 N 
HETATM   11  O   UNL     1      44.196 -17.802   1.810  1.00  0.00    -0.247 OA
HETATM   12  H   UNL     1      45.219 -19.890   1.672  1.00  0.00     0.171 HD
HETATM   13  H   UNL     1      42.530 -19.567   3.778  1.00  0.00     0.170 HD
BRANCH  10  14
HETATM   14  C   UNL     1      44.723 -20.947   3.349  1.00  0.00     0.072 A 
HETATM   15  C   UNL     1      45.096 -21.059   4.706  1.00  0.00     0.169 A 
HETATM   16  N   UNL     1      45.072 -22.322   5.144  1.00  0.00    -0.185 NA
HETATM   17  N   UNL     1      44.721 -23.026   4.057  1.00  0.00    -0.287 N 
HETATM   18  H   UNL     1      44.649 -24.035   4.140  1.00  0.00     0.188 HD
HETATM   19  C   UNL     1      44.512 -22.249   2.955  1.00  0.00     0.140 A 
ENDBRANCH  10  14
ENDBRANCH   2   8
BRANCH   4  20
HETATM   20  C   UNL     1      39.925 -15.105   2.113  1.00  0.00     0.253 C 
HETATM   21  N   UNL     1      40.635 -14.294   1.257  1.00  0.00    -0.352 N 
HETATM   22  H   UNL     1      41.609 -14.108   1.460  1.00  0.00     0.163 HD
HETATM   23  O   UNL     1      38.721 -15.301   1.988  1.00  0.00    -0.268 OA
BRANCH  21  24
HETATM   24  C   UNL     1      40.007 -13.556   0.167  1.00  0.00     0.084 C 
HETATM   25  C   UNL     1      40.719 -12.216  -0.070  1.00  0.00     0.025 C 
HETATM   26  C   UNL     1      42.097 -12.391  -0.708  1.00  0.00     0.002 C 
HETATM   27  C   UNL     1      42.022 -13.209  -1.992  1.00  0.00     0.000 C 
HETATM   28  C   UNL     1      41.346 -14.558  -1.764  1.00  0.00     0.002 C 
HETATM   29  C   UNL     1      39.973 -14.401  -1.112  1.00  0.00     0.025 C 
ENDBRANCH  21  24
ENDBRANCH   4  20
TORSDOF 4
ENDMDL
MODEL 3
REMARK VINA RESULT:      -7.8      5.797      9.582
REMARK  4 active torsions:
REMARK  status: ('A' for Active; 'I' for Inactive)
REMARK    1  A    between atoms: C_2  and  N_3 
REMARK       I    between atoms: N_3  and  C_4 
REMARK       I    between atoms: C_4  and  N_5 
REMARK    2  A    between atoms: N_5  and  C_6 
REMARK    3  A    between atoms: C_14  and  C_15 
REMARK       I    between atoms: C_15  and  N_16 
REMARK    4  A    between atoms: N_16  and  C_17 
ROOT
HETATM    1  C   UNL     1      44.377 -16.433   6.606  1.00  0.00     0.031 A 
HETATM    2  C   UNL     1      43.777 -15.191   6.795  1.00  0.00     0.037 A 
HETATM    3  C   UNL     1      42.725 -14.815   5.949  1.00  0.00     0.048 A 
HETATM    4  C   UNL     1      42.257 -15.668   4.925  1.00  0.00     0.055 A 
HETATM    5  C   UNL     1      42.854 -16.925   4.773  1.00  0.00     0.049 A 
HETATM    6 CL   UNL     1      42.361 -18.110   3.613  1.00  0.00    -0.083 Cl
HETATM    7  C   UNL     1      43.913 -17.296   5.609  1.00  0.00     0.027 A 
ENDROOT
BRANCH   2   8
HETATM    8  N   UNL     1      44.188 -14.265   7.776  1.00  0.00    -0.309 N 
HETATM    9  C   UNL     1      45.182 -13.332   7.668  1.00  0.00     0.325 C 
HETATM   10  N   UNL     1      45.289 -12.420   8.683  1.00  0.00    -0.306 N 
HETATM   11  O   UNL     1      46.007 -13.270   6.759  1.00  0.00    -0.247 OA
HETATM   12  H   UNL     1      46.133 -11.864   8.611  1.00  0.00     0.171 HD
HETATM   13  H   UNL     1      43.876 -14.446   8.719  1.00  0.00     0.170 HD
BRANCH  10  14
HETATM   14  C   UNL     1      44.391 -12.050   9.663  1.00  0.00     0.072 A 
HETATM   15  C   UNL     1      43.329 -11.121   9.707  1.00  0.00     0.169 A 
HETATM   16  N   UNL     1      42.721 -11.091  10.897  1.00  0.00    -0.185 NA
HETATM   17  N   UNL     1      43.418 -11.973  11.630  1.00  0.00    -0.287 N 
HETATM   18  H   UNL     1      43.146 -12.116  12.598  1.00  0.00     0.188 HD
HETATM   19  C   UNL     1      44.435 -12.564  10.939  1.00  0.00     0.140 A 
ENDBRANCH  10  14
ENDBRANCH   2   8
BRANCH   4  20
HETATM   20  C   UNL     1      41.139 -15.120   4.092  1.00  0.00     0.253 C 
HETATM   21  N   UNL     1      41.413 -14.777   2.788  1.00  0.00    -0.352 N 
HETATM   22  H   UNL     1      42.365 -14.863   2.453  1.00  0.00     0.163 HD
HETATM   23  O   UNL     1      40.034 -14.954   4.599  1.00  0.00    -0.268 OA
BRANCH  21  24
HETATM   24  C   UNL     1      40.434 -14.136   1.918  1.00  0.00     0.084 C 
HETATM   25  C   UNL     1      40.794 -12.664   1.677  1.00  0.00     0.025 C 
HETATM   26  C   UNL     1      42.012 -12.501   0.768  1.00  0.00     0.002 C 
HETATM   27  C   UNL     1      41.834 -13.247  -0.550  1.00  0.00     0.000 C 
HETATM   28  C   UNL     1      41.509 -14.721  -0.325  1.00  0.00     0.002 C 
HETATM   29  C   UNL     1      40.301 -14.901   0.595  1.00  0.00     0.025 C 
ENDBRANCH  21  24
ENDBRANCH   4  20
TORSDOF 4
ENDMDL
MODEL 4
REMARK VINA RESULT:      -7.7      3.036      8.230
REMARK  4 active torsions:
REMARK  status: ('A' for Active; 'I' for Inactive)
REMARK    1  A    between atoms: C_2  and  N_3 
REMARK       I    between atoms: N_3  and  C_4 
REMARK       I    between atoms: C_4  and  N_5 
REMARK    2  A    between atoms: N_5  and  C_6 
REMARK    3  A    between atoms: C_14  and  C_15 
REMARK       I    between atoms: C_15  and  N_16 
REMARK    4  A    between atoms: N_16  and  C_17 
ROOT
HETATM    1  C   UNL     1      41.787 -17.262   5.682  1.00  0.00     0.031 A 
HETATM    2  C   UNL     1      42.771 -17.293   4.698  1.00  0.00     0.037 A 
HETATM    3  C   UNL     1      42.830 -16.244   3.771  1.00  0.00     0.048 A 
HETATM    4  C   UNL     1      41.926 -15.159   3.820  1.00  0.00     0.055 A 
HETATM    5  C   UNL     1      40.964 -15.133   4.838  1.00  0.00     0.049 A 
HETATM    6 CL   UNL     1      39.826 -13.852   5.078  1.00  0.00    -0.083 Cl
HETATM    7  C   UNL     1      40.896 -16.187   5.757  1.00  0.00     0.027 A 
ENDROOT
BRANCH   2   8
HETATM    8  N   UNL     1      43.703 -18.342   4.557  1.00  0.00    -0.309 N 
HETATM    9  C   UNL     1      44.745 -18.642   5.390  1.00  0.00     0.325 C 
HETATM   10  N   UNL     1      45.412 -19.813   5.152  1.00  0.00    -0.306 N 
HETATM   11  O   UNL     1      45.153 -17.931   6.306  1.00  0.00    -0.247 OA
HETATM   12  H   UNL     1      46.257 -19.892   5.706  1.00  0.00     0.171 HD
HETATM   13  H   UNL     1      43.747 -18.780   3.648  1.00  0.00     0.170 HD
BRANCH  10  14
HETATM   14  C   UNL     1      45.051 -20.924   4.419  1.00  0.00     0.072 A 
HETATM   15  C   UNL     1      44.649 -21.116   3.079  1.00  0.00     0.169 A 
HETATM   16  N   UNL     1      44.384 -22.396   2.800  1.00  0.00    -0.185 NA
HETATM   17  N   UNL     1      44.577 -23.021   3.971  1.00  0.00    -0.287 N 
HETATM   18  H   UNL     1      44.419 -24.023   4.014  1.00  0.00     0.188 HD
HETATM   19  C   UNL     1      44.966 -22.181   4.973  1.00  0.00     0.140 A 
ENDBRANCH  10  14
ENDBRANCH   2   8
BRANCH   4  20
HETATM   20  C   UNL     1      42.103 -14.125   2.753  1.00  0.00     0.253 C 
HETATM   21  N   UNL     1      41.128 -14.019   1.788  1.00  0.00    -0.352 N 
HETATM   22  H   UNL     1      40.353 -14.670   1.807  1.00  0.00     0.163 HD
HETATM   23  O   UNL     1      43.119 -13.437   2.741  1.00  0.00    -0.268 OA
BRANCH  21  24
HETATM   24  C   UNL     1      41.245 -13.124   0.642  1.00  0.00     0.084 C 
HETATM   25  C   UNL     1      41.781 -13.872  -0.586  1.00  0.00     0.025 C 
HETATM   26  C   UNL     1      40.753 -14.833  -1.182  1.00  0.00     0.002 C 
HETATM   27  C   UNL     1      39.440 -14.125  -1.498  1.00  0.00     0.000 C 
HETATM   28  C   UNL     1      38.877 -13.405  -0.276  1.00  0.00     0.002 C 
HETATM   29  C   UNL     1      39.900 -12.451   0.340  1.00  0.00     0.025 C 
ENDBRANCH  21  24
ENDBRANCH   4  20
TORSDOF 4
ENDMDL
MODEL 5
REMARK VINA RESULT:      -7.7      5.701      9.387
REMARK  4 active torsions:
REMARK  status: ('A' for Active; 'I' for Inactive)
REMARK    1  A    between atoms: C_2  and  N_3 
REMARK       I    between atoms: N_3  and  C_4 
REMARK       I    between atoms: C_4  and  N_5 
REMARK    2  A    between atoms: N_5  and  C_6 
REMARK    3  A    between atoms: C_14  and  C_15 
REMARK       I    between atoms: C_15  and  N_16 
REMARK    4  A    between atoms: N_16  and  C_17 
ROOT
HETATM    1  C   UNL     1      43.878 -16.755   7.265  1.00  0.00     0.031 A 
HETATM    2  C   UNL     1      43.899 -15.415   6.889  1.00  0.00     0.037 A 
HETATM    3  C   UNL     1      43.618 -15.085   5.557  1.00  0.00     0.048 A 
HETATM    4  C   UNL     1      43.304 -16.073   4.598  1.00  0.00     0.055 A 
HETATM    5  C   UNL     1      43.258 -17.412   5.005  1.00  0.00     0.049 A 
HETATM    6 CL   UNL     1      42.830 -18.735   3.976  1.00  0.00    -0.083 Cl
HETATM    7  C   UNL     1      43.550 -17.745   6.333  1.00  0.00     0.027 A 
ENDROOT
BRANCH   2   8
HETATM    8  N   UNL     1      44.221 -14.361   7.769  1.00  0.00    -0.309 N 
HETATM    9  C   UNL     1      45.166 -13.389   7.586  1.00  0.00     0.325 C 
HETATM   10  N   UNL     1      45.184 -12.364   8.492  1.00  0.00    -0.306 N 
HETATM   11  O   UNL     1      46.020 -13.383   6.701  1.00  0.00    -0.247 OA
HETATM   12  H   UNL     1      45.998 -11.770   8.383  1.00  0.00     0.171 HD
HETATM   13  H   UNL     1      43.885 -14.453   8.716  1.00  0.00     0.170 HD
BRANCH  10  14
HETATM   14  C   UNL     1      44.231 -11.939   9.394  1.00  0.00     0.072 A 
HETATM   15  C   UNL     1      43.168 -11.013   9.320  1.00  0.00     0.169 A 
HETATM   16  N   UNL     1      42.492 -10.914  10.469  1.00  0.00    -0.185 NA
HETATM   17  N   UNL     1      43.145 -11.747  11.293  1.00  0.00    -0.287 N 
HETATM   18  H   UNL     1      42.817 -11.833  12.250  1.00  0.00     0.188 HD
HETATM   19  C   UNL     1      44.200 -12.376  10.699  1.00  0.00     0.140 A 
ENDBRANCH  10  14
ENDBRANCH   2   8
BRANCH   4  20
HETATM   20  C   UNL     1      43.044 -15.567   3.213  1.00  0.00     0.253 C 
HETATM   21  N   UNL     1      41.958 -14.745   3.019  1.00  0.00    -0.352 N 
HETATM   22  H   UNL     1      41.350 -14.549   3.804  1.00  0.00     0.163 HD
HETATM   23  O   UNL     1      43.771 -15.928   2.293  1.00  0.00    -0.268 OA
BRANCH  21  24
HETATM   24  C   UNL     1      41.546 -14.280   1.699  1.00  0.00     0.084 C 
HETATM   25  C   UNL     1      40.458 -15.191   1.111  1.00  0.00     0.025 C 
HETATM   26  C   UNL     1      39.112 -15.025   1.816  1.00  0.00     0.002 C 
HETATM   27  C   UNL     1      38.662 -13.568   1.831  1.00  0.00     0.000 C 
HETATM   28  C   UNL     1      39.720 -12.656   2.445  1.00  0.00     0.002 C 
HETATM   29  C   UNL     1      41.076 -12.821   1.760  1.00  0.00     0.025 C 
ENDBRANCH  21  24
ENDBRANCH   4  20
TORSDOF 4
ENDMDL
MODEL 6
REMARK VINA RESULT:      -7.6      6.497      8.851
REMARK  4 active torsions:
REMARK  status: ('A' for Active; 'I' for Inactive)
REMARK    1  A    between atoms: C_2  and  N_3 
REMARK       I    between atoms: N_3  and  C_4 
REMARK       I    between atoms: C_4  and  N_5 
REMARK    2  A    between atoms: N_5  and  C_6 
REMARK    3  A    between atoms: C_14  and  C_15 
REMARK       I    between atoms: C_15  and  N_16 
REMARK    4  A    between atoms: N_16  and  C_17 
ROOT
HETATM    1  C   UNL     1      39.850 -11.983   5.710  1.00  0.00     0.031 A 
HETATM    2  C   UNL     1      41.119 -12.111   6.267  1.00  0.00     0.037 A 
HETATM    3  C   UNL     1      42.088 -12.847   5.572  1.00  0.00     0.048 A 
HETATM    4  C   UNL     1      41.810 -13.445   4.322  1.00  0.00     0.055 A 
HETATM    5  C   UNL     1      40.536 -13.276   3.766  1.00  0.00     0.049 A 
HETATM    6 CL   UNL     1      40.052 -13.888   2.222  1.00  0.00    -0.083 Cl
HETATM    7  C   UNL     1      39.563 -12.553   4.466  1.00  0.00     0.027 A 
ENDROOT
BRANCH   2   8
HETATM    8  N   UNL     1      41.484 -11.568   7.516  1.00  0.00    -0.309 N 
HETATM    9  C   UNL     1      41.788 -10.265   7.795  1.00  0.00     0.325 C 
HETATM   10  N   UNL     1      41.941  -9.932   9.114  1.00  0.00    -0.306 N 
HETATM   11  O   UNL     1      41.973  -9.381   6.960  1.00  0.00    -0.247 OA
HETATM   12  H   UNL     1      42.312  -8.997   9.233  1.00  0.00     0.171 HD
HETATM   13  H   UNL     1      41.761 -12.230   8.226  1.00  0.00     0.170 HD
BRANCH  10  14
HETATM   14  C   UNL     1      41.543 -10.586  10.262  1.00  0.00     0.072 A 
HETATM   15  C   UNL     1      40.292 -10.776  10.887  1.00  0.00     0.169 A 
HETATM   16  N   UNL     1      40.384 -11.487  12.016  1.00  0.00    -0.185 NA
HETATM   17  N   UNL     1      41.699 -11.719  12.136  1.00  0.00    -0.287 N 
HETATM   18  H   UNL     1      42.024 -12.242  12.944  1.00  0.00     0.188 HD
HETATM   19  C   UNL     1      42.436 -11.190  11.117  1.00  0.00     0.140 A 
ENDBRANCH  10  14
ENDBRANCH   2   8
BRANCH   4  20
HETATM   20  C   UNL     1      42.941 -14.213   3.710  1.00  0.00     0.253 C 
HETATM   21  N   UNL     1      42.788 -15.571   3.552  1.00  0.00    -0.352 N 
HETATM   22  H   UNL     1      41.941 -16.008   3.894  1.00  0.00     0.163 HD
HETATM   23  O   UNL     1      43.975 -13.626   3.409  1.00  0.00    -0.268 OA
BRANCH  21  24
HETATM   24  C   UNL     1      43.859 -16.434   3.069  1.00  0.00     0.084 C 
HETATM   25  C   UNL     1      43.911 -17.745   3.867  1.00  0.00     0.025 C 
HETATM   26  C   UNL     1      42.740 -18.673   3.546  1.00  0.00     0.002 C 
HETATM   27  C   UNL     1      42.632 -18.944   2.049  1.00  0.00     0.000 C 
HETATM   28  C   UNL     1      42.546 -17.650   1.245  1.00  0.00     0.002 C 
HETATM   29  C   UNL     1      43.703 -16.704   1.567  1.00  0.00     0.025 C 
ENDBRANCH  21  24
ENDBRANCH   4  20
TORSDOF 4
ENDMDL
MODEL 7
REMARK VINA RESULT:      -7.4      2.928      5.737
REMARK  4 active torsions:
REMARK  status: ('A' for Active; 'I' for Inactive)
REMARK    1  A    between atoms: C_2  and  N_3 
REMARK       I    between atoms: N_3  and  C_4 
REMARK       I    between atoms: C_4  and  N_5 
REMARK    2  A    between atoms: N_5  and  C_6 
REMARK    3  A    between atoms: C_14  and  C_15 
REMARK       I    between atoms: C_15  and  N_16 
REMARK    4  A    between atoms: N_16  and  C_17 
ROOT
HETATM    1  C   UNL     1      41.660 -17.388   0.969  1.00  0.00     0.031 A 
HETATM    2  C   UNL     1      40.950 -16.191   1.001  1.00  0.00     0.037 A 
HETATM    3  C   UNL     1      40.695 -15.593   2.242  1.00  0.00     0.048 A 
HETATM    4  C   UNL     1      41.150 -16.166   3.450  1.00  0.00     0.055 A 
HETATM    5  C   UNL     1      41.889 -17.354   3.392  1.00  0.00     0.049 A 
HETATM    6 CL   UNL     1      42.571 -18.152   4.766  1.00  0.00    -0.083 Cl
HETATM    7  C   UNL     1      42.134 -17.960   2.154  1.00  0.00     0.027 A 
ENDROOT
BRANCH   2   8
HETATM    8  N   UNL     1      40.438 -15.554  -0.148  1.00  0.00    -0.309 N 
HETATM    9  C   UNL     1      40.978 -14.489  -0.814  1.00  0.00     0.325 C 
HETATM   10  N   UNL     1      40.404 -14.149  -2.009  1.00  0.00    -0.306 N 
HETATM   11  O   UNL     1      41.908 -13.792  -0.411  1.00  0.00    -0.247 OA
HETATM   12  H   UNL     1      40.755 -13.268  -2.366  1.00  0.00     0.171 HD
HETATM   13  H   UNL     1      39.475 -15.753  -0.377  1.00  0.00     0.170 HD
BRANCH  10  14
HETATM   14  C   UNL     1      39.569 -14.861  -2.845  1.00  0.00     0.072 A 
HETATM   15  C   UNL     1      38.200 -14.753  -3.173  1.00  0.00     0.169 A 
HETATM   16  N   UNL     1      37.805 -15.686  -4.045  1.00  0.00    -0.185 NA
HETATM   17  N   UNL     1      38.911 -16.419  -4.246  1.00  0.00    -0.287 N 
HETATM   18  H   UNL     1      38.854 -17.214  -4.875  1.00  0.00     0.188 HD
HETATM   19  C   UNL     1      39.990 -15.971  -3.541  1.00  0.00     0.140 A 
ENDBRANCH  10  14
ENDBRANCH   2   8
BRANCH   4  20
HETATM   20  C   UNL     1      40.785 -15.420   4.696  1.00  0.00     0.253 C 
HETATM   21  N   UNL     1      40.821 -14.045   4.658  1.00  0.00    -0.352 N 
HETATM   22  H   UNL     1      41.135 -13.589   3.810  1.00  0.00     0.163 HD
HETATM   23  O   UNL     1      40.509 -16.044   5.714  1.00  0.00    -0.268 OA
BRANCH  21  24
HETATM   24  C   UNL     1      40.591 -13.217   5.837  1.00  0.00     0.084 C 
HETATM   25  C   UNL     1      41.604 -12.065   5.905  1.00  0.00     0.025 C 
HETATM   26  C   UNL     1      41.342 -10.992   4.847  1.00  0.00     0.002 C 
HETATM   27  C   UNL     1      39.910 -10.472   4.917  1.00  0.00     0.000 C 
HETATM   28  C   UNL     1      38.892 -11.604   4.817  1.00  0.00     0.002 C 
HETATM   29  C   UNL     1      39.150 -12.692   5.858  1.00  0.00     0.025 C 
ENDBRANCH  21  24
ENDBRANCH   4  20
TORSDOF 4
ENDMDL
MODEL 8
REMARK VINA RESULT:      -7.4      2.917      8.386
REMARK  4 active torsions:
REMARK  status: ('A' for Active; 'I' for Inactive)
REMARK    1  A    between atoms: C_2  and  N_3 
REMARK       I    between atoms: N_3  and  C_4 
REMARK       I    between atoms: C_4  and  N_5 
REMARK    2  A    between atoms: N_5  and  C_6 
REMARK    3  A    between atoms: C_14  and  C_15 
REMARK       I    between atoms: C_15  and  N_16 
REMARK    4  A    between atoms: N_16  and  C_17 
ROOT
HETATM    1  C   UNL     1      41.666 -17.436   5.503  1.00  0.00     0.031 A 
HETATM    2  C   UNL     1      42.236 -17.518   4.235  1.00  0.00     0.037 A 
HETATM    3  C   UNL     1      42.087 -16.436   3.359  1.00  0.00     0.048 A 
HETATM    4  C   UNL     1      41.389 -15.267   3.735  1.00  0.00     0.055 A 
HETATM    5  C   UNL     1      40.850 -15.193   5.026  1.00  0.00     0.049 A 
HETATM    6 CL   UNL     1      40.023 -13.815   5.665  1.00  0.00    -0.083 Cl
HETATM    7  C   UNL     1      40.987 -16.279   5.898  1.00  0.00     0.027 A 
ENDROOT
BRANCH   2   8
HETATM    8  N   UNL     1      42.933 -18.650   3.763  1.00  0.00    -0.309 N 
HETATM    9  C   UNL     1      43.896 -18.683   2.793  1.00  0.00     0.325 C 
HETATM   10  N   UNL     1      44.562 -19.866   2.622  1.00  0.00    -0.306 N 
HETATM   11  O   UNL     1      44.183 -17.754   2.040  1.00  0.00    -0.247 OA
HETATM   12  H   UNL     1      45.146 -19.861   1.794  1.00  0.00     0.171 HD
HETATM   13  H   UNL     1      42.538 -19.547   4.000  1.00  0.00     0.170 HD
BRANCH  10  14
HETATM   14  C   UNL     1      44.678 -20.966   3.447  1.00  0.00     0.072 A 
HETATM   15  C   UNL     1      45.037 -21.129   4.803  1.00  0.00     0.169 A 
HETATM   16  N   UNL     1      45.020 -22.408   5.189  1.00  0.00    -0.185 NA
HETATM   17  N   UNL     1      44.688 -23.071   4.071  1.00  0.00    -0.287 N 
HETATM   18  H   UNL     1      44.625 -24.084   4.112  1.00  0.00     0.188 HD
HETATM   19  C   UNL     1      44.484 -22.252   2.999  1.00  0.00     0.140 A 
ENDBRANCH  10  14
ENDBRANCH   2   8
BRANCH   4  20
HETATM   20  C   UNL     1      41.300 -14.203   2.685  1.00  0.00     0.253 C 
HETATM   21  N   UNL     1      40.107 -14.054   2.016  1.00  0.00    -0.352 N 
HETATM   22  H   UNL     1      39.349 -14.693   2.224  1.00  0.00     0.163 HD
HETATM   23  O   UNL     1      42.292 -13.531   2.421  1.00  0.00    -0.268 OA
BRANCH  21  24
HETATM   24  C   UNL     1      39.936 -13.127   0.903  1.00  0.00     0.084 C 
HETATM   25  C   UNL     1      39.067 -13.748  -0.200  1.00  0.00     0.025 C 
HETATM   26  C   UNL     1      37.597 -13.855   0.204  1.00  0.00     0.002 C 
HETATM   27  C   UNL     1      37.038 -12.509   0.653  1.00  0.00     0.000 C 
HETATM   28  C   UNL     1      37.873 -11.896   1.774  1.00  0.00     0.002 C 
HETATM   29  C   UNL     1      39.349 -11.796   1.391  1.00  0.00     0.025 C 
ENDBRANCH  21  24
ENDBRANCH   4  20
TORSDOF 4
ENDMDL
MODEL 9
REMARK VINA RESULT:      -7.3      3.228      4.107
REMARK  4 active torsions:
REMARK  status: ('A' for Active; 'I' for Inactive)
REMARK    1  A    between atoms: C_2  and  N_3 
REMARK       I    between atoms: N_3  and  C_4 
REMARK       I    between atoms: C_4  and  N_5 
REMARK    2  A    between atoms: N_5  and  C_6 
REMARK    3  A    between atoms: C_14  and  C_15 
REMARK       I    between atoms: C_15  and  N_16 
REMARK    4  A    between atoms: N_16  and  C_17 
ROOT
HETATM    1  C   UNL     1      40.728 -12.279   2.325  1.00  0.00     0.031 A 
HETATM    2  C   UNL     1      40.466 -13.615   2.031  1.00  0.00     0.037 A 
HETATM    3  C   UNL     1      40.596 -14.567   3.050  1.00  0.00     0.048 A 
HETATM    4  C   UNL     1      40.972 -14.203   4.362  1.00  0.00     0.055 A 
HETATM    5  C   UNL     1      41.200 -12.849   4.643  1.00  0.00     0.049 A 
HETATM    6 CL   UNL     1      41.605 -12.228   6.206  1.00  0.00    -0.083 Cl
HETATM    7  C   UNL     1      41.083 -11.899   3.623  1.00  0.00     0.027 A 
ENDROOT
BRANCH   2   8
HETATM    8  N   UNL     1      40.106 -14.077   0.748  1.00  0.00    -0.309 N 
HETATM    9  C   UNL     1      38.857 -14.082   0.191  1.00  0.00     0.325 C 
HETATM   10  N   UNL     1      38.771 -14.413  -1.134  1.00  0.00    -0.306 N 
HETATM   11  O   UNL     1      37.807 -13.853   0.790  1.00  0.00    -0.247 OA
HETATM   12  H   UNL     1      37.812 -14.544  -1.435  1.00  0.00     0.171 HD
HETATM   13  H   UNL     1      40.783 -14.658   0.277  1.00  0.00     0.170 HD
BRANCH  10  14
HETATM   14  C   UNL     1      39.734 -14.447  -2.121  1.00  0.00     0.072 A 
HETATM   15  C   UNL     1      40.604 -15.453  -2.596  1.00  0.00     0.169 A 
HETATM   16  N   UNL     1      41.392 -15.025  -3.587  1.00  0.00    -0.185 NA
HETATM   17  N   UNL     1      41.057 -13.733  -3.722  1.00  0.00    -0.287 N 
HETATM   18  H   UNL     1      41.543 -13.180  -4.421  1.00  0.00     0.188 HD
HETATM   19  C   UNL     1      40.077 -13.337  -2.859  1.00  0.00     0.140 A 
ENDBRANCH  10  14
ENDBRANCH   2   8
BRANCH   4  20
HETATM   20  C   UNL     1      41.085 -15.333   5.337  1.00  0.00     0.253 C 
HETATM   21  N   UNL     1      42.086 -16.256   5.142  1.00  0.00    -0.352 N 
HETATM   22  H   UNL     1      42.679 -16.166   4.326  1.00  0.00     0.163 HD
HETATM   23  O   UNL     1      40.268 -15.429   6.247  1.00  0.00    -0.268 OA
BRANCH  21  24
HETATM   24  C   UNL     1      42.226 -17.454   5.962  1.00  0.00     0.084 C 
HETATM   25  C   UNL     1      42.778 -18.624   5.135  1.00  0.00     0.025 C 
HETATM   26  C   UNL     1      44.254 -18.446   4.782  1.00  0.00     0.002 C 
HETATM   27  C   UNL     1      45.104 -18.200   6.024  1.00  0.00     0.000 C 
HETATM   28  C   UNL     1      44.586 -17.017   6.837  1.00  0.00     0.002 C 
HETATM   29  C   UNL     1      43.107 -17.174   7.186  1.00  0.00     0.025 C 
ENDBRANCH  21  24
ENDBRANCH   4  20
TORSDOF 4
ENDMDL
MODEL 10
REMARK VINA RESULT:      -7.2      3.741      8.955
REMARK  4 active torsions:
REMARK  status: ('A' for Active; 'I' for Inactive)
REMARK    1  A    between atoms: C_2  and  N_3 
REMARK       I    between atoms: N_3  and  C_4 
REMARK       I    between atoms: C_4  and  N_5 
REMARK    2  A    between atoms: N_5  and  C_6 
REMARK    3  A    between atoms: C_14  and  C_15 
REMARK       I    between atoms: C_15  and  N_16 
REMARK    4  A    between atoms: N_16  and  C_17 
ROOT
HETATM    1  C   UNL     1      41.796 -17.972   1.629  1.00  0.00     0.031 A 
HETATM    2  C   UNL     1      42.379 -17.542   2.818  1.00  0.00     0.037 A 
HETATM    3  C   UNL     1      42.454 -16.167   3.072  1.00  0.00     0.048 A 
HETATM    4  C   UNL     1      41.945 -15.214   2.162  1.00  0.00     0.055 A 
HETATM    5  C   UNL     1      41.334 -15.670   0.986  1.00  0.00     0.049 A 
HETATM    6 CL   UNL     1      40.606 -14.645  -0.201  1.00  0.00    -0.083 Cl
HETATM    7  C   UNL     1      41.269 -17.044   0.725  1.00  0.00     0.027 A 
ENDROOT
BRANCH   2   8
HETATM    8  N   UNL     1      42.933 -18.415   3.778  1.00  0.00    -0.309 N 
HETATM    9  C   UNL     1      43.997 -19.257   3.613  1.00  0.00     0.325 C 
HETATM   10  N   UNL     1      44.472 -19.882   4.734  1.00  0.00    -0.306 N 
HETATM   11  O   UNL     1      44.533 -19.529   2.540  1.00  0.00    -0.247 OA
HETATM   12  H   UNL     1      45.154 -20.599   4.514  1.00  0.00     0.171 HD
HETATM   13  H   UNL     1      42.365 -18.602   4.590  1.00  0.00     0.170 HD
BRANCH  10  14
HETATM   14  C   UNL     1      44.291 -19.597   6.072  1.00  0.00     0.072 A 
HETATM   15  C   UNL     1      44.647 -18.501   6.888  1.00  0.00     0.169 A 
HETATM   16  N   UNL     1      44.266 -18.662   8.159  1.00  0.00    -0.185 NA
HETATM   17  N   UNL     1      43.701 -19.879   8.168  1.00  0.00    -0.287 N 
HETATM   18  H   UNL     1      43.339 -20.236   9.047  1.00  0.00     0.188 HD
HETATM   19  C   UNL     1      43.702 -20.483   6.944  1.00  0.00     0.140 A 
ENDBRANCH  10  14
ENDBRANCH   2   8
BRANCH   4  20
HETATM   20  C   UNL     1      42.114 -13.782   2.564  1.00  0.00     0.253 C 
HETATM   21  N   UNL     1      40.980 -13.037   2.792  1.00  0.00    -0.352 N 
HETATM   22  H   UNL     1      40.076 -13.467   2.638  1.00  0.00     0.163 HD
HETATM   23  O   UNL     1      43.242 -13.306   2.637  1.00  0.00    -0.268 OA
BRANCH  21  24
HETATM   24  C   UNL     1      41.020 -11.609   3.084  1.00  0.00     0.084 C 
HETATM   25  C   UNL     1      40.022 -10.842   2.205  1.00  0.00     0.025 C 
HETATM   26  C   UNL     1      38.570 -11.093   2.612  1.00  0.00     0.002 C 
HETATM   27  C   UNL     1      38.341 -10.798   4.090  1.00  0.00     0.000 C 
HETATM   28  C   UNL     1      39.305 -11.581   4.978  1.00  0.00     0.002 C 
HETATM   29  C   UNL     1      40.761 -11.352   4.574  1.00  0.00     0.025 C 
ENDBRANCH  21  24
ENDBRANCH   4  20
TORSDOF 4
ENDMDL
