MODEL 1
REMARK VINA RESULT:      -8.4      0.000      0.000
REMARK  8 active torsions:
REMARK  status: ('A' for Active; 'I' for Inactive)
REMARK    1  A    between atoms: C_5  and  C_6 
REMARK    2  A    between atoms: N_7  and  N_8 
REMARK       I    between atoms: N_8  and  C_9 
REMARK    3  A    between atoms: C_9  and  C_10 
REMARK    4  A    between atoms: N_13  and  C_14 
REMARK    5  A    between atoms: C_18  and  N_19 
REMARK    6  A    between atoms: C_20  and  C_21 
REMARK    7  A    between atoms: C_21  and  N_22 
REMARK    8  A    between atoms: C_30  and  O_31 
ROOT
HETATM    1  C   UNL     1      41.625 -16.803   3.852  1.00  0.00     0.170 A 
HETATM    2  N   UNL     1      40.830 -16.322   4.851  1.00  0.00    -0.152 NA
HETATM    3  N   UNL     1      41.334 -16.721   6.006  1.00  0.00     0.012 NA
HETATM    4  N   UNL     1      42.430 -17.492   5.776  1.00  0.00    -0.215 N 
HETATM    5  C   UNL     1      42.684 -17.509   4.407  1.00  0.00     0.096 A 
ENDROOT
BRANCH   1   6
HETATM    6  C   UNL     1      41.363 -16.584   2.437  1.00  0.00     0.293 C 
HETATM    7  N   UNL     1      42.131 -15.586   1.866  1.00  0.00    -0.242 N 
HETATM    8  H   UNL     1      42.808 -15.074   2.428  1.00  0.00     0.192 HD
HETATM    9  O   UNL     1      40.510 -17.250   1.855  1.00  0.00    -0.264 OA
BRANCH   7  10
HETATM   10  N   UNL     1      42.003 -15.325   0.536  1.00  0.00    -0.183 NA
HETATM   11  C   UNL     1      41.640 -14.121   0.222  1.00  0.00     0.153 C 
BRANCH  11  12
HETATM   12  C   UNL     1      41.488 -13.726  -1.195  1.00  0.00     0.017 A 
HETATM   13  C   UNL     1      41.952 -12.462  -1.577  1.00  0.00     0.034 A 
HETATM   14  C   UNL     1      41.828 -12.062  -2.909  1.00  0.00     0.012 A 
HETATM   15  C   UNL     1      41.252 -12.907  -3.858  1.00  0.00     0.022 A 
HETATM   16 BR   UNL     1      42.453 -10.356  -3.431  1.00  0.00    -0.051 Br
HETATM   17  C   UNL     1      40.790 -14.166  -3.474  1.00  0.00     0.039 A 
HETATM   18  C   UNL     1      40.906 -14.573  -2.147  1.00  0.00     0.077 A 
BRANCH  18  19
HETATM   19  O   UNL     1      40.430 -15.821  -1.851  1.00  0.00    -0.360 OA
HETATM   20  H   UNL     1      40.086 -16.221  -2.680  1.00  0.00     0.217 HD
ENDBRANCH  18  19
ENDBRANCH  11  12
ENDBRANCH   7  10
ENDBRANCH   1   6
BRANCH   5  21
HETATM   21  C   UNL     1      43.879 -18.098   3.758  1.00  0.00     0.296 C 
BRANCH  21  22
HETATM   22  N   UNL     1      43.769 -19.566   3.422  1.00  0.00    -0.066 N 
HETATM   23  H   UNL     1      42.953 -19.919   3.945  1.00  0.00     0.280 HD
HETATM   24  C   UNL     1      43.558 -19.837   1.949  1.00  0.00     0.235 C 
HETATM   25  C   UNL     1      43.320 -21.328   1.744  1.00  0.00     0.028 C 
HETATM   26  C   UNL     1      44.465 -22.165   2.298  1.00  0.00     0.003 C 
HETATM   27  C   UNL     1      44.746 -21.819   3.757  1.00  0.00     0.028 C 
HETATM   28  C   UNL     1      44.969 -20.326   3.949  1.00  0.00     0.235 C 
ENDBRANCH  21  22
ENDBRANCH   5  21
BRANCH   4  29
HETATM   29  C   UNL     1      43.106 -18.185   6.809  1.00  0.00     0.225 A 
HETATM   30  N   UNL     1      43.322 -19.501   6.699  1.00  0.00    -0.081 NA
HETATM   31  O   UNL     1      43.980 -19.827   7.890  1.00  0.00    -0.103 OA
HETATM   32  N   UNL     1      44.114 -18.716   8.708  1.00  0.00    -0.083 NA
HETATM   33  C   UNL     1      43.572 -17.698   8.042  1.00  0.00     0.201 A 
BRANCH  33  34
HETATM   34  N   UNL     1      43.500 -16.440   8.499  1.00  0.00    -0.379 N 
HETATM   35  H   UNL     1      42.715 -16.147   9.076  1.00  0.00     0.158 HD
HETATM   36  H   UNL     1      44.109 -15.684   8.193  1.00  0.00     0.158 HD
ENDBRANCH  33  34
ENDBRANCH   4  29
TORSDOF 8
ENDMDL
MODEL 2
REMARK VINA RESULT:      -7.9      4.279      9.713
REMARK  8 active torsions:
REMARK  status: ('A' for Active; 'I' for Inactive)
REMARK    1  A    between atoms: C_5  and  C_6 
REMARK    2  A    between atoms: N_7  and  N_8 
REMARK       I    between atoms: N_8  and  C_9 
REMARK    3  A    between atoms: C_9  and  C_10 
REMARK    4  A    between atoms: N_13  and  C_14 
REMARK    5  A    between atoms: C_18  and  N_19 
REMARK    6  A    between atoms: C_20  and  C_21 
REMARK    7  A    between atoms: C_21  and  N_22 
REMARK    8  A    between atoms: C_30  and  O_31 
ROOT
HETATM    1  C   UNL     1      40.579 -14.933  -1.885  1.00  0.00     0.170 A 
HETATM    2  N   UNL     1      40.991 -15.149  -3.167  1.00  0.00    -0.152 NA
HETATM    3  N   UNL     1      40.000 -14.821  -3.979  1.00  0.00     0.012 NA
HETATM    4  N   UNL     1      38.927 -14.429  -3.241  1.00  0.00    -0.215 N 
HETATM    5  C   UNL     1      39.287 -14.425  -1.896  1.00  0.00     0.096 A 
ENDROOT
BRANCH   1   6
HETATM    6  C   UNL     1      41.402 -15.209  -0.716  1.00  0.00     0.293 C 
HETATM    7  N   UNL     1      41.441 -16.543  -0.353  1.00  0.00    -0.242 N 
HETATM    8  H   UNL     1      40.919 -17.235  -0.886  1.00  0.00     0.192 HD
HETATM    9  O   UNL     1      41.979 -14.294  -0.134  1.00  0.00    -0.264 OA
BRANCH   7  10
HETATM   10  N   UNL     1      42.215 -16.924   0.700  1.00  0.00    -0.183 NA
HETATM   11  C   UNL     1      41.598 -17.492   1.688  1.00  0.00     0.153 C 
BRANCH  11  12
HETATM   12  C   UNL     1      42.346 -17.962   2.873  1.00  0.00     0.017 A 
HETATM   13  C   UNL     1      42.029 -17.401   4.115  1.00  0.00     0.034 A 
HETATM   14  C   UNL     1      42.713 -17.829   5.254  1.00  0.00     0.012 A 
HETATM   15  C   UNL     1      43.704 -18.807   5.167  1.00  0.00     0.022 A 
HETATM   16 BR   UNL     1      42.290 -17.073   6.935  1.00  0.00    -0.051 Br
HETATM   17  C   UNL     1      44.018 -19.365   3.928  1.00  0.00     0.039 A 
HETATM   18  C   UNL     1      43.343 -18.943   2.785  1.00  0.00     0.077 A 
BRANCH  18  19
HETATM   19  O   UNL     1      43.708 -19.539   1.609  1.00  0.00    -0.360 OA
HETATM   20  H   UNL     1      44.376 -18.967   1.172  1.00  0.00     0.217 HD
ENDBRANCH  18  19
ENDBRANCH  11  12
ENDBRANCH   7  10
ENDBRANCH   1   6
BRANCH   5  21
HETATM   21  C   UNL     1      38.459 -13.905  -0.783  1.00  0.00     0.296 C 
BRANCH  21  22
HETATM   22  N   UNL     1      39.195 -13.687   0.518  1.00  0.00    -0.066 N 
HETATM   23  H   UNL     1      40.183 -13.917   0.329  1.00  0.00     0.280 HD
HETATM   24  C   UNL     1      39.115 -12.266   1.029  1.00  0.00     0.235 C 
HETATM   25  C   UNL     1      40.004 -12.126   2.259  1.00  0.00     0.028 C 
HETATM   26  C   UNL     1      39.626 -13.124   3.346  1.00  0.00     0.003 C 
HETATM   27  C   UNL     1      39.607 -14.549   2.805  1.00  0.00     0.028 C 
HETATM   28  C   UNL     1      38.727 -14.671   1.569  1.00  0.00     0.235 C 
ENDBRANCH  21  22
ENDBRANCH   5  21
BRANCH   4  29
HETATM   29  C   UNL     1      37.664 -14.154  -3.819  1.00  0.00     0.225 A 
HETATM   30  N   UNL     1      36.948 -15.145  -4.362  1.00  0.00    -0.081 NA
HETATM   31  O   UNL     1      35.800 -14.501  -4.835  1.00  0.00    -0.103 OA
HETATM   32  N   UNL     1      35.861 -13.135  -4.605  1.00  0.00    -0.083 NA
HETATM   33  C   UNL     1      37.015 -12.917  -3.977  1.00  0.00     0.201 A 
BRANCH  33  34
HETATM   34  N   UNL     1      37.451 -11.714  -3.579  1.00  0.00    -0.379 N 
HETATM   35  H   UNL     1      37.534 -11.499  -2.588  1.00  0.00     0.158 HD
HETATM   36  H   UNL     1      37.577 -10.917  -4.200  1.00  0.00     0.158 HD
ENDBRANCH  33  34
ENDBRANCH   4  29
TORSDOF 8
ENDMDL
MODEL 3
REMARK VINA RESULT:      -7.8      3.842      9.436
REMARK  8 active torsions:
REMARK  status: ('A' for Active; 'I' for Inactive)
REMARK    1  A    between atoms: C_5  and  C_6 
REMARK    2  A    between atoms: N_7  and  N_8 
REMARK       I    between atoms: N_8  and  C_9 
REMARK    3  A    between atoms: C_9  and  C_10 
REMARK    4  A    between atoms: N_13  and  C_14 
REMARK    5  A    between atoms: C_18  and  N_19 
REMARK    6  A    between atoms: C_20  and  C_21 
REMARK    7  A    between atoms: C_21  and  N_22 
REMARK    8  A    between atoms: C_30  and  O_31 
ROOT
HETATM    1  C   UNL     1      39.567 -14.730   1.113  1.00  0.00     0.170 A 
HETATM    2  N   UNL     1      38.327 -14.327   1.512  1.00  0.00    -0.152 NA
HETATM    3  N   UNL     1      37.680 -13.876   0.451  1.00  0.00     0.012 NA
HETATM    4  N   UNL     1      38.496 -13.941  -0.634  1.00  0.00    -0.215 N 
HETATM    5  C   UNL     1      39.692 -14.547  -0.257  1.00  0.00     0.096 A 
ENDROOT
BRANCH   1   6
HETATM    6  C   UNL     1      40.573 -15.262   2.022  1.00  0.00     0.293 C 
HETATM    7  N   UNL     1      40.410 -16.601   2.327  1.00  0.00    -0.242 N 
HETATM    8  H   UNL     1      39.635 -17.127   1.929  1.00  0.00     0.192 HD
HETATM    9  O   UNL     1      41.461 -14.533   2.459  1.00  0.00    -0.264 OA
BRANCH   7  10
HETATM   10  N   UNL     1      41.318 -17.216   3.133  1.00  0.00    -0.183 NA
HETATM   11  C   UNL     1      42.161 -18.006   2.546  1.00  0.00     0.153 C 
BRANCH  11  12
HETATM   12  C   UNL     1      43.202 -18.710   3.325  1.00  0.00     0.017 A 
HETATM   13  C   UNL     1      43.554 -18.187   4.574  1.00  0.00     0.034 A 
HETATM   14  C   UNL     1      44.529 -18.833   5.336  1.00  0.00     0.012 A 
HETATM   15  C   UNL     1      45.151 -19.991   4.867  1.00  0.00     0.022 A 
HETATM   16 BR   UNL     1      45.009 -18.131   7.024  1.00  0.00    -0.051 Br
HETATM   17  C   UNL     1      44.799 -20.510   3.621  1.00  0.00     0.039 A 
HETATM   18  C   UNL     1      43.829 -19.871   2.852  1.00  0.00     0.077 A 
BRANCH  18  19
HETATM   19  O   UNL     1      43.539 -20.442   1.643  1.00  0.00    -0.360 OA
HETATM   20  H   UNL     1      43.562 -21.418   1.753  1.00  0.00     0.217 HD
ENDBRANCH  18  19
ENDBRANCH  11  12
ENDBRANCH   7  10
ENDBRANCH   1   6
BRANCH   5  21
HETATM   21  C   UNL     1      40.781 -14.953  -1.176  1.00  0.00     0.296 C 
BRANCH  21  22
HETATM   22  N   UNL     1      41.714 -13.842  -1.598  1.00  0.00    -0.066 N 
HETATM   23  H   UNL     1      42.668 -14.225  -1.517  1.00  0.00     0.280 HD
HETATM   24  C   UNL     1      41.495 -13.372  -3.018  1.00  0.00     0.235 C 
HETATM   25  C   UNL     1      42.574 -12.359  -3.382  1.00  0.00     0.028 C 
HETATM   26  C   UNL     1      42.597 -11.185  -2.412  1.00  0.00     0.003 C 
HETATM   27  C   UNL     1      42.715 -11.663  -0.969  1.00  0.00     0.028 C 
HETATM   28  C   UNL     1      41.640 -12.684  -0.624  1.00  0.00     0.235 C 
ENDBRANCH  21  22
ENDBRANCH   5  21
BRANCH   4  29
HETATM   29  C   UNL     1      38.139 -13.396  -1.891  1.00  0.00     0.225 A 
HETATM   30  N   UNL     1      38.216 -12.076  -2.092  1.00  0.00    -0.081 NA
HETATM   31  O   UNL     1      37.776 -11.918  -3.411  1.00  0.00    -0.103 OA
HETATM   32  N   UNL     1      37.408 -13.134  -3.965  1.00  0.00    -0.083 NA
HETATM   33  C   UNL     1      37.630 -14.051  -3.026  1.00  0.00     0.201 A 
BRANCH  33  34
HETATM   34  N   UNL     1      37.397 -15.363  -3.171  1.00  0.00    -0.379 N 
HETATM   35  H   UNL     1      38.166 -16.028  -3.141  1.00  0.00     0.158 HD
HETATM   36  H   UNL     1      36.504 -15.757  -3.460  1.00  0.00     0.158 HD
ENDBRANCH  33  34
ENDBRANCH   4  29
TORSDOF 8
ENDMDL
MODEL 4
REMARK VINA RESULT:      -7.7      5.505      8.932
REMARK  8 active torsions:
REMARK  status: ('A' for Active; 'I' for Inactive)
REMARK    1  A    between atoms: C_5  and  C_6 
REMARK    2  A    between atoms: N_7  and  N_8 
REMARK       I    between atoms: N_8  and  C_9 
REMARK    3  A    between atoms: C_9  and  C_10 
REMARK    4  A    between atoms: N_13  and  C_14 
REMARK    5  A    between atoms: C_18  and  N_19 
REMARK    6  A    between atoms: C_20  and  C_21 
REMARK    7  A    between atoms: C_21  and  N_22 
REMARK    8  A    between atoms: C_30  and  O_31 
ROOT
HETATM    1  C   UNL     1      41.567 -13.727   4.414  1.00  0.00     0.170 A 
HETATM    2  N   UNL     1      40.309 -13.283   4.127  1.00  0.00    -0.152 NA
HETATM    3  N   UNL     1      40.070 -13.524   2.849  1.00  0.00     0.012 NA
HETATM    4  N   UNL     1      41.173 -14.084   2.284  1.00  0.00    -0.215 N 
HETATM    5  C   UNL     1      42.127 -14.290   3.276  1.00  0.00     0.096 A 
ENDROOT
BRANCH   1   6
HETATM    6  C   UNL     1      42.184 -13.604   5.727  1.00  0.00     0.293 C 
HETATM    7  N   UNL     1      42.104 -12.337   6.275  1.00  0.00    -0.242 N 
HETATM    8  H   UNL     1      41.645 -11.585   5.765  1.00  0.00     0.192 HD
HETATM    9  O   UNL     1      42.728 -14.574   6.249  1.00  0.00    -0.264 OA
BRANCH   7  10
HETATM   10  N   UNL     1      42.609 -12.116   7.519  1.00  0.00    -0.183 NA
HETATM   11  C   UNL     1      42.298 -10.985   8.071  1.00  0.00     0.153 C 
BRANCH  11  12
HETATM   12  C   UNL     1      42.778 -10.651   9.429  1.00  0.00     0.017 A 
HETATM   13  C   UNL     1      41.842 -10.190  10.361  1.00  0.00     0.034 A 
HETATM   14  C   UNL     1      42.263  -9.873  11.654  1.00  0.00     0.012 A 
HETATM   15  C   UNL     1      43.601 -10.013  12.024  1.00  0.00     0.022 A 
HETATM   16 BR   UNL     1      41.003  -9.248  12.917  1.00  0.00    -0.051 Br
HETATM   17  C   UNL     1      44.532 -10.473  11.092  1.00  0.00     0.039 A 
HETATM   18  C   UNL     1      44.122 -10.790   9.799  1.00  0.00     0.077 A 
BRANCH  18  19
HETATM   19  O   UNL     1      45.095 -11.234   8.946  1.00  0.00    -0.360 OA
HETATM   20  H   UNL     1      45.911 -10.716   9.117  1.00  0.00     0.217 HD
ENDBRANCH  18  19
ENDBRANCH  11  12
ENDBRANCH   7  10
ENDBRANCH   1   6
BRANCH   5  21
HETATM   21  C   UNL     1      43.402 -15.026   3.108  1.00  0.00     0.296 C 
BRANCH  21  22
HETATM   22  N   UNL     1      43.263 -16.517   2.912  1.00  0.00    -0.066 N 
HETATM   23  H   UNL     1      42.262 -16.689   2.731  1.00  0.00     0.280 HD
HETATM   24  C   UNL     1      44.068 -17.055   1.751  1.00  0.00     0.235 C 
HETATM   25  C   UNL     1      43.744 -18.531   1.559  1.00  0.00     0.028 C 
HETATM   26  C   UNL     1      44.001 -19.336   2.826  1.00  0.00     0.003 C 
HETATM   27  C   UNL     1      43.270 -18.734   4.020  1.00  0.00     0.028 C 
HETATM   28  C   UNL     1      43.592 -17.257   4.193  1.00  0.00     0.235 C 
ENDBRANCH  21  22
ENDBRANCH   5  21
BRANCH   4  29
HETATM   29  C   UNL     1      41.278 -14.324   0.892  1.00  0.00     0.225 A 
HETATM   30  N   UNL     1      41.646 -13.335   0.070  1.00  0.00    -0.081 NA
HETATM   31  O   UNL     1      41.619 -13.932  -1.195  1.00  0.00    -0.103 OA
HETATM   32  N   UNL     1      41.201 -15.251  -1.118  1.00  0.00    -0.083 NA
HETATM   33  C   UNL     1      40.988 -15.497   0.174  1.00  0.00     0.201 A 
BRANCH  33  34
HETATM   34  N   UNL     1      40.569 -16.670   0.668  1.00  0.00    -0.379 N 
HETATM   35  H   UNL     1      40.136 -16.716   1.587  1.00  0.00     0.158 HD
HETATM   36  H   UNL     1      40.780 -17.575   0.252  1.00  0.00     0.158 HD
ENDBRANCH  33  34
ENDBRANCH   4  29
TORSDOF 8
ENDMDL
MODEL 5
REMARK VINA RESULT:      -7.7      4.287     10.170
REMARK  8 active torsions:
REMARK  status: ('A' for Active; 'I' for Inactive)
REMARK    1  A    between atoms: C_5  and  C_6 
REMARK    2  A    between atoms: N_7  and  N_8 
REMARK       I    between atoms: N_8  and  C_9 
REMARK    3  A    between atoms: C_9  and  C_10 
REMARK    4  A    between atoms: N_13  and  C_14 
REMARK    5  A    between atoms: C_18  and  N_19 
REMARK    6  A    between atoms: C_20  and  C_21 
REMARK    7  A    between atoms: C_21  and  N_22 
REMARK    8  A    between atoms: C_30  and  O_31 
ROOT
HETATM    1  C   UNL     1      41.022 -14.841  -1.522  1.00  0.00     0.170 A 
HETATM    2  N   UNL     1      41.033 -15.481  -2.726  1.00  0.00    -0.152 NA
HETATM    3  N   UNL     1      40.920 -14.570  -3.678  1.00  0.00     0.012 NA
HETATM    4  N   UNL     1      40.795 -13.341  -3.110  1.00  0.00    -0.215 N 
HETATM    5  C   UNL     1      40.924 -13.472  -1.729  1.00  0.00     0.096 A 
ENDROOT
BRANCH   1   6
HETATM    6  C   UNL     1      41.102 -15.531  -0.242  1.00  0.00     0.293 C 
HETATM    7  N   UNL     1      42.130 -16.452  -0.158  1.00  0.00    -0.242 N 
HETATM    8  H   UNL     1      42.750 -16.603  -0.950  1.00  0.00     0.192 HD
HETATM    9  O   UNL     1      40.290 -15.284   0.646  1.00  0.00    -0.264 OA
BRANCH   7  10
HETATM   10  N   UNL     1      42.328 -17.125   1.009  1.00  0.00    -0.183 NA
HETATM   11  C   UNL     1      43.475 -17.712   1.144  1.00  0.00     0.153 C 
BRANCH  11  12
HETATM   12  C   UNL     1      43.801 -18.455   2.380  1.00  0.00     0.017 A 
HETATM   13  C   UNL     1      44.031 -19.831   2.277  1.00  0.00     0.034 A 
HETATM   14  C   UNL     1      44.347 -20.559   3.426  1.00  0.00     0.012 A 
HETATM   15  C   UNL     1      44.439 -19.930   4.668  1.00  0.00     0.022 A 
HETATM   16 BR   UNL     1      44.658 -22.419   3.294  1.00  0.00    -0.051 Br
HETATM   17  C   UNL     1      44.209 -18.557   4.767  1.00  0.00     0.039 A 
HETATM   18  C   UNL     1      43.891 -17.823   3.627  1.00  0.00     0.077 A 
BRANCH  18  19
HETATM   19  O   UNL     1      43.681 -16.483   3.808  1.00  0.00    -0.360 OA
HETATM   20  H   UNL     1      44.130 -16.003   3.078  1.00  0.00     0.217 HD
ENDBRANCH  18  19
ENDBRANCH  11  12
ENDBRANCH   7  10
ENDBRANCH   1   6
BRANCH   5  21
HETATM   21  C   UNL     1      41.012 -12.354  -0.761  1.00  0.00     0.296 C 
BRANCH  21  22
HETATM   22  N   UNL     1      39.951 -12.351   0.315  1.00  0.00    -0.066 N 
HETATM   23  H   UNL     1      39.997 -13.279   0.763  1.00  0.00     0.280 HD
HETATM   24  C   UNL     1      40.160 -11.289   1.370  1.00  0.00     0.235 C 
HETATM   25  C   UNL     1      39.123 -11.468   2.472  1.00  0.00     0.028 C 
HETATM   26  C   UNL     1      37.702 -11.426   1.923  1.00  0.00     0.003 C 
HETATM   27  C   UNL     1      37.519 -12.428   0.788  1.00  0.00     0.028 C 
HETATM   28  C   UNL     1      38.570 -12.247  -0.298  1.00  0.00     0.235 C 
ENDBRANCH  21  22
ENDBRANCH   5  21
BRANCH   4  29
HETATM   29  C   UNL     1      40.512 -12.177  -3.864  1.00  0.00     0.225 A 
HETATM   30  N   UNL     1      39.251 -11.745  -3.977  1.00  0.00    -0.081 NA
HETATM   31  O   UNL     1      39.362 -10.612  -4.791  1.00  0.00    -0.103 OA
HETATM   32  N   UNL     1      40.676 -10.406  -5.183  1.00  0.00    -0.083 NA
HETATM   33  C   UNL     1      41.390 -11.374  -4.612  1.00  0.00     0.201 A 
BRANCH  33  34
HETATM   34  N   UNL     1      42.714 -11.526  -4.749  1.00  0.00    -0.379 N 
HETATM   35  H   UNL     1      43.174 -11.272  -5.620  1.00  0.00     0.158 HD
HETATM   36  H   UNL     1      43.305 -12.025  -4.087  1.00  0.00     0.158 HD
ENDBRANCH  33  34
ENDBRANCH   4  29
TORSDOF 8
ENDMDL
MODEL 6
REMARK VINA RESULT:      -7.7      3.972      9.603
REMARK  8 active torsions:
REMARK  status: ('A' for Active; 'I' for Inactive)
REMARK    1  A    between atoms: C_5  and  C_6 
REMARK    2  A    between atoms: N_7  and  N_8 
REMARK       I    between atoms: N_8  and  C_9 
REMARK    3  A    between atoms: C_9  and  C_10 
REMARK    4  A    between atoms: N_13  and  C_14 
REMARK    5  A    between atoms: C_18  and  N_19 
REMARK    6  A    between atoms: C_20  and  C_21 
REMARK    7  A    between atoms: C_21  and  N_22 
REMARK    8  A    between atoms: C_30  and  O_31 
ROOT
HETATM    1  C   UNL     1      41.205 -15.459  -1.065  1.00  0.00     0.170 A 
HETATM    2  N   UNL     1      40.978 -16.141  -2.224  1.00  0.00    -0.152 NA
HETATM    3  N   UNL     1      40.723 -15.260  -3.177  1.00  0.00     0.012 NA
HETATM    4  N   UNL     1      40.739 -14.008  -2.646  1.00  0.00    -0.215 N 
HETATM    5  C   UNL     1      41.112 -14.095  -1.307  1.00  0.00     0.096 A 
ENDROOT
BRANCH   1   6
HETATM    6  C   UNL     1      41.494 -16.105   0.207  1.00  0.00     0.293 C 
HETATM    7  N   UNL     1      42.776 -16.617   0.304  1.00  0.00    -0.242 N 
HETATM    8  H   UNL     1      43.424 -16.528  -0.475  1.00  0.00     0.192 HD
HETATM    9  O   UNL     1      40.631 -16.173   1.078  1.00  0.00    -0.264 OA
BRANCH   7  10
HETATM   10  N   UNL     1      43.172 -17.205   1.466  1.00  0.00    -0.183 NA
HETATM   11  C   UNL     1      43.477 -18.463   1.397  1.00  0.00     0.153 C 
BRANCH  11  12
HETATM   12  C   UNL     1      43.937 -19.194   2.596  1.00  0.00     0.017 A 
HETATM   13  C   UNL     1      44.143 -18.464   3.772  1.00  0.00     0.034 A 
HETATM   14  C   UNL     1      44.571 -19.127   4.923  1.00  0.00     0.012 A 
HETATM   15  C   UNL     1      44.793 -20.505   4.913  1.00  0.00     0.022 A 
HETATM   16 BR   UNL     1      44.851 -18.146   6.515  1.00  0.00    -0.051 Br
HETATM   17  C   UNL     1      44.588 -21.230   3.739  1.00  0.00     0.039 A 
HETATM   18  C   UNL     1      44.163 -20.577   2.585  1.00  0.00     0.077 A 
BRANCH  18  19
HETATM   19  O   UNL     1      43.984 -21.359   1.476  1.00  0.00    -0.360 OA
HETATM   20  H   UNL     1      43.378 -22.093   1.715  1.00  0.00     0.217 HD
ENDBRANCH  18  19
ENDBRANCH  11  12
ENDBRANCH   7  10
ENDBRANCH   1   6
BRANCH   5  21
HETATM   21  C   UNL     1      41.407 -12.948  -0.417  1.00  0.00     0.296 C 
BRANCH  21  22
HETATM   22  N   UNL     1      40.970 -13.120   1.018  1.00  0.00    -0.066 N 
HETATM   23  H   UNL     1      40.617 -14.087   1.096  1.00  0.00     0.280 HD
HETATM   24  C   UNL     1      42.087 -12.928   2.020  1.00  0.00     0.235 C 
HETATM   25  C   UNL     1      41.572 -13.263   3.414  1.00  0.00     0.028 C 
HETATM   26  C   UNL     1      40.353 -12.427   3.783  1.00  0.00     0.003 C 
HETATM   27  C   UNL     1      39.265 -12.540   2.721  1.00  0.00     0.028 C 
HETATM   28  C   UNL     1      39.796 -12.216   1.332  1.00  0.00     0.235 C 
ENDBRANCH  21  22
ENDBRANCH   5  21
BRANCH   4  29
HETATM   29  C   UNL     1      40.359 -12.861  -3.385  1.00  0.00     0.225 A 
HETATM   30  N   UNL     1      39.065 -12.541  -3.502  1.00  0.00    -0.081 NA
HETATM   31  O   UNL     1      39.082 -11.390  -4.297  1.00  0.00    -0.103 OA
HETATM   32  N   UNL     1      40.374 -11.061  -4.675  1.00  0.00    -0.083 NA
HETATM   33  C   UNL     1      41.167 -11.971  -4.112  1.00  0.00     0.201 A 
BRANCH  33  34
HETATM   34  N   UNL     1      42.501 -12.003  -4.240  1.00  0.00    -0.379 N 
HETATM   35  H   UNL     1      43.067 -12.539  -3.587  1.00  0.00     0.158 HD
HETATM   36  H   UNL     1      43.031 -11.403  -4.869  1.00  0.00     0.158 HD
ENDBRANCH  33  34
ENDBRANCH   4  29
TORSDOF 8
ENDMDL
MODEL 7
REMARK VINA RESULT:      -7.7      4.386      8.038
REMARK  8 active torsions:
REMARK  status: ('A' for Active; 'I' for Inactive)
REMARK    1  A    between atoms: C_5  and  C_6 
REMARK    2  A    between atoms: N_7  and  N_8 
REMARK       I    between atoms: N_8  and  C_9 
REMARK    3  A    between atoms: C_9  and  C_10 
REMARK    4  A    between atoms: N_13  and  C_14 
REMARK    5  A    between atoms: C_18  and  N_19 
REMARK    6  A    between atoms: C_20  and  C_21 
REMARK    7  A    between atoms: C_21  and  N_22 
REMARK    8  A    between atoms: C_30  and  O_31 
ROOT
HETATM    1  C   UNL     1      44.266 -17.774   6.086  1.00  0.00     0.170 A 
HETATM    2  N   UNL     1      45.517 -18.299   6.224  1.00  0.00    -0.152 NA
HETATM    3  N   UNL     1      45.693 -19.198   5.271  1.00  0.00     0.012 NA
HETATM    4  N   UNL     1      44.556 -19.300   4.534  1.00  0.00    -0.215 N 
HETATM    5  C   UNL     1      43.643 -18.351   4.988  1.00  0.00     0.096 A 
ENDROOT
BRANCH   1   6
HETATM    6  C   UNL     1      43.710 -16.767   6.980  1.00  0.00     0.293 C 
HETATM    7  N   UNL     1      44.342 -15.539   6.912  1.00  0.00    -0.242 N 
HETATM    8  H   UNL     1      45.126 -15.399   6.277  1.00  0.00     0.192 HD
HETATM    9  O   UNL     1      42.770 -17.046   7.719  1.00  0.00    -0.264 OA
BRANCH   7  10
HETATM   10  N   UNL     1      43.879 -14.508   7.671  1.00  0.00    -0.183 NA
HETATM   11  C   UNL     1      44.734 -13.576   7.953  1.00  0.00     0.153 C 
BRANCH  11  12
HETATM   12  C   UNL     1      44.331 -12.402   8.756  1.00  0.00     0.017 A 
HETATM   13  C   UNL     1      43.262 -11.626   8.294  1.00  0.00     0.034 A 
HETATM   14  C   UNL     1      42.854 -10.515   9.034  1.00  0.00     0.012 A 
HETATM   15  C   UNL     1      43.496 -10.174  10.224  1.00  0.00     0.022 A 
HETATM   16 BR   UNL     1      41.411  -9.461   8.414  1.00  0.00    -0.051 Br
HETATM   17  C   UNL     1      44.561 -10.949  10.683  1.00  0.00     0.039 A 
HETATM   18  C   UNL     1      44.977 -12.058   9.951  1.00  0.00     0.077 A 
BRANCH  18  19
HETATM   19  O   UNL     1      46.027 -12.767  10.468  1.00  0.00    -0.360 OA
HETATM   20  H   UNL     1      46.064 -13.635  10.010  1.00  0.00     0.217 HD
ENDBRANCH  18  19
ENDBRANCH  11  12
ENDBRANCH   7  10
ENDBRANCH   1   6
BRANCH   5  21
HETATM   21  C   UNL     1      42.348 -18.024   4.348  1.00  0.00     0.296 C 
BRANCH  21  22
HETATM   22  N   UNL     1      42.436 -17.111   3.148  1.00  0.00    -0.066 N 
HETATM   23  H   UNL     1      43.332 -17.332   2.687  1.00  0.00     0.280 HD
HETATM   24  C   UNL     1      41.315 -17.305   2.153  1.00  0.00     0.235 C 
HETATM   25  C   UNL     1      41.580 -16.442   0.925  1.00  0.00     0.028 C 
HETATM   26  C   UNL     1      41.741 -14.973   1.292  1.00  0.00     0.003 C 
HETATM   27  C   UNL     1      42.802 -14.786   2.370  1.00  0.00     0.028 C 
HETATM   28  C   UNL     1      42.532 -15.663   3.584  1.00  0.00     0.235 C 
ENDBRANCH  21  22
ENDBRANCH   5  21
BRANCH   4  29
HETATM   29  C   UNL     1      44.383 -20.283   3.529  1.00  0.00     0.225 A 
HETATM   30  N   UNL     1      43.968 -19.924   2.309  1.00  0.00    -0.081 NA
HETATM   31  O   UNL     1      43.898 -21.138   1.616  1.00  0.00    -0.103 OA
HETATM   32  N   UNL     1      44.234 -22.203   2.437  1.00  0.00    -0.083 NA
HETATM   33  C   UNL     1      44.533 -21.677   3.623  1.00  0.00     0.201 A 
BRANCH  33  34
HETATM   34  N   UNL     1      44.908 -22.384   4.698  1.00  0.00    -0.379 N 
HETATM   35  H   UNL     1      45.838 -22.266   5.092  1.00  0.00     0.158 HD
HETATM   36  H   UNL     1      44.377 -23.162   5.085  1.00  0.00     0.158 HD
ENDBRANCH  33  34
ENDBRANCH   4  29
TORSDOF 8
ENDMDL
MODEL 8
REMARK VINA RESULT:      -7.6      2.653      3.314
REMARK  8 active torsions:
REMARK  status: ('A' for Active; 'I' for Inactive)
REMARK    1  A    between atoms: C_5  and  C_6 
REMARK    2  A    between atoms: N_7  and  N_8 
REMARK       I    between atoms: N_8  and  C_9 
REMARK    3  A    between atoms: C_9  and  C_10 
REMARK    4  A    between atoms: N_13  and  C_14 
REMARK    5  A    between atoms: C_18  and  N_19 
REMARK    6  A    between atoms: C_20  and  C_21 
REMARK    7  A    between atoms: C_21  and  N_22 
REMARK    8  A    between atoms: C_30  and  O_31 
ROOT
HETATM    1  C   UNL     1      43.413 -14.007   5.132  1.00  0.00     0.170 A 
HETATM    2  N   UNL     1      44.374 -13.534   5.976  1.00  0.00    -0.152 NA
HETATM    3  N   UNL     1      44.740 -14.520   6.778  1.00  0.00     0.012 NA
HETATM    4  N   UNL     1      44.000 -15.625   6.496  1.00  0.00    -0.215 N 
HETATM    5  C   UNL     1      43.186 -15.351   5.400  1.00  0.00     0.096 A 
ENDROOT
BRANCH   1   6
HETATM    6  C   UNL     1      42.754 -13.192   4.122  1.00  0.00     0.293 C 
HETATM    7  N   UNL     1      43.150 -13.464   2.826  1.00  0.00    -0.242 N 
HETATM    8  H   UNL     1      43.848 -14.182   2.643  1.00  0.00     0.192 HD
HETATM    9  O   UNL     1      41.934 -12.339   4.453  1.00  0.00    -0.264 OA
BRANCH   7  10
HETATM   10  N   UNL     1      42.567 -12.793   1.795  1.00  0.00    -0.183 NA
HETATM   11  C   UNL     1      42.146 -13.516   0.806  1.00  0.00     0.153 C 
BRANCH  11  12
HETATM   12  C   UNL     1      41.480 -12.890  -0.356  1.00  0.00     0.017 A 
HETATM   13  C   UNL     1      40.254 -13.420  -0.775  1.00  0.00     0.034 A 
HETATM   14  C   UNL     1      39.598 -12.846  -1.865  1.00  0.00     0.012 A 
HETATM   15  C   UNL     1      40.148 -11.754  -2.536  1.00  0.00     0.022 A 
HETATM   16 BR   UNL     1      37.942 -13.557  -2.435  1.00  0.00    -0.051 Br
HETATM   17  C   UNL     1      41.371 -11.228  -2.117  1.00  0.00     0.039 A 
HETATM   18  C   UNL     1      42.035 -11.795  -1.032  1.00  0.00     0.077 A 
BRANCH  18  19
HETATM   19  O   UNL     1      43.227 -11.222  -0.683  1.00  0.00    -0.360 OA
HETATM   20  H   UNL     1      43.814 -11.235  -1.470  1.00  0.00     0.217 HD
ENDBRANCH  18  19
ENDBRANCH  11  12
ENDBRANCH   7  10
ENDBRANCH   1   6
BRANCH   5  21
HETATM   21  C   UNL     1      42.350 -16.337   4.677  1.00  0.00     0.296 C 
BRANCH  21  22
HETATM   22  N   UNL     1      43.096 -17.231   3.716  1.00  0.00    -0.066 N 
HETATM   23  H   UNL     1      44.099 -17.058   3.885  1.00  0.00     0.280 HD
HETATM   24  C   UNL     1      42.816 -18.703   3.914  1.00  0.00     0.235 C 
HETATM   25  C   UNL     1      43.723 -19.514   2.996  1.00  0.00     0.028 C 
HETATM   26  C   UNL     1      43.551 -19.113   1.536  1.00  0.00     0.003 C 
HETATM   27  C   UNL     1      43.733 -17.611   1.351  1.00  0.00     0.028 C 
HETATM   28  C   UNL     1      42.832 -16.815   2.284  1.00  0.00     0.235 C 
ENDBRANCH  21  22
ENDBRANCH   5  21
BRANCH   4  29
HETATM   29  C   UNL     1      44.058 -16.802   7.281  1.00  0.00     0.225 A 
HETATM   30  N   UNL     1      43.430 -16.848   8.462  1.00  0.00    -0.081 NA
HETATM   31  O   UNL     1      43.724 -18.131   8.940  1.00  0.00    -0.103 OA
HETATM   32  N   UNL     1      44.549 -18.816   8.062  1.00  0.00    -0.083 NA
HETATM   33  C   UNL     1      44.759 -17.995   7.034  1.00  0.00     0.201 A 
BRANCH  33  34
HETATM   34  N   UNL     1      45.515 -18.288   5.967  1.00  0.00    -0.379 N 
HETATM   35  H   UNL     1      46.502 -18.505   6.080  1.00  0.00     0.158 HD
HETATM   36  H   UNL     1      45.213 -18.171   5.002  1.00  0.00     0.158 HD
ENDBRANCH  33  34
ENDBRANCH   4  29
TORSDOF 8
ENDMDL
MODEL 9
REMARK VINA RESULT:      -7.6      4.103      9.689
REMARK  8 active torsions:
REMARK  status: ('A' for Active; 'I' for Inactive)
REMARK    1  A    between atoms: C_5  and  C_6 
REMARK    2  A    between atoms: N_7  and  N_8 
REMARK       I    between atoms: N_8  and  C_9 
REMARK    3  A    between atoms: C_9  and  C_10 
REMARK    4  A    between atoms: N_13  and  C_14 
REMARK    5  A    between atoms: C_18  and  N_19 
REMARK    6  A    between atoms: C_20  and  C_21 
REMARK    7  A    between atoms: C_21  and  N_22 
REMARK    8  A    between atoms: C_30  and  O_31 
ROOT
HETATM    1  C   UNL     1      38.950 -14.395   0.884  1.00  0.00     0.170 A 
HETATM    2  N   UNL     1      37.597 -14.231   0.940  1.00  0.00    -0.152 NA
HETATM    3  N   UNL     1      37.233 -13.466  -0.076  1.00  0.00     0.012 NA
HETATM    4  N   UNL     1      38.337 -13.093  -0.775  1.00  0.00    -0.215 N 
HETATM    5  C   UNL     1      39.449 -13.726  -0.226  1.00  0.00     0.096 A 
ENDROOT
BRANCH   1   6
HETATM    6  C   UNL     1      39.710 -15.160   1.861  1.00  0.00     0.293 C 
HETATM    7  N   UNL     1      40.091 -16.416   1.425  1.00  0.00    -0.242 N 
HETATM    8  H   UNL     1      39.836 -16.735   0.493  1.00  0.00     0.192 HD
HETATM    9  O   UNL     1      39.951 -14.685   2.968  1.00  0.00    -0.264 OA
BRANCH   7  10
HETATM   10  N   UNL     1      40.845 -17.204   2.240  1.00  0.00    -0.183 NA
HETATM   11  C   UNL     1      41.994 -17.579   1.771  1.00  0.00     0.153 C 
BRANCH  11  12
HETATM   12  C   UNL     1      42.900 -18.420   2.580  1.00  0.00     0.017 A 
HETATM   13  C   UNL     1      43.259 -19.674   2.074  1.00  0.00     0.034 A 
HETATM   14  C   UNL     1      44.119 -20.490   2.812  1.00  0.00     0.012 A 
HETATM   15  C   UNL     1      44.623 -20.067   4.042  1.00  0.00     0.022 A 
HETATM   16 BR   UNL     1      44.607 -22.185   2.133  1.00  0.00    -0.051 Br
HETATM   17  C   UNL     1      44.264 -18.816   4.545  1.00  0.00     0.039 A 
HETATM   18  C   UNL     1      43.405 -17.997   3.818  1.00  0.00     0.077 A 
BRANCH  18  19
HETATM   19  O   UNL     1      43.101 -16.787   4.378  1.00  0.00    -0.360 OA
HETATM   20  H   UNL     1      43.819 -16.157   4.152  1.00  0.00     0.217 HD
ENDBRANCH  18  19
ENDBRANCH  11  12
ENDBRANCH   7  10
ENDBRANCH   1   6
BRANCH   5  21
HETATM   21  C   UNL     1      40.817 -13.715  -0.794  1.00  0.00     0.296 C 
BRANCH  21  22
HETATM   22  N   UNL     1      41.410 -12.344  -1.015  1.00  0.00    -0.066 N 
HETATM   23  H   UNL     1      40.631 -11.743  -1.328  1.00  0.00     0.280 HD
HETATM   24  C   UNL     1      42.023 -11.740   0.227  1.00  0.00     0.235 C 
HETATM   25  C   UNL     1      42.458 -10.311  -0.073  1.00  0.00     0.028 C 
HETATM   26  C   UNL     1      43.425 -10.250  -1.249  1.00  0.00     0.003 C 
HETATM   27  C   UNL     1      42.849 -10.949  -2.475  1.00  0.00     0.028 C 
HETATM   28  C   UNL     1      42.406 -12.370  -2.157  1.00  0.00     0.235 C 
ENDBRANCH  21  22
ENDBRANCH   5  21
BRANCH   4  29
HETATM   29  C   UNL     1      38.288 -12.154  -1.834  1.00  0.00     0.225 A 
HETATM   30  N   UNL     1      38.477 -10.854  -1.583  1.00  0.00    -0.081 NA
HETATM   31  O   UNL     1      38.340 -10.253  -2.839  1.00  0.00    -0.103 OA
HETATM   32  N   UNL     1      38.034 -11.191  -3.813  1.00  0.00    -0.083 NA
HETATM   33  C   UNL     1      38.001 -12.370  -3.193  1.00  0.00     0.201 A 
BRANCH  33  34
HETATM   34  N   UNL     1      37.734 -13.539  -3.792  1.00  0.00    -0.379 N 
HETATM   35  H   UNL     1      37.708 -14.400  -3.251  1.00  0.00     0.158 HD
HETATM   36  H   UNL     1      37.694 -13.669  -4.801  1.00  0.00     0.158 HD
ENDBRANCH  33  34
ENDBRANCH   4  29
TORSDOF 8
ENDMDL
MODEL 10
REMARK VINA RESULT:      -7.4      2.121      4.212
REMARK  8 active torsions:
REMARK  status: ('A' for Active; 'I' for Inactive)
REMARK    1  A    between atoms: C_5  and  C_6 
REMARK    2  A    between atoms: N_7  and  N_8 
REMARK       I    between atoms: N_8  and  C_9 
REMARK    3  A    between atoms: C_9  and  C_10 
REMARK    4  A    between atoms: N_13  and  C_14 
REMARK    5  A    between atoms: C_18  and  N_19 
REMARK    6  A    between atoms: C_20  and  C_21 
REMARK    7  A    between atoms: C_21  and  N_22 
REMARK    8  A    between atoms: C_30  and  O_31 
ROOT
HETATM    1  C   UNL     1      42.565 -17.363   2.849  1.00  0.00     0.170 A 
HETATM    2  N   UNL     1      43.714 -18.096   2.880  1.00  0.00    -0.152 NA
HETATM    3  N   UNL     1      44.084 -18.227   4.143  1.00  0.00     0.012 NA
HETATM    4  N   UNL     1      43.213 -17.552   4.938  1.00  0.00    -0.215 N 
HETATM    5  C   UNL     1      42.188 -17.043   4.146  1.00  0.00     0.096 A 
ENDROOT
BRANCH   1   6
HETATM    6  C   UNL     1      41.877 -16.994   1.619  1.00  0.00     0.293 C 
HETATM    7  N   UNL     1      42.235 -15.755   1.119  1.00  0.00    -0.242 N 
HETATM    8  H   UNL     1      42.923 -15.185   1.606  1.00  0.00     0.192 HD
HETATM    9  O   UNL     1      41.049 -17.753   1.122  1.00  0.00    -0.264 OA
BRANCH   7  10
HETATM   10  N   UNL     1      41.688 -15.326  -0.051  1.00  0.00    -0.183 NA
HETATM   11  C   UNL     1      41.642 -14.042  -0.224  1.00  0.00     0.153 C 
BRANCH  11  12
HETATM   12  C   UNL     1      41.084 -13.469  -1.468  1.00  0.00     0.017 A 
HETATM   13  C   UNL     1      41.877 -12.570  -2.189  1.00  0.00     0.034 A 
HETATM   14  C   UNL     1      41.381 -12.017  -3.371  1.00  0.00     0.012 A 
HETATM   15  C   UNL     1      40.110 -12.352  -3.839  1.00  0.00     0.022 A 
HETATM   16 BR   UNL     1      42.447 -10.800  -4.350  1.00  0.00    -0.051 Br
HETATM   17  C   UNL     1      39.321 -13.249  -3.117  1.00  0.00     0.039 A 
HETATM   18  C   UNL     1      39.806 -13.804  -1.936  1.00  0.00     0.077 A 
BRANCH  18  19
HETATM   19  O   UNL     1      38.973 -14.674  -1.287  1.00  0.00    -0.360 OA
HETATM   20  H   UNL     1      39.092 -14.548  -0.321  1.00  0.00     0.217 HD
ENDBRANCH  18  19
ENDBRANCH  11  12
ENDBRANCH   7  10
ENDBRANCH   1   6
BRANCH   5  21
HETATM   21  C   UNL     1      40.956 -16.386   4.644  1.00  0.00     0.296 C 
BRANCH  21  22
HETATM   22  N   UNL     1      41.136 -14.968   5.132  1.00  0.00    -0.066 N 
HETATM   23  H   UNL     1      41.622 -15.038   6.039  1.00  0.00     0.280 HD
HETATM   24  C   UNL     1      41.960 -14.107   4.203  1.00  0.00     0.235 C 
HETATM   25  C   UNL     1      42.197 -12.751   4.856  1.00  0.00     0.028 C 
HETATM   26  C   UNL     1      40.888 -12.065   5.225  1.00  0.00     0.003 C 
HETATM   27  C   UNL     1      40.010 -12.973   6.079  1.00  0.00     0.028 C 
HETATM   28  C   UNL     1      39.794 -14.328   5.421  1.00  0.00     0.235 C 
ENDBRANCH  21  22
ENDBRANCH   5  21
BRANCH   4  29
HETATM   29  C   UNL     1      43.422 -17.384   6.329  1.00  0.00     0.225 A 
HETATM   30  N   UNL     1      43.466 -16.154   6.853  1.00  0.00    -0.081 NA
HETATM   31  O   UNL     1      43.702 -16.385   8.213  1.00  0.00    -0.103 OA
HETATM   32  N   UNL     1      43.833 -17.739   8.475  1.00  0.00    -0.083 NA
HETATM   33  C   UNL     1      43.661 -18.361   7.311  1.00  0.00     0.201 A 
BRANCH  33  34
HETATM   34  N   UNL     1      43.716 -19.689   7.140  1.00  0.00    -0.379 N 
HETATM   35  H   UNL     1      43.879 -20.082   6.216  1.00  0.00     0.158 HD
HETATM   36  H   UNL     1      43.457 -20.369   7.852  1.00  0.00     0.158 HD
ENDBRANCH  33  34
ENDBRANCH   4  29
TORSDOF 8
ENDMDL
