MODEL 1
REMARK VINA RESULT:      -8.3      0.000      0.000
REMARK  6 active torsions:
REMARK  status: ('A' for Active; 'I' for Inactive)
REMARK    1  A    between atoms: C_2  and  O_3 
REMARK    2  A    between atoms: O_3  and  C_4 
REMARK    3  A    between atoms: C_4  and  C_5 
REMARK    4  A    between atoms: C_6  and  O_7 
REMARK    5  A    between atoms: C_12  and  O_13 
REMARK    6  A    between atoms: C_17  and  C_18 
ROOT
HETATM    1  C   UNL     1      42.731 -16.977   4.733  1.00  0.00     0.133 C 
HETATM    2  C   UNL     1      41.172 -16.882   4.812  1.00  0.00     0.073 C 
HETATM    3  C   UNL     1      40.675 -16.365   6.172  1.00  0.00     0.047 C 
HETATM    4  C   UNL     1      40.520 -16.056   3.666  1.00  0.00     0.097 C 
HETATM    5  C   UNL     1      41.210 -16.336   2.383  1.00  0.00     0.042 A 
HETATM    6  C   UNL     1      42.455 -16.903   2.209  1.00  0.00     0.030 A 
HETATM    7  C   UNL     1      42.604 -16.927   0.813  1.00  0.00     0.190 A 
HETATM    8  N   UNL     1      41.569 -16.419   0.156  1.00  0.00    -0.149 NA
HETATM    9  N   UNL     1      40.715 -16.079   1.137  1.00  0.00    -0.279 N 
HETATM   10  H   UNL     1      39.820 -15.677   0.878  1.00  0.00     0.189 HD
HETATM   11  C   UNL     1      43.337 -17.308   3.339  1.00  0.00     0.074 C 
ENDROOT
BRANCH  11  12
HETATM   12  C   UNL     1      43.671 -18.786   3.171  1.00  0.00    -0.048 A 
HETATM   13  C   UNL     1      44.560 -19.380   4.089  1.00  0.00     0.011 A 
HETATM   14  C   UNL     1      44.880 -20.736   4.002  1.00  0.00     0.043 A 
HETATM   15  C   UNL     1      44.306 -21.512   3.004  1.00  0.00     0.116 A 
HETATM   16  F   UNL     1      44.610 -22.813   2.925  1.00  0.00    -0.206 F 
HETATM   17  C   UNL     1      43.420 -20.956   2.092  1.00  0.00     0.043 A 
HETATM   18  C   UNL     1      43.100 -19.599   2.176  1.00  0.00     0.011 A 
ENDBRANCH  11  12
BRANCH   1  19
HETATM   19  C   UNL     1      43.465 -15.753   5.243  1.00  0.00     0.267 C 
HETATM   20  O   UNL     1      43.418 -14.673   4.668  1.00  0.00    -0.265 OA
BRANCH  19  21
HETATM   21  O   UNL     1      44.099 -15.972   6.421  1.00  0.00    -0.316 OA
BRANCH  21  22
HETATM   22  C   UNL     1      43.997 -17.303   6.969  1.00  0.00     0.123 C 
HETATM   23  C   UNL     1      43.463 -17.241   8.396  1.00  0.00     0.040 C 
HETATM   24  C   UNL     1      45.399 -17.899   6.950  1.00  0.00     0.040 C 
ENDBRANCH  21  22
ENDBRANCH  19  21
ENDBRANCH   1  19
BRANCH   2  25
HETATM   25  O   UNL     1      40.632 -18.221   4.710  1.00  0.00    -0.389 OA
HETATM   26  H   UNL     1      39.887 -18.211   4.083  1.00  0.00     0.210 HD
ENDBRANCH   2  25
BRANCH   7  27
HETATM   27  O   UNL     1      43.611 -17.393   0.072  1.00  0.00    -0.343 OA
HETATM   28  H   UNL     1      44.202 -17.922   0.628  1.00  0.00     0.219 HD
ENDBRANCH   7  27
TORSDOF 6
ENDMDL
MODEL 2
REMARK VINA RESULT:      -8.2      1.313      1.561
REMARK  6 active torsions:
REMARK  status: ('A' for Active; 'I' for Inactive)
REMARK    1  A    between atoms: C_2  and  O_3 
REMARK    2  A    between atoms: O_3  and  C_4 
REMARK    3  A    between atoms: C_4  and  C_5 
REMARK    4  A    between atoms: C_6  and  O_7 
REMARK    5  A    between atoms: C_12  and  O_13 
REMARK    6  A    between atoms: C_17  and  C_18 
ROOT
HETATM    1  C   UNL     1      42.601 -15.813   4.564  1.00  0.00     0.133 C 
HETATM    2  C   UNL     1      41.039 -15.875   4.606  1.00  0.00     0.073 C 
HETATM    3  C   UNL     1      40.441 -15.045   5.753  1.00  0.00     0.047 C 
HETATM    4  C   UNL     1      40.344 -15.497   3.266  1.00  0.00     0.097 C 
HETATM    5  C   UNL     1      41.107 -16.059   2.123  1.00  0.00     0.042 A 
HETATM    6  C   UNL     1      42.410 -16.508   2.128  1.00  0.00     0.030 A 
HETATM    7  C   UNL     1      42.612 -16.920   0.801  1.00  0.00     0.190 A 
HETATM    8  N   UNL     1      41.553 -16.744   0.020  1.00  0.00    -0.149 NA
HETATM    9  N   UNL     1      40.632 -16.233   0.856  1.00  0.00    -0.279 N 
HETATM   10  H   UNL     1      39.710 -16.026   0.487  1.00  0.00     0.189 HD
HETATM   11  C   UNL     1      43.289 -16.465   3.329  1.00  0.00     0.074 C 
ENDROOT
BRANCH  11  12
HETATM   12  C   UNL     1      43.785 -17.881   3.603  1.00  0.00    -0.048 A 
HETATM   13  C   UNL     1      44.324 -18.168   4.873  1.00  0.00     0.011 A 
HETATM   14  C   UNL     1      44.766 -19.453   5.190  1.00  0.00     0.043 A 
HETATM   15  C   UNL     1      44.664 -20.464   4.245  1.00  0.00     0.116 A 
HETATM   16  F   UNL     1      45.084 -21.698   4.552  1.00  0.00    -0.206 F 
HETATM   17  C   UNL     1      44.128 -20.214   2.990  1.00  0.00     0.043 A 
HETATM   18  C   UNL     1      43.687 -18.928   2.670  1.00  0.00     0.011 A 
ENDBRANCH  11  12
BRANCH   1  19
HETATM   19  C   UNL     1      43.181 -14.420   4.695  1.00  0.00     0.267 C 
HETATM   20  O   UNL     1      43.387 -13.700   3.726  1.00  0.00    -0.265 OA
BRANCH  19  21
HETATM   21  O   UNL     1      43.369 -14.047   5.985  1.00  0.00    -0.316 OA
BRANCH  21  22
HETATM   22  C   UNL     1      44.466 -14.671   6.682  1.00  0.00     0.123 C 
HETATM   23  C   UNL     1      43.945 -15.778   7.592  1.00  0.00     0.040 C 
HETATM   24  C   UNL     1      45.148 -13.583   7.502  1.00  0.00     0.040 C 
ENDBRANCH  21  22
ENDBRANCH  19  21
ENDBRANCH   1  19
BRANCH   2  25
HETATM   25  O   UNL     1      40.649 -17.238   4.899  1.00  0.00    -0.389 OA
HETATM   26  H   UNL     1      41.255 -17.600   5.571  1.00  0.00     0.210 HD
ENDBRANCH   2  25
BRANCH   7  27
HETATM   27  O   UNL     1      43.689 -17.465   0.232  1.00  0.00    -0.343 OA
HETATM   28  H   UNL     1      43.779 -18.383   0.527  1.00  0.00     0.219 HD
ENDBRANCH   7  27
TORSDOF 6
ENDMDL
MODEL 3
REMARK VINA RESULT:      -7.9      1.283      1.854
REMARK  6 active torsions:
REMARK  status: ('A' for Active; 'I' for Inactive)
REMARK    1  A    between atoms: C_2  and  O_3 
REMARK    2  A    between atoms: O_3  and  C_4 
REMARK    3  A    between atoms: C_4  and  C_5 
REMARK    4  A    between atoms: C_6  and  O_7 
REMARK    5  A    between atoms: C_12  and  O_13 
REMARK    6  A    between atoms: C_17  and  C_18 
ROOT
HETATM    1  C   UNL     1      42.790 -17.458   5.495  1.00  0.00     0.133 C 
HETATM    2  C   UNL     1      41.268 -17.140   5.325  1.00  0.00     0.073 C 
HETATM    3  C   UNL     1      40.550 -16.926   6.667  1.00  0.00     0.047 C 
HETATM    4  C   UNL     1      40.963 -15.950   4.370  1.00  0.00     0.097 C 
HETATM    5  C   UNL     1      41.876 -15.991   3.201  1.00  0.00     0.042 A 
HETATM    6  C   UNL     1      43.064 -16.683   3.091  1.00  0.00     0.030 A 
HETATM    7  C   UNL     1      43.503 -16.363   1.797  1.00  0.00     0.190 A 
HETATM    8  N   UNL     1      42.689 -15.543   1.144  1.00  0.00    -0.149 NA
HETATM    9  N   UNL     1      41.686 -15.341   2.016  1.00  0.00    -0.279 N 
HETATM   10  H   UNL     1      40.913 -14.748   1.732  1.00  0.00     0.189 HD
HETATM   11  C   UNL     1      43.640 -17.504   4.192  1.00  0.00     0.074 C 
ENDROOT
BRANCH  11  12
HETATM   12  C   UNL     1      43.847 -18.920   3.666  1.00  0.00    -0.048 A 
HETATM   13  C   UNL     1      44.660 -19.799   4.410  1.00  0.00     0.011 A 
HETATM   14  C   UNL     1      44.861 -21.115   3.993  1.00  0.00     0.043 A 
HETATM   15  C   UNL     1      44.244 -21.568   2.834  1.00  0.00     0.116 A 
HETATM   16  F   UNL     1      44.434 -22.833   2.438  1.00  0.00    -0.206 F 
HETATM   17  C   UNL     1      43.430 -20.728   2.087  1.00  0.00     0.043 A 
HETATM   18  C   UNL     1      43.229 -19.410   2.502  1.00  0.00     0.011 A 
ENDBRANCH  11  12
BRANCH   1  19
HETATM   19  C   UNL     1      43.522 -16.544   6.456  1.00  0.00     0.267 C 
HETATM   20  O   UNL     1      43.744 -16.856   7.619  1.00  0.00    -0.265 OA
BRANCH  19  21
HETATM   21  O   UNL     1      43.957 -15.402   5.868  1.00  0.00    -0.316 OA
BRANCH  21  22
HETATM   22  C   UNL     1      43.680 -14.172   6.569  1.00  0.00     0.123 C 
HETATM   23  C   UNL     1      43.004 -13.177   5.632  1.00  0.00     0.040 C 
HETATM   24  C   UNL     1      45.017 -13.626   7.053  1.00  0.00     0.040 C 
ENDBRANCH  21  22
ENDBRANCH  19  21
ENDBRANCH   1  19
BRANCH   2  25
HETATM   25  O   UNL     1      40.626 -18.303   4.748  1.00  0.00    -0.389 OA
HETATM   26  H   UNL     1      39.666 -18.143   4.709  1.00  0.00     0.210 HD
ENDBRANCH   2  25
BRANCH   7  27
HETATM   27  O   UNL     1      44.590 -16.772   1.140  1.00  0.00    -0.343 OA
HETATM   28  H   UNL     1      44.474 -17.695   0.869  1.00  0.00     0.219 HD
ENDBRANCH   7  27
TORSDOF 6
ENDMDL
MODEL 4
REMARK VINA RESULT:      -7.5      2.868      5.092
REMARK  6 active torsions:
REMARK  status: ('A' for Active; 'I' for Inactive)
REMARK    1  A    between atoms: C_2  and  O_3 
REMARK    2  A    between atoms: O_3  and  C_4 
REMARK    3  A    between atoms: C_4  and  C_5 
REMARK    4  A    between atoms: C_6  and  O_7 
REMARK    5  A    between atoms: C_12  and  O_13 
REMARK    6  A    between atoms: C_17  and  C_18 
ROOT
HETATM    1  C   UNL     1      41.887 -15.537   3.506  1.00  0.00     0.133 C 
HETATM    2  C   UNL     1      42.910 -14.358   3.608  1.00  0.00     0.073 C 
HETATM    3  C   UNL     1      42.546 -13.173   2.700  1.00  0.00     0.047 C 
HETATM    4  C   UNL     1      43.164 -13.851   5.057  1.00  0.00     0.097 C 
HETATM    5  C   UNL     1      43.217 -15.000   5.995  1.00  0.00     0.042 A 
HETATM    6  C   UNL     1      42.749 -16.278   5.778  1.00  0.00     0.030 A 
HETATM    7  C   UNL     1      43.052 -16.939   6.980  1.00  0.00     0.190 A 
HETATM    8  N   UNL     1      43.644 -16.164   7.880  1.00  0.00    -0.149 NA
HETATM    9  N   UNL     1      43.754 -14.982   7.249  1.00  0.00    -0.279 N 
HETATM   10  H   UNL     1      44.203 -14.215   7.740  1.00  0.00     0.189 HD
HETATM   11  C   UNL     1      42.064 -16.701   4.525  1.00  0.00     0.074 C 
ENDROOT
BRANCH  11  12
HETATM   12  C   UNL     1      42.829 -17.886   3.946  1.00  0.00    -0.048 A 
HETATM   13  C   UNL     1      42.424 -18.399   2.697  1.00  0.00     0.011 A 
HETATM   14  C   UNL     1      43.104 -19.464   2.105  1.00  0.00     0.043 A 
HETATM   15  C   UNL     1      44.201 -20.019   2.751  1.00  0.00     0.116 A 
HETATM   16  F   UNL     1      44.856 -21.038   2.179  1.00  0.00    -0.206 F 
HETATM   17  C   UNL     1      44.629 -19.528   3.976  1.00  0.00     0.043 A 
HETATM   18  C   UNL     1      43.948 -18.464   4.571  1.00  0.00     0.011 A 
ENDBRANCH  11  12
BRANCH   1  19
HETATM   19  C   UNL     1      40.433 -15.119   3.578  1.00  0.00     0.267 C 
HETATM   20  O   UNL     1      39.982 -14.471   4.515  1.00  0.00    -0.265 OA
BRANCH  19  21
HETATM   21  O   UNL     1      39.728 -15.471   2.475  1.00  0.00    -0.316 OA
BRANCH  21  22
HETATM   22  C   UNL     1      39.467 -14.425   1.517  1.00  0.00     0.123 C 
HETATM   23  C   UNL     1      37.979 -14.380   1.187  1.00  0.00     0.040 C 
HETATM   24  C   UNL     1      40.281 -14.751   0.271  1.00  0.00     0.040 C 
ENDBRANCH  21  22
ENDBRANCH  19  21
ENDBRANCH   1  19
BRANCH   2  25
HETATM   25  O   UNL     1      44.186 -14.824   3.109  1.00  0.00    -0.389 OA
HETATM   26  H   UNL     1      44.805 -14.072   3.080  1.00  0.00     0.210 HD
ENDBRANCH   2  25
BRANCH   7  27
HETATM   27  O   UNL     1      42.847 -18.210   7.328  1.00  0.00    -0.343 OA
HETATM   28  H   UNL     1      41.901 -18.411   7.274  1.00  0.00     0.219 HD
ENDBRANCH   7  27
TORSDOF 6
ENDMDL
MODEL 5
REMARK VINA RESULT:      -7.3      3.559      6.079
REMARK  6 active torsions:
REMARK  status: ('A' for Active; 'I' for Inactive)
REMARK    1  A    between atoms: C_2  and  O_3 
REMARK    2  A    between atoms: O_3  and  C_4 
REMARK    3  A    between atoms: C_4  and  C_5 
REMARK    4  A    between atoms: C_6  and  O_7 
REMARK    5  A    between atoms: C_12  and  O_13 
REMARK    6  A    between atoms: C_17  and  C_18 
ROOT
HETATM    1  C   UNL     1      41.529 -14.942   2.768  1.00  0.00     0.133 C 
HETATM    2  C   UNL     1      41.515 -13.653   1.882  1.00  0.00     0.073 C 
HETATM    3  C   UNL     1      41.780 -13.948   0.397  1.00  0.00     0.047 C 
HETATM    4  C   UNL     1      40.229 -12.789   2.025  1.00  0.00     0.097 C 
HETATM    5  C   UNL     1      39.798 -12.752   3.445  1.00  0.00     0.042 A 
HETATM    6  C   UNL     1      40.174 -13.612   4.455  1.00  0.00     0.030 A 
HETATM    7  C   UNL     1      39.474 -13.122   5.569  1.00  0.00     0.190 A 
HETATM    8  N   UNL     1      38.718 -12.064   5.303  1.00  0.00    -0.149 NA
HETATM    9  N   UNL     1      38.946 -11.840   3.997  1.00  0.00    -0.279 N 
HETATM   10  H   UNL     1      38.484 -11.052   3.556  1.00  0.00     0.189 HD
HETATM   11  C   UNL     1      41.086 -14.772   4.250  1.00  0.00     0.074 C 
ENDROOT
BRANCH  11  12
HETATM   12  C   UNL     1      42.261 -14.623   5.210  1.00  0.00    -0.048 A 
HETATM   13  C   UNL     1      42.708 -13.325   5.525  1.00  0.00     0.011 A 
HETATM   14  C   UNL     1      43.761 -13.127   6.420  1.00  0.00     0.043 A 
HETATM   15  C   UNL     1      44.368 -14.224   7.015  1.00  0.00     0.116 A 
HETATM   16  F   UNL     1      45.374 -14.033   7.878  1.00  0.00    -0.206 F 
HETATM   17  C   UNL     1      43.942 -15.514   6.732  1.00  0.00     0.043 A 
HETATM   18  C   UNL     1      42.890 -15.714   5.836  1.00  0.00     0.011 A 
ENDBRANCH  11  12
BRANCH   1  19
HETATM   19  C   UNL     1      40.729 -16.101   2.209  1.00  0.00     0.267 C 
HETATM   20  O   UNL     1      39.511 -16.058   2.085  1.00  0.00    -0.265 OA
BRANCH  19  21
HETATM   21  O   UNL     1      41.509 -17.132   1.801  1.00  0.00    -0.316 OA
BRANCH  21  22
HETATM   22  C   UNL     1      42.834 -17.198   2.366  1.00  0.00     0.123 C 
HETATM   23  C   UNL     1      43.868 -17.360   1.256  1.00  0.00     0.040 C 
HETATM   24  C   UNL     1      42.860 -18.402   3.299  1.00  0.00     0.040 C 
ENDBRANCH  21  22
ENDBRANCH  19  21
ENDBRANCH   1  19
BRANCH   2  25
HETATM   25  O   UNL     1      42.621 -12.813   2.291  1.00  0.00    -0.389 OA
HETATM   26  H   UNL     1      43.456 -13.260   2.063  1.00  0.00     0.210 HD
ENDBRANCH   2  25
BRANCH   7  27
HETATM   27  O   UNL     1      39.475 -13.552   6.832  1.00  0.00    -0.343 OA
HETATM   28  H   UNL     1      39.458 -12.791   7.432  1.00  0.00     0.219 HD
ENDBRANCH   7  27
TORSDOF 6
ENDMDL
MODEL 6
REMARK VINA RESULT:      -7.2      3.020      5.591
REMARK  6 active torsions:
REMARK  status: ('A' for Active; 'I' for Inactive)
REMARK    1  A    between atoms: C_2  and  O_3 
REMARK    2  A    between atoms: O_3  and  C_4 
REMARK    3  A    between atoms: C_4  and  C_5 
REMARK    4  A    between atoms: C_6  and  O_7 
REMARK    5  A    between atoms: C_12  and  O_13 
REMARK    6  A    between atoms: C_17  and  C_18 
ROOT
HETATM    1  C   UNL     1      41.538 -15.036   1.834  1.00  0.00     0.133 C 
HETATM    2  C   UNL     1      42.208 -13.759   2.442  1.00  0.00     0.073 C 
HETATM    3  C   UNL     1      42.330 -12.611   1.428  1.00  0.00     0.047 C 
HETATM    4  C   UNL     1      41.534 -13.239   3.745  1.00  0.00     0.097 C 
HETATM    5  C   UNL     1      41.139 -14.384   4.603  1.00  0.00     0.042 A 
HETATM    6  C   UNL     1      40.995 -15.702   4.224  1.00  0.00     0.030 A 
HETATM    7  C   UNL     1      40.608 -16.337   5.415  1.00  0.00     0.190 A 
HETATM    8  N   UNL     1      40.502 -15.513   6.450  1.00  0.00    -0.149 NA
HETATM    9  N   UNL     1      40.851 -14.321   5.935  1.00  0.00    -0.279 N 
HETATM   10  H   UNL     1      40.866 -13.516   6.553  1.00  0.00     0.189 HD
HETATM   11  C   UNL     1      41.198 -16.183   2.829  1.00  0.00     0.074 C 
ENDROOT
BRANCH  11  12
HETATM   12  C   UNL     1      42.257 -17.280   2.857  1.00  0.00    -0.048 A 
HETATM   13  C   UNL     1      42.264 -18.230   1.816  1.00  0.00     0.011 A 
HETATM   14  C   UNL     1      43.228 -19.239   1.774  1.00  0.00     0.043 A 
HETATM   15  C   UNL     1      44.197 -19.301   2.765  1.00  0.00     0.116 A 
HETATM   16  F   UNL     1      45.124 -20.267   2.720  1.00  0.00    -0.206 F 
HETATM   17  C   UNL     1      44.221 -18.373   3.796  1.00  0.00     0.043 A 
HETATM   18  C   UNL     1      43.257 -17.364   3.841  1.00  0.00     0.011 A 
ENDBRANCH  11  12
BRANCH   1  19
HETATM   19  C   UNL     1      40.278 -14.768   1.036  1.00  0.00     0.267 C 
HETATM   20  O   UNL     1      39.252 -14.345   1.553  1.00  0.00    -0.265 OA
BRANCH  19  21
HETATM   21  O   UNL     1      40.443 -14.976  -0.293  1.00  0.00    -0.316 OA
BRANCH  21  22
HETATM   22  C   UNL     1      40.216 -13.841  -1.154  1.00  0.00     0.123 C 
HETATM   23  C   UNL     1      38.912 -14.021  -1.924  1.00  0.00     0.040 C 
HETATM   24  C   UNL     1      41.397 -13.769  -2.114  1.00  0.00     0.040 C 
ENDBRANCH  21  22
ENDBRANCH  19  21
ENDBRANCH   1  19
BRANCH   2  25
HETATM   25  O   UNL     1      43.573 -14.088   2.790  1.00  0.00    -0.389 OA
HETATM   26  H   UNL     1      43.726 -13.848   3.722  1.00  0.00     0.210 HD
ENDBRANCH   2  25
BRANCH   7  27
HETATM   27  O   UNL     1      40.352 -17.626   5.649  1.00  0.00    -0.343 OA
HETATM   28  H   UNL     1      41.187 -18.108   5.741  1.00  0.00     0.219 HD
ENDBRANCH   7  27
TORSDOF 6
ENDMDL
MODEL 7
REMARK VINA RESULT:      -7.0      4.565      6.358
REMARK  6 active torsions:
REMARK  status: ('A' for Active; 'I' for Inactive)
REMARK    1  A    between atoms: C_2  and  O_3 
REMARK    2  A    between atoms: O_3  and  C_4 
REMARK    3  A    between atoms: C_4  and  C_5 
REMARK    4  A    between atoms: C_6  and  O_7 
REMARK    5  A    between atoms: C_12  and  O_13 
REMARK    6  A    between atoms: C_17  and  C_18 
ROOT
HETATM    1  C   UNL     1      41.068 -15.093   1.253  1.00  0.00     0.133 C 
HETATM    2  C   UNL     1      40.368 -14.090   2.228  1.00  0.00     0.073 C 
HETATM    3  C   UNL     1      40.023 -14.722   3.586  1.00  0.00     0.047 C 
HETATM    4  C   UNL     1      41.146 -12.761   2.451  1.00  0.00     0.097 C 
HETATM    5  C   UNL     1      41.741 -12.302   1.171  1.00  0.00     0.042 A 
HETATM    6  C   UNL     1      41.953 -13.049   0.032  1.00  0.00     0.030 A 
HETATM    7  C   UNL     1      42.536 -12.127  -0.852  1.00  0.00     0.190 A 
HETATM    8  N   UNL     1      42.694 -10.916  -0.333  1.00  0.00    -0.149 NA
HETATM    9  N   UNL     1      42.182 -11.038   0.904  1.00  0.00    -0.279 N 
HETATM   10  H   UNL     1      42.171 -10.220   1.503  1.00  0.00     0.189 HD
HETATM   11  C   UNL     1      41.625 -14.498  -0.073  1.00  0.00     0.074 C 
ENDROOT
BRANCH  11  12
HETATM   12  C   UNL     1      40.679 -14.684  -1.253  1.00  0.00    -0.048 A 
HETATM   13  C   UNL     1      40.990 -15.669  -2.212  1.00  0.00     0.011 A 
HETATM   14  C   UNL     1      40.145 -15.904  -3.298  1.00  0.00     0.043 A 
HETATM   15  C   UNL     1      38.977 -15.164  -3.429  1.00  0.00     0.116 A 
HETATM   16  F   UNL     1      38.165 -15.394  -4.468  1.00  0.00    -0.206 F 
HETATM   17  C   UNL     1      38.639 -14.196  -2.494  1.00  0.00     0.043 A 
HETATM   18  C   UNL     1      39.485 -13.958  -1.408  1.00  0.00     0.011 A 
ENDBRANCH  11  12
BRANCH   1  19
HETATM   19  C   UNL     1      42.194 -15.895   1.873  1.00  0.00     0.267 C 
HETATM   20  O   UNL     1      43.239 -15.378   2.248  1.00  0.00    -0.265 OA
BRANCH  19  21
HETATM   21  O   UNL     1      41.883 -17.205   2.030  1.00  0.00    -0.316 OA
BRANCH  21  22
HETATM   22  C   UNL     1      42.817 -18.001   2.788  1.00  0.00     0.123 C 
HETATM   23  C   UNL     1      43.011 -19.357   2.118  1.00  0.00     0.040 C 
HETATM   24  C   UNL     1      42.225 -18.174   4.181  1.00  0.00     0.040 C 
ENDBRANCH  21  22
ENDBRANCH  19  21
ENDBRANCH   1  19
BRANCH   2  25
HETATM   25  O   UNL     1      39.088 -13.725   1.659  1.00  0.00    -0.389 OA
HETATM   26  H   UNL     1      38.574 -14.537   1.499  1.00  0.00     0.210 HD
ENDBRANCH   2  25
BRANCH   7  27
HETATM   27  O   UNL     1      42.931 -12.291  -2.116  1.00  0.00    -0.343 OA
HETATM   28  H   UNL     1      42.269 -11.909  -2.712  1.00  0.00     0.219 HD
ENDBRANCH   7  27
TORSDOF 6
ENDMDL
MODEL 8
REMARK VINA RESULT:      -6.9      4.242      7.211
REMARK  6 active torsions:
REMARK  status: ('A' for Active; 'I' for Inactive)
REMARK    1  A    between atoms: C_2  and  O_3 
REMARK    2  A    between atoms: O_3  and  C_4 
REMARK    3  A    between atoms: C_4  and  C_5 
REMARK    4  A    between atoms: C_6  and  O_7 
REMARK    5  A    between atoms: C_12  and  O_13 
REMARK    6  A    between atoms: C_17  and  C_18 
ROOT
HETATM    1  C   UNL     1      41.830 -13.833  -1.133  1.00  0.00     0.133 C 
HETATM    2  C   UNL     1      41.861 -12.321  -0.732  1.00  0.00     0.073 C 
HETATM    3  C   UNL     1      42.530 -11.436  -1.796  1.00  0.00     0.047 C 
HETATM    4  C   UNL     1      40.474 -11.728  -0.353  1.00  0.00     0.097 C 
HETATM    5  C   UNL     1      39.697 -12.718   0.435  1.00  0.00     0.042 A 
HETATM    6  C   UNL     1      39.921 -14.075   0.525  1.00  0.00     0.030 A 
HETATM    7  C   UNL     1      38.902 -14.512   1.386  1.00  0.00     0.190 A 
HETATM    8  N   UNL     1      38.099 -13.539   1.799  1.00  0.00    -0.149 NA
HETATM    9  N   UNL     1      38.615 -12.442   1.220  1.00  0.00    -0.279 N 
HETATM   10  H   UNL     1      38.174 -11.547   1.405  1.00  0.00     0.189 HD
HETATM   11  C   UNL     1      41.008 -14.779  -0.211  1.00  0.00     0.074 C 
ENDROOT
BRANCH  11  12
HETATM   12  C   UNL     1      41.870 -15.514   0.808  1.00  0.00    -0.048 A 
HETATM   13  C   UNL     1      42.237 -16.848   0.538  1.00  0.00     0.011 A 
HETATM   14  C   UNL     1      43.049 -17.561   1.421  1.00  0.00     0.043 A 
HETATM   15  C   UNL     1      43.511 -16.944   2.576  1.00  0.00     0.116 A 
HETATM   16  F   UNL     1      44.294 -17.628   3.419  1.00  0.00    -0.206 F 
HETATM   17  C   UNL     1      43.175 -15.629   2.862  1.00  0.00     0.043 A 
HETATM   18  C   UNL     1      42.361 -14.915   1.981  1.00  0.00     0.011 A 
ENDBRANCH  11  12
BRANCH   1  19
HETATM   19  C   UNL     1      41.366 -14.100  -2.550  1.00  0.00     0.267 C 
HETATM   20  O   UNL     1      41.846 -13.522  -3.518  1.00  0.00    -0.265 OA
BRANCH  19  21
HETATM   21  O   UNL     1      40.435 -15.082  -2.624  1.00  0.00    -0.316 OA
BRANCH  21  22
HETATM   22  C   UNL     1      39.331 -14.856  -3.523  1.00  0.00     0.123 C 
HETATM   23  C   UNL     1      38.124 -14.338  -2.748  1.00  0.00     0.040 C 
HETATM   24  C   UNL     1      39.010 -16.194  -4.177  1.00  0.00     0.040 C 
ENDBRANCH  21  22
ENDBRANCH  19  21
ENDBRANCH   1  19
BRANCH   2  25
HETATM   25  O   UNL     1      42.700 -12.182   0.440  1.00  0.00    -0.389 OA
HETATM   26  H   UNL     1      42.989 -11.255   0.510  1.00  0.00     0.210 HD
ENDBRANCH   2  25
BRANCH   7  27
HETATM   27  O   UNL     1      38.644 -15.736   1.849  1.00  0.00    -0.343 OA
HETATM   28  H   UNL     1      37.827 -15.718   2.370  1.00  0.00     0.219 HD
ENDBRANCH   7  27
TORSDOF 6
ENDMDL
MODEL 9
REMARK VINA RESULT:      -6.7      2.310      3.127
REMARK  6 active torsions:
REMARK  status: ('A' for Active; 'I' for Inactive)
REMARK    1  A    between atoms: C_2  and  O_3 
REMARK    2  A    between atoms: O_3  and  C_4 
REMARK    3  A    between atoms: C_4  and  C_5 
REMARK    4  A    between atoms: C_6  and  O_7 
REMARK    5  A    between atoms: C_12  and  O_13 
REMARK    6  A    between atoms: C_17  and  C_18 
ROOT
HETATM    1  C   UNL     1      42.146 -14.769   5.614  1.00  0.00     0.133 C 
HETATM    2  C   UNL     1      40.626 -14.782   5.245  1.00  0.00     0.073 C 
HETATM    3  C   UNL     1      39.804 -13.781   6.072  1.00  0.00     0.047 C 
HETATM    4  C   UNL     1      40.331 -14.580   3.730  1.00  0.00     0.097 C 
HETATM    5  C   UNL     1      41.328 -15.319   2.916  1.00  0.00     0.042 A 
HETATM    6  C   UNL     1      42.553 -15.798   3.328  1.00  0.00     0.030 A 
HETATM    7  C   UNL     1      43.068 -16.400   2.168  1.00  0.00     0.190 A 
HETATM    8  N   UNL     1      42.263 -16.308   1.116  1.00  0.00    -0.149 NA
HETATM    9  N   UNL     1      41.191 -15.658   1.602  1.00  0.00    -0.279 N 
HETATM   10  H   UNL     1      40.411 -15.482   0.976  1.00  0.00     0.189 HD
HETATM   11  C   UNL     1      43.089 -15.609   4.704  1.00  0.00     0.074 C 
ENDROOT
BRANCH  11  12
HETATM   12  C   UNL     1      43.405 -16.984   5.282  1.00  0.00    -0.048 A 
HETATM   13  C   UNL     1      42.619 -18.079   4.870  1.00  0.00     0.011 A 
HETATM   14  C   UNL     1      42.880 -19.367   5.343  1.00  0.00     0.043 A 
HETATM   15  C   UNL     1      43.934 -19.572   6.222  1.00  0.00     0.116 A 
HETATM   16  F   UNL     1      44.187 -20.808   6.671  1.00  0.00    -0.206 F 
HETATM   17  C   UNL     1      44.732 -18.514   6.636  1.00  0.00     0.043 A 
HETATM   18  C   UNL     1      44.471 -17.225   6.166  1.00  0.00     0.011 A 
ENDBRANCH  11  12
BRANCH   1  19
HETATM   19  C   UNL     1      42.760 -13.388   5.714  1.00  0.00     0.267 C 
HETATM   20  O   UNL     1      42.943 -12.679   4.732  1.00  0.00    -0.265 OA
BRANCH  19  21
HETATM   21  O   UNL     1      43.003 -13.011   6.993  1.00  0.00    -0.316 OA
BRANCH  21  22
HETATM   22  C   UNL     1      44.366 -12.662   7.312  1.00  0.00     0.123 C 
HETATM   23  C   UNL     1      45.279 -13.862   7.082  1.00  0.00     0.040 C 
HETATM   24  C   UNL     1      44.387 -12.249   8.778  1.00  0.00     0.040 C 
ENDBRANCH  21  22
ENDBRANCH  19  21
ENDBRANCH   1  19
BRANCH   2  25
HETATM   25  O   UNL     1      40.087 -16.079   5.597  1.00  0.00    -0.389 OA
HETATM   26  H   UNL     1      39.115 -16.034   5.563  1.00  0.00     0.210 HD
ENDBRANCH   2  25
BRANCH   7  27
HETATM   27  O   UNL     1      44.218 -17.049   1.984  1.00  0.00    -0.343 OA
HETATM   28  H   UNL     1      44.050 -17.872   1.501  1.00  0.00     0.219 HD
ENDBRANCH   7  27
TORSDOF 6
ENDMDL
MODEL 10
REMARK VINA RESULT:      -6.7      2.818      5.252
REMARK  6 active torsions:
REMARK  status: ('A' for Active; 'I' for Inactive)
REMARK    1  A    between atoms: C_2  and  O_3 
REMARK    2  A    between atoms: O_3  and  C_4 
REMARK    3  A    between atoms: C_4  and  C_5 
REMARK    4  A    between atoms: C_6  and  O_7 
REMARK    5  A    between atoms: C_12  and  O_13 
REMARK    6  A    between atoms: C_17  and  C_18 
ROOT
HETATM    1  C   UNL     1      43.256 -17.308   3.401  1.00  0.00     0.133 C 
HETATM    2  C   UNL     1      43.426 -16.604   2.014  1.00  0.00     0.073 C 
HETATM    3  C   UNL     1      44.237 -17.444   1.015  1.00  0.00     0.047 C 
HETATM    4  C   UNL     1      42.091 -16.150   1.356  1.00  0.00     0.097 C 
HETATM    5  C   UNL     1      41.176 -15.605   2.390  1.00  0.00     0.042 A 
HETATM    6  C   UNL     1      41.251 -15.789   3.754  1.00  0.00     0.030 A 
HETATM    7  C   UNL     1      40.149 -15.065   4.237  1.00  0.00     0.190 A 
HETATM    8  N   UNL     1      39.432 -14.484   3.282  1.00  0.00    -0.149 NA
HETATM    9  N   UNL     1      40.090 -14.811   2.157  1.00  0.00    -0.279 N 
HETATM   10  H   UNL     1      39.737 -14.459   1.273  1.00  0.00     0.189 HD
HETATM   11  C   UNL     1      42.293 -16.624   4.414  1.00  0.00     0.074 C 
ENDROOT
BRANCH  11  12
HETATM   12  C   UNL     1      43.020 -15.754   5.432  1.00  0.00    -0.048 A 
HETATM   13  C   UNL     1      43.344 -16.315   6.684  1.00  0.00     0.011 A 
HETATM   14  C   UNL     1      44.036 -15.575   7.644  1.00  0.00     0.043 A 
HETATM   15  C   UNL     1      44.419 -14.272   7.358  1.00  0.00     0.116 A 
HETATM   16  F   UNL     1      45.087 -13.564   8.278  1.00  0.00    -0.206 F 
HETATM   17  C   UNL     1      44.123 -13.696   6.130  1.00  0.00     0.043 A 
HETATM   18  C   UNL     1      43.429 -14.434   5.169  1.00  0.00     0.011 A 
ENDBRANCH  11  12
BRANCH   1  19
HETATM   19  C   UNL     1      42.839 -18.763   3.323  1.00  0.00     0.267 C 
HETATM   20  O   UNL     1      42.187 -19.209   2.387  1.00  0.00    -0.265 OA
BRANCH  19  21
HETATM   21  O   UNL     1      43.326 -19.506   4.347  1.00  0.00    -0.316 OA
BRANCH  21  22
HETATM   22  C   UNL     1      44.620 -20.109   4.145  1.00  0.00     0.123 C 
HETATM   23  C   UNL     1      44.697 -20.727   2.752  1.00  0.00     0.040 C 
HETATM   24  C   UNL     1      44.782 -21.182   5.214  1.00  0.00     0.040 C 
ENDBRANCH  21  22
ENDBRANCH  19  21
ENDBRANCH   1  19
BRANCH   2  25
HETATM   25  O   UNL     1      44.214 -15.406   2.210  1.00  0.00    -0.389 OA
HETATM   26  H   UNL     1      45.098 -15.661   2.529  1.00  0.00     0.210 HD
ENDBRANCH   2  25
BRANCH   7  27
HETATM   27  O   UNL     1      39.740 -14.871   5.492  1.00  0.00    -0.343 OA
HETATM   28  H   UNL     1      39.175 -15.609   5.764  1.00  0.00     0.219 HD
ENDBRANCH   7  27
TORSDOF 6
ENDMDL
