MODEL 1
REMARK VINA RESULT:      -8.9      0.000      0.000
REMARK  8 active torsions:
REMARK  status: ('A' for Active; 'I' for Inactive)
REMARK    1  A    between atoms: C_5  and  C_6 
REMARK    2  A    between atoms: C_6  and  N_7 
REMARK       I    between atoms: N_7  and  C_8 
REMARK    3  A    between atoms: C_8  and  C_9 
REMARK    4  A    between atoms: C_9  and  S_10 
REMARK    5  A    between atoms: S_10  and  C_11 
REMARK    6  A    between atoms: C_13  and  N_14 
REMARK    7  A    between atoms: C_15  and  N_16 
REMARK       I    between atoms: N_16  and  C_17 
REMARK    8  A    between atoms: C_17  and  C_18 
ROOT
HETATM    1  C   UNL     1      40.640 -14.537   3.096  1.00  0.00     0.171 C 
HETATM    2  N   UNL     1      40.366 -14.980   4.273  1.00  0.00    -0.210 NA
HETATM    3  C   UNL     1      41.189 -14.598   5.301  1.00  0.00     0.136 C 
HETATM    4  C   UNL     1      42.315 -13.868   5.110  1.00  0.00     0.144 C 
HETATM    5  C   UNL     1      42.727 -13.662   3.688  1.00  0.00     0.277 C 
HETATM    6  O   UNL     1      43.890 -13.548   3.319  1.00  0.00    -0.266 OA
HETATM    7  N   UNL     1      41.716 -13.780   2.784  1.00  0.00    -0.300 N 
HETATM    8  H   UNL     1      41.954 -13.651   1.813  1.00  0.00     0.171 HD
ENDROOT
BRANCH   1   9
HETATM    9  S   UNL     1      39.615 -14.859   1.734  1.00  0.00    -0.083 SA
BRANCH   9  10
HETATM   10  C   UNL     1      40.867 -15.257   0.484  1.00  0.00     0.185 C 
BRANCH  10  11
HETATM   11  C   UNL     1      41.579 -16.585   0.691  1.00  0.00     0.227 C 
HETATM   12  N   UNL     1      42.945 -16.529   0.853  1.00  0.00    -0.356 N 
HETATM   13  H   UNL     1      43.413 -15.720   0.458  1.00  0.00     0.162 HD
HETATM   14  O   UNL     1      40.943 -17.633   0.799  1.00  0.00    -0.273 OA
BRANCH  12  15
HETATM   15  C   UNL     1      43.703 -17.756   0.926  1.00  0.00     0.161 C 
BRANCH  15  16
HETATM   16  C   UNL     1      43.868 -18.239   2.342  1.00  0.00    -0.041 A 
HETATM   17  C   UNL     1      43.614 -17.384   3.423  1.00  0.00     0.009 A 
HETATM   18  C   UNL     1      43.712 -17.848   4.737  1.00  0.00     0.007 A 
HETATM   19  C   UNL     1      44.067 -19.176   4.995  1.00  0.00    -0.062 A 
HETATM   20  C   UNL     1      44.126 -19.697   6.401  1.00  0.00     0.048 C 
HETATM   21  C   UNL     1      44.316 -20.034   3.918  1.00  0.00     0.007 A 
HETATM   22  C   UNL     1      44.221 -19.569   2.604  1.00  0.00     0.009 A 
ENDBRANCH  15  16
ENDBRANCH  12  15
ENDBRANCH  10  11
ENDBRANCH   9  10
ENDBRANCH   1   9
BRANCH   3  23
HETATM   23  N   UNL     1      40.791 -14.953   6.585  1.00  0.00    -0.285 NA
HETATM   24  H   UNL     1      39.840 -14.603   6.705  1.00  0.00     0.125 HD
HETATM   25  H   UNL     1      40.764 -15.968   6.675  1.00  0.00     0.125 HD
ENDBRANCH   3  23
BRANCH   4  26
HETATM   26  N   UNL     1      43.015 -13.368   6.188  1.00  0.00    -0.314 N 
HETATM   27  C   UNL     1      44.071 -13.963   6.850  1.00  0.00     0.280 C 
HETATM   28  O   UNL     1      44.542 -15.061   6.583  1.00  0.00    -0.265 OA
HETATM   29  H   UNL     1      42.917 -12.369   6.347  1.00  0.00     0.169 HD
BRANCH  27  30
HETATM   30  C   UNL     1      44.652 -13.104   7.866  1.00  0.00     0.144 A 
HETATM   31  O   UNL     1      43.834 -12.498   8.785  1.00  0.00    -0.298 OA
HETATM   32  C   UNL     1      44.625 -11.723   9.575  1.00  0.00     0.122 A 
HETATM   33 BR   UNL     1      43.988 -10.663  10.971  1.00  0.00    -0.023 Br
HETATM   34  C   UNL     1      45.941 -11.829   9.191  1.00  0.00     0.048 A 
HETATM   35  C   UNL     1      45.961 -12.720   8.090  1.00  0.00     0.046 A 
ENDBRANCH  27  30
ENDBRANCH   4  26
TORSDOF 8
ENDMDL
MODEL 2
REMARK VINA RESULT:      -8.7      4.310      7.699
REMARK  8 active torsions:
REMARK  status: ('A' for Active; 'I' for Inactive)
REMARK    1  A    between atoms: C_5  and  C_6 
REMARK    2  A    between atoms: C_6  and  N_7 
REMARK       I    between atoms: N_7  and  C_8 
REMARK    3  A    between atoms: C_8  and  C_9 
REMARK    4  A    between atoms: C_9  and  S_10 
REMARK    5  A    between atoms: S_10  and  C_11 
REMARK    6  A    between atoms: C_13  and  N_14 
REMARK    7  A    between atoms: C_15  and  N_16 
REMARK       I    between atoms: N_16  and  C_17 
REMARK    8  A    between atoms: C_17  and  C_18 
ROOT
HETATM    1  C   UNL     1      42.733 -14.998   3.640  1.00  0.00     0.171 C 
HETATM    2  N   UNL     1      43.173 -15.826   2.758  1.00  0.00    -0.210 NA
HETATM    3  C   UNL     1      42.446 -15.969   1.604  1.00  0.00     0.136 C 
HETATM    4  C   UNL     1      41.253 -15.358   1.406  1.00  0.00     0.144 C 
HETATM    5  C   UNL     1      40.666 -14.668   2.595  1.00  0.00     0.277 C 
HETATM    6  O   UNL     1      39.463 -14.556   2.800  1.00  0.00    -0.266 OA
HETATM    7  N   UNL     1      41.573 -14.310   3.545  1.00  0.00    -0.300 N 
HETATM    8  H   UNL     1      41.216 -13.844   4.364  1.00  0.00     0.171 HD
ENDROOT
BRANCH   1   9
HETATM    9  S   UNL     1      43.616 -14.648   5.091  1.00  0.00    -0.083 SA
BRANCH   9  10
HETATM   10  C   UNL     1      42.589 -15.520   6.304  1.00  0.00     0.185 C 
BRANCH  10  11
HETATM   11  C   UNL     1      43.078 -16.910   6.677  1.00  0.00     0.227 C 
HETATM   12  N   UNL     1      44.183 -17.373   5.999  1.00  0.00    -0.356 N 
HETATM   13  H   UNL     1      44.355 -16.967   5.086  1.00  0.00     0.162 HD
HETATM   14  O   UNL     1      42.561 -17.535   7.602  1.00  0.00    -0.273 OA
BRANCH  12  15
HETATM   15  C   UNL     1      44.628 -18.732   6.208  1.00  0.00     0.161 C 
BRANCH  15  16
HETATM   16  C   UNL     1      44.449 -19.584   4.980  1.00  0.00    -0.041 A 
HETATM   17  C   UNL     1      43.969 -19.026   3.788  1.00  0.00     0.009 A 
HETATM   18  C   UNL     1      43.857 -19.804   2.632  1.00  0.00     0.007 A 
HETATM   19  C   UNL     1      44.221 -21.154   2.648  1.00  0.00    -0.062 A 
HETATM   20  C   UNL     1      44.151 -21.984   1.401  1.00  0.00     0.048 C 
HETATM   21  C   UNL     1      44.706 -21.712   3.836  1.00  0.00     0.007 A 
HETATM   22  C   UNL     1      44.816 -20.936   4.992  1.00  0.00     0.009 A 
ENDBRANCH  15  16
ENDBRANCH  12  15
ENDBRANCH  10  11
ENDBRANCH   9  10
ENDBRANCH   1   9
BRANCH   3  23
HETATM   23  N   UNL     1      43.015 -16.744   0.600  1.00  0.00    -0.285 NA
HETATM   24  H   UNL     1      43.268 -17.636   1.025  1.00  0.00     0.125 HD
HETATM   25  H   UNL     1      42.329 -16.930  -0.130  1.00  0.00     0.125 HD
ENDBRANCH   3  23
BRANCH   4  26
HETATM   26  N   UNL     1      40.644 -15.397   0.168  1.00  0.00    -0.314 N 
HETATM   27  C   UNL     1      40.845 -14.534  -0.891  1.00  0.00     0.280 C 
HETATM   28  O   UNL     1      41.598 -13.569  -0.882  1.00  0.00    -0.265 OA
HETATM   29  H   UNL     1      40.206 -16.281  -0.075  1.00  0.00     0.169 HD
BRANCH  27  30
HETATM   30  C   UNL     1      40.129 -14.939  -2.087  1.00  0.00     0.144 A 
HETATM   31  O   UNL     1      38.896 -14.397  -2.351  1.00  0.00    -0.298 OA
HETATM   32  C   UNL     1      38.438 -14.982  -3.491  1.00  0.00     0.122 A 
HETATM   33 BR   UNL     1      36.782 -14.608  -4.263  1.00  0.00    -0.023 Br
HETATM   34  C   UNL     1      39.358 -15.881  -3.975  1.00  0.00     0.048 A 
HETATM   35  C   UNL     1      40.450 -15.854  -3.072  1.00  0.00     0.046 A 
ENDBRANCH  27  30
ENDBRANCH   4  26
TORSDOF 8
ENDMDL
MODEL 3
REMARK VINA RESULT:      -8.6      4.102      7.754
REMARK  8 active torsions:
REMARK  status: ('A' for Active; 'I' for Inactive)
REMARK    1  A    between atoms: C_5  and  C_6 
REMARK    2  A    between atoms: C_6  and  N_7 
REMARK       I    between atoms: N_7  and  C_8 
REMARK    3  A    between atoms: C_8  and  C_9 
REMARK    4  A    between atoms: C_9  and  S_10 
REMARK    5  A    between atoms: S_10  and  C_11 
REMARK    6  A    between atoms: C_13  and  N_14 
REMARK    7  A    between atoms: C_15  and  N_16 
REMARK       I    between atoms: N_16  and  C_17 
REMARK    8  A    between atoms: C_17  and  C_18 
ROOT
HETATM    1  C   UNL     1      40.591 -15.077   4.069  1.00  0.00     0.171 C 
HETATM    2  N   UNL     1      40.410 -13.951   3.473  1.00  0.00    -0.210 NA
HETATM    3  C   UNL     1      40.156 -13.981   2.126  1.00  0.00     0.136 C 
HETATM    4  C   UNL     1      40.188 -15.123   1.396  1.00  0.00     0.144 C 
HETATM    5  C   UNL     1      40.710 -16.334   2.099  1.00  0.00     0.277 C 
HETATM    6  O   UNL     1      41.314 -17.244   1.545  1.00  0.00    -0.266 OA
HETATM    7  N   UNL     1      40.617 -16.282   3.457  1.00  0.00    -0.300 N 
HETATM    8  H   UNL     1      40.962 -17.079   3.969  1.00  0.00     0.171 HD
ENDROOT
BRANCH   1   9
HETATM    9  S   UNL     1      40.812 -15.179   5.786  1.00  0.00    -0.083 SA
BRANCH   9  10
HETATM   10  C   UNL     1      42.494 -14.516   5.928  1.00  0.00     0.185 C 
BRANCH  10  11
HETATM   11  C   UNL     1      43.575 -15.558   6.164  1.00  0.00     0.227 C 
HETATM   12  N   UNL     1      43.415 -16.765   5.521  1.00  0.00    -0.356 N 
HETATM   13  H   UNL     1      42.466 -17.019   5.268  1.00  0.00     0.162 HD
HETATM   14  O   UNL     1      44.580 -15.289   6.822  1.00  0.00    -0.273 OA
BRANCH  12  15
HETATM   15  C   UNL     1      44.333 -17.845   5.797  1.00  0.00     0.161 C 
BRANCH  15  16
HETATM   16  C   UNL     1      44.346 -18.874   4.699  1.00  0.00    -0.041 A 
HETATM   17  C   UNL     1      44.771 -20.185   4.953  1.00  0.00     0.009 A 
HETATM   18  C   UNL     1      44.729 -21.155   3.949  1.00  0.00     0.007 A 
HETATM   19  C   UNL     1      44.264 -20.833   2.670  1.00  0.00    -0.062 A 
HETATM   20  C   UNL     1      44.168 -21.879   1.600  1.00  0.00     0.048 C 
HETATM   21  C   UNL     1      43.833 -19.526   2.414  1.00  0.00     0.007 A 
HETATM   22  C   UNL     1      43.877 -18.555   3.418  1.00  0.00     0.009 A 
ENDBRANCH  15  16
ENDBRANCH  12  15
ENDBRANCH  10  11
ENDBRANCH   9  10
ENDBRANCH   1   9
BRANCH   3  23
HETATM   23  N   UNL     1      39.808 -12.774   1.528  1.00  0.00    -0.285 NA
HETATM   24  H   UNL     1      38.910 -12.924   1.068  1.00  0.00     0.125 HD
HETATM   25  H   UNL     1      39.679 -12.056   2.239  1.00  0.00     0.125 HD
ENDBRANCH   3  23
BRANCH   4  26
HETATM   26  N   UNL     1      39.762 -15.126   0.084  1.00  0.00    -0.314 N 
HETATM   27  C   UNL     1      40.513 -14.853  -1.041  1.00  0.00     0.280 C 
HETATM   28  O   UNL     1      41.697 -14.540  -1.040  1.00  0.00    -0.265 OA
HETATM   29  H   UNL     1      38.891 -15.619  -0.091  1.00  0.00     0.169 HD
BRANCH  27  30
HETATM   30  C   UNL     1      39.776 -15.065  -2.274  1.00  0.00     0.144 A 
HETATM   31  O   UNL     1      38.578 -14.426  -2.462  1.00  0.00    -0.298 OA
HETATM   32  C   UNL     1      38.087 -14.838  -3.662  1.00  0.00     0.122 A 
HETATM   33 BR   UNL     1      36.456 -14.277  -4.372  1.00  0.00    -0.023 Br
HETATM   34  C   UNL     1      38.955 -15.722  -4.259  1.00  0.00     0.048 A 
HETATM   35  C   UNL     1      40.045 -15.869  -3.366  1.00  0.00     0.046 A 
ENDBRANCH  27  30
ENDBRANCH   4  26
TORSDOF 8
ENDMDL
MODEL 4
REMARK VINA RESULT:      -8.5      4.167      8.975
REMARK  8 active torsions:
REMARK  status: ('A' for Active; 'I' for Inactive)
REMARK    1  A    between atoms: C_5  and  C_6 
REMARK    2  A    between atoms: C_6  and  N_7 
REMARK       I    between atoms: N_7  and  C_8 
REMARK    3  A    between atoms: C_8  and  C_9 
REMARK    4  A    between atoms: C_9  and  S_10 
REMARK    5  A    between atoms: S_10  and  C_11 
REMARK    6  A    between atoms: C_13  and  N_14 
REMARK    7  A    between atoms: C_15  and  N_16 
REMARK       I    between atoms: N_16  and  C_17 
REMARK    8  A    between atoms: C_17  and  C_18 
ROOT
HETATM    1  C   UNL     1      40.686 -12.237   5.474  1.00  0.00     0.171 C 
HETATM    2  N   UNL     1      40.018 -13.292   5.784  1.00  0.00    -0.210 NA
HETATM    3  C   UNL     1      40.551 -14.506   5.435  1.00  0.00     0.136 C 
HETATM    4  C   UNL     1      41.684 -14.628   4.701  1.00  0.00     0.144 C 
HETATM    5  C   UNL     1      42.226 -13.363   4.119  1.00  0.00     0.277 C 
HETATM    6  O   UNL     1      42.837 -13.301   3.059  1.00  0.00    -0.266 OA
HETATM    7  N   UNL     1      41.841 -12.231   4.771  1.00  0.00    -0.300 N 
HETATM    8  H   UNL     1      42.184 -11.356   4.407  1.00  0.00     0.171 HD
ENDROOT
BRANCH   1   9
HETATM    9  S   UNL     1      40.174 -10.652   5.956  1.00  0.00    -0.083 SA
BRANCH   9  10
HETATM   10  C   UNL     1      40.214 -10.842   7.759  1.00  0.00     0.185 C 
BRANCH  10  11
HETATM   11  C   UNL     1      41.575 -10.616   8.397  1.00  0.00     0.227 C 
HETATM   12  N   UNL     1      41.769 -11.171   9.641  1.00  0.00    -0.356 N 
HETATM   13  H   UNL     1      40.936 -11.342  10.194  1.00  0.00     0.162 HD
HETATM   14  O   UNL     1      42.475 -10.046   7.780  1.00  0.00    -0.273 OA
BRANCH  12  15
HETATM   15  C   UNL     1      42.989 -10.891  10.363  1.00  0.00     0.161 C 
BRANCH  15  16
HETATM   16  C   UNL     1      42.731 -10.559  11.808  1.00  0.00    -0.041 A 
HETATM   17  C   UNL     1      43.634  -9.768  12.531  1.00  0.00     0.009 A 
HETATM   18  C   UNL     1      43.367  -9.412  13.855  1.00  0.00     0.007 A 
HETATM   19  C   UNL     1      42.193  -9.841  14.483  1.00  0.00    -0.062 A 
HETATM   20  C   UNL     1      41.873  -9.422  15.887  1.00  0.00     0.048 C 
HETATM   21  C   UNL     1      41.286 -10.626  13.761  1.00  0.00     0.007 A 
HETATM   22  C   UNL     1      41.554 -10.984  12.438  1.00  0.00     0.009 A 
ENDBRANCH  15  16
ENDBRANCH  12  15
ENDBRANCH  10  11
ENDBRANCH   9  10
ENDBRANCH   1   9
BRANCH   3  23
HETATM   23  N   UNL     1      39.897 -15.636   5.913  1.00  0.00    -0.285 NA
HETATM   24  H   UNL     1      40.001 -15.627   6.928  1.00  0.00     0.125 HD
HETATM   25  H   UNL     1      38.902 -15.581   5.701  1.00  0.00     0.125 HD
ENDBRANCH   3  23
BRANCH   4  26
HETATM   26  N   UNL     1      42.269 -15.864   4.521  1.00  0.00    -0.314 N 
HETATM   27  C   UNL     1      42.017 -16.770   3.510  1.00  0.00     0.280 C 
HETATM   28  O   UNL     1      41.201 -16.615   2.610  1.00  0.00    -0.265 OA
HETATM   29  H   UNL     1      43.140 -16.012   5.023  1.00  0.00     0.169 HD
BRANCH  27  30
HETATM   30  C   UNL     1      42.899 -17.923   3.556  1.00  0.00     0.144 A 
HETATM   31  O   UNL     1      42.794 -18.891   2.590  1.00  0.00    -0.298 OA
HETATM   32  C   UNL     1      43.692 -19.865   2.900  1.00  0.00     0.122 A 
HETATM   33 BR   UNL     1      43.925 -21.426   1.906  1.00  0.00    -0.023 Br
HETATM   34  C   UNL     1      44.384 -19.536   4.042  1.00  0.00     0.048 A 
HETATM   35  C   UNL     1      43.875 -18.284   4.466  1.00  0.00     0.046 A 
ENDBRANCH  27  30
ENDBRANCH   4  26
TORSDOF 8
ENDMDL
MODEL 5
REMARK VINA RESULT:      -8.4      3.872      8.444
REMARK  8 active torsions:
REMARK  status: ('A' for Active; 'I' for Inactive)
REMARK    1  A    between atoms: C_5  and  C_6 
REMARK    2  A    between atoms: C_6  and  N_7 
REMARK       I    between atoms: N_7  and  C_8 
REMARK    3  A    between atoms: C_8  and  C_9 
REMARK    4  A    between atoms: C_9  and  S_10 
REMARK    5  A    between atoms: S_10  and  C_11 
REMARK    6  A    between atoms: C_13  and  N_14 
REMARK    7  A    between atoms: C_15  and  N_16 
REMARK       I    between atoms: N_16  and  C_17 
REMARK    8  A    between atoms: C_17  and  C_18 
ROOT
HETATM    1  C   UNL     1      41.096 -12.887   4.581  1.00  0.00     0.171 C 
HETATM    2  N   UNL     1      40.411 -13.920   4.235  1.00  0.00    -0.210 NA
HETATM    3  C   UNL     1      41.095 -15.085   4.000  1.00  0.00     0.136 C 
HETATM    4  C   UNL     1      42.448 -15.160   4.021  1.00  0.00     0.144 C 
HETATM    5  C   UNL     1      43.175 -13.858   4.121  1.00  0.00     0.277 C 
HETATM    6  O   UNL     1      44.275 -13.645   3.626  1.00  0.00    -0.266 OA
HETATM    7  N   UNL     1      42.445 -12.845   4.664  1.00  0.00    -0.300 N 
HETATM    8  H   UNL     1      42.899 -11.949   4.747  1.00  0.00     0.171 HD
ENDROOT
BRANCH   1   9
HETATM    9  S   UNL     1      40.339 -11.387   5.011  1.00  0.00    -0.083 SA
BRANCH   9  10
HETATM   10  C   UNL     1      40.418 -11.501   6.819  1.00  0.00     0.185 C 
BRANCH  10  11
HETATM   11  C   UNL     1      41.563 -10.733   7.460  1.00  0.00     0.227 C 
HETATM   12  N   UNL     1      42.154 -11.318   8.557  1.00  0.00    -0.356 N 
HETATM   13  H   UNL     1      41.586 -11.976   9.079  1.00  0.00     0.162 HD
HETATM   14  O   UNL     1      41.986  -9.693   6.957  1.00  0.00    -0.273 OA
BRANCH  12  15
HETATM   15  C   UNL     1      43.161 -10.590   9.294  1.00  0.00     0.161 C 
BRANCH  15  16
HETATM   16  C   UNL     1      42.841 -10.506  10.762  1.00  0.00    -0.041 A 
HETATM   17  C   UNL     1      43.788 -10.021  11.674  1.00  0.00     0.009 A 
HETATM   18  C   UNL     1      43.472  -9.890  13.028  1.00  0.00     0.007 A 
HETATM   19  C   UNL     1      42.203 -10.243  13.498  1.00  0.00    -0.062 A 
HETATM   20  C   UNL     1      41.837 -10.058  14.940  1.00  0.00     0.048 C 
HETATM   21  C   UNL     1      41.252 -10.722  12.589  1.00  0.00     0.007 A 
HETATM   22  C   UNL     1      41.569 -10.856  11.235  1.00  0.00     0.009 A 
ENDBRANCH  15  16
ENDBRANCH  12  15
ENDBRANCH  10  11
ENDBRANCH   9  10
ENDBRANCH   1   9
BRANCH   3  23
HETATM   23  N   UNL     1      40.330 -16.225   3.782  1.00  0.00    -0.285 NA
HETATM   24  H   UNL     1      40.695 -16.666   2.937  1.00  0.00     0.125 HD
HETATM   25  H   UNL     1      40.450 -16.880   4.553  1.00  0.00     0.125 HD
ENDBRANCH   3  23
BRANCH   4  26
HETATM   26  N   UNL     1      43.081 -16.384   3.946  1.00  0.00    -0.314 N 
HETATM   27  C   UNL     1      43.617 -17.114   4.987  1.00  0.00     0.280 C 
HETATM   28  O   UNL     1      43.628 -16.766   6.161  1.00  0.00    -0.265 OA
HETATM   29  H   UNL     1      42.913 -16.911   3.094  1.00  0.00     0.169 HD
BRANCH  27  30
HETATM   30  C   UNL     1      44.103 -18.417   4.569  1.00  0.00     0.144 A 
HETATM   31  O   UNL     1      43.656 -18.956   3.390  1.00  0.00    -0.298 OA
HETATM   32  C   UNL     1      44.225 -20.186   3.270  1.00  0.00     0.122 A 
HETATM   33 BR   UNL     1      43.914 -21.347   1.844  1.00  0.00    -0.023 Br
HETATM   34  C   UNL     1      45.043 -20.445   4.345  1.00  0.00     0.048 A 
HETATM   35  C   UNL     1      44.966 -19.305   5.183  1.00  0.00     0.046 A 
ENDBRANCH  27  30
ENDBRANCH   4  26
TORSDOF 8
ENDMDL
MODEL 6
REMARK VINA RESULT:      -8.4      4.349      7.502
REMARK  8 active torsions:
REMARK  status: ('A' for Active; 'I' for Inactive)
REMARK    1  A    between atoms: C_5  and  C_6 
REMARK    2  A    between atoms: C_6  and  N_7 
REMARK       I    between atoms: N_7  and  C_8 
REMARK    3  A    between atoms: C_8  and  C_9 
REMARK    4  A    between atoms: C_9  and  S_10 
REMARK    5  A    between atoms: S_10  and  C_11 
REMARK    6  A    between atoms: C_13  and  N_14 
REMARK    7  A    between atoms: C_15  and  N_16 
REMARK       I    between atoms: N_16  and  C_17 
REMARK    8  A    between atoms: C_17  and  C_18 
ROOT
HETATM    1  C   UNL     1      42.699 -14.606   4.050  1.00  0.00     0.171 C 
HETATM    2  N   UNL     1      41.636 -15.323   3.939  1.00  0.00    -0.210 NA
HETATM    3  C   UNL     1      40.985 -15.309   2.732  1.00  0.00     0.136 C 
HETATM    4  C   UNL     1      41.357 -14.506   1.705  1.00  0.00     0.144 C 
HETATM    5  C   UNL     1      42.401 -13.484   2.018  1.00  0.00     0.277 C 
HETATM    6  O   UNL     1      42.474 -12.387   1.477  1.00  0.00    -0.266 OA
HETATM    7  N   UNL     1      43.185 -13.788   3.089  1.00  0.00    -0.300 N 
HETATM    8  H   UNL     1      43.901 -13.121   3.335  1.00  0.00     0.171 HD
ENDROOT
BRANCH   1   9
HETATM    9  S   UNL     1      43.671 -14.623   5.486  1.00  0.00    -0.083 SA
BRANCH   9  10
HETATM   10  C   UNL     1      42.609 -15.612   6.574  1.00  0.00     0.185 C 
BRANCH  10  11
HETATM   11  C   UNL     1      43.140 -16.998   6.901  1.00  0.00     0.227 C 
HETATM   12  N   UNL     1      44.202 -17.441   6.145  1.00  0.00    -0.356 N 
HETATM   13  H   UNL     1      44.306 -17.026   5.225  1.00  0.00     0.162 HD
HETATM   14  O   UNL     1      42.696 -17.637   7.854  1.00  0.00    -0.273 OA
BRANCH  12  15
HETATM   15  C   UNL     1      44.678 -18.795   6.311  1.00  0.00     0.161 C 
BRANCH  15  16
HETATM   16  C   UNL     1      44.579 -19.593   5.039  1.00  0.00    -0.041 A 
HETATM   17  C   UNL     1      44.839 -20.969   5.037  1.00  0.00     0.009 A 
HETATM   18  C   UNL     1      44.692 -21.721   3.869  1.00  0.00     0.007 A 
HETATM   19  C   UNL     1      44.282 -21.110   2.680  1.00  0.00    -0.062 A 
HETATM   20  C   UNL     1      44.072 -21.917   1.433  1.00  0.00     0.048 C 
HETATM   21  C   UNL     1      44.015 -19.736   2.679  1.00  0.00     0.007 A 
HETATM   22  C   UNL     1      44.165 -18.984   3.847  1.00  0.00     0.009 A 
ENDBRANCH  15  16
ENDBRANCH  12  15
ENDBRANCH  10  11
ENDBRANCH   9  10
ENDBRANCH   1   9
BRANCH   3  23
HETATM   23  N   UNL     1      39.934 -16.206   2.579  1.00  0.00    -0.285 NA
HETATM   24  H   UNL     1      39.241 -15.969   3.290  1.00  0.00     0.125 HD
HETATM   25  H   UNL     1      39.499 -16.083   1.666  1.00  0.00     0.125 HD
ENDBRANCH   3  23
BRANCH   4  26
HETATM   26  N   UNL     1      40.779 -14.651   0.461  1.00  0.00    -0.314 N 
HETATM   27  C   UNL     1      39.768 -13.886  -0.087  1.00  0.00     0.280 C 
HETATM   28  O   UNL     1      39.208 -12.952   0.472  1.00  0.00    -0.265 OA
HETATM   29  H   UNL     1      41.312 -15.200  -0.208  1.00  0.00     0.169 HD
BRANCH  27  30
HETATM   30  C   UNL     1      39.482 -14.238  -1.466  1.00  0.00     0.144 A 
HETATM   31  O   UNL     1      38.207 -14.088  -1.949  1.00  0.00    -0.298 OA
HETATM   32  C   UNL     1      38.211 -14.534  -3.235  1.00  0.00     0.122 A 
HETATM   33 BR   UNL     1      36.703 -14.568  -4.332  1.00  0.00    -0.023 Br
HETATM   34  C   UNL     1      39.469 -14.957  -3.594  1.00  0.00     0.048 A 
HETATM   35  C   UNL     1      40.290 -14.767  -2.456  1.00  0.00     0.046 A 
ENDBRANCH  27  30
ENDBRANCH   4  26
TORSDOF 8
ENDMDL
MODEL 7
REMARK VINA RESULT:      -8.3      3.968      7.042
REMARK  8 active torsions:
REMARK  status: ('A' for Active; 'I' for Inactive)
REMARK    1  A    between atoms: C_5  and  C_6 
REMARK    2  A    between atoms: C_6  and  N_7 
REMARK       I    between atoms: N_7  and  C_8 
REMARK    3  A    between atoms: C_8  and  C_9 
REMARK    4  A    between atoms: C_9  and  S_10 
REMARK    5  A    between atoms: S_10  and  C_11 
REMARK    6  A    between atoms: C_13  and  N_14 
REMARK    7  A    between atoms: C_15  and  N_16 
REMARK       I    between atoms: N_16  and  C_17 
REMARK    8  A    between atoms: C_17  and  C_18 
ROOT
HETATM    1  C   UNL     1      41.161 -15.563   4.215  1.00  0.00     0.171 C 
HETATM    2  N   UNL     1      41.932 -14.559   3.985  1.00  0.00    -0.210 NA
HETATM    3  C   UNL     1      42.115 -14.186   2.678  1.00  0.00     0.136 C 
HETATM    4  C   UNL     1      41.604 -14.885   1.635  1.00  0.00     0.144 C 
HETATM    5  C   UNL     1      40.988 -16.205   1.971  1.00  0.00     0.277 C 
HETATM    6  O   UNL     1      40.981 -17.172   1.219  1.00  0.00    -0.266 OA
HETATM    7  N   UNL     1      40.571 -16.321   3.262  1.00  0.00    -0.300 N 
HETATM    8  H   UNL     1      40.152 -17.198   3.530  1.00  0.00     0.171 HD
ENDROOT
BRANCH   1   9
HETATM    9  S   UNL     1      40.764 -16.064   5.827  1.00  0.00    -0.083 SA
BRANCH   9  10
HETATM   10  C   UNL     1      42.372 -15.835   6.634  1.00  0.00     0.185 C 
BRANCH  10  11
HETATM   11  C   UNL     1      43.175 -17.110   6.835  1.00  0.00     0.227 C 
HETATM   12  N   UNL     1      44.209 -17.329   5.953  1.00  0.00    -0.356 N 
HETATM   13  H   UNL     1      44.135 -16.875   5.049  1.00  0.00     0.162 HD
HETATM   14  O   UNL     1      42.959 -17.848   7.796  1.00  0.00    -0.273 OA
BRANCH  12  15
HETATM   15  C   UNL     1      44.933 -18.578   6.002  1.00  0.00     0.161 C 
BRANCH  15  16
HETATM   16  C   UNL     1      44.632 -19.457   4.818  1.00  0.00    -0.041 A 
HETATM   17  C   UNL     1      44.095 -18.914   3.643  1.00  0.00     0.009 A 
HETATM   18  C   UNL     1      43.869 -19.719   2.524  1.00  0.00     0.007 A 
HETATM   19  C   UNL     1      44.175 -21.084   2.559  1.00  0.00    -0.062 A 
HETATM   20  C   UNL     1      43.983 -21.946   1.347  1.00  0.00     0.048 C 
HETATM   21  C   UNL     1      44.717 -21.628   3.729  1.00  0.00     0.007 A 
HETATM   22  C   UNL     1      44.940 -20.823   4.849  1.00  0.00     0.009 A 
ENDBRANCH  15  16
ENDBRANCH  12  15
ENDBRANCH  10  11
ENDBRANCH   9  10
ENDBRANCH   1   9
BRANCH   3  23
HETATM   23  N   UNL     1      42.821 -13.009   2.457  1.00  0.00    -0.285 NA
HETATM   24  H   UNL     1      43.240 -13.088   1.530  1.00  0.00     0.125 HD
HETATM   25  H   UNL     1      42.183 -12.215   2.445  1.00  0.00     0.125 HD
ENDBRANCH   3  23
BRANCH   4  26
HETATM   26  N   UNL     1      41.672 -14.378   0.354  1.00  0.00    -0.314 N 
HETATM   27  C   UNL     1      40.620 -13.977  -0.445  1.00  0.00     0.280 C 
HETATM   28  O   UNL     1      39.437 -14.030  -0.133  1.00  0.00    -0.265 OA
HETATM   29  H   UNL     1      42.584 -14.031   0.070  1.00  0.00     0.169 HD
BRANCH  27  30
HETATM   30  C   UNL     1      41.058 -13.380  -1.694  1.00  0.00     0.144 A 
HETATM   31  O   UNL     1      41.514 -12.087  -1.700  1.00  0.00    -0.298 OA
HETATM   32  C   UNL     1      41.807 -11.772  -2.991  1.00  0.00     0.122 A 
HETATM   33 BR   UNL     1      42.442 -10.106  -3.540  1.00  0.00    -0.023 Br
HETATM   34  C   UNL     1      41.561 -12.843  -3.816  1.00  0.00     0.048 A 
HETATM   35  C   UNL     1      41.079 -13.882  -2.982  1.00  0.00     0.046 A 
ENDBRANCH  27  30
ENDBRANCH   4  26
TORSDOF 8
ENDMDL
MODEL 8
REMARK VINA RESULT:      -7.9      3.819      6.517
REMARK  8 active torsions:
REMARK  status: ('A' for Active; 'I' for Inactive)
REMARK    1  A    between atoms: C_5  and  C_6 
REMARK    2  A    between atoms: C_6  and  N_7 
REMARK       I    between atoms: N_7  and  C_8 
REMARK    3  A    between atoms: C_8  and  C_9 
REMARK    4  A    between atoms: C_9  and  S_10 
REMARK    5  A    between atoms: S_10  and  C_11 
REMARK    6  A    between atoms: C_13  and  N_14 
REMARK    7  A    between atoms: C_15  and  N_16 
REMARK       I    between atoms: N_16  and  C_17 
REMARK    8  A    between atoms: C_17  and  C_18 
ROOT
HETATM    1  C   UNL     1      42.922 -13.497   5.684  1.00  0.00     0.171 C 
HETATM    2  N   UNL     1      43.343 -13.348   4.477  1.00  0.00    -0.210 NA
HETATM    3  C   UNL     1      42.401 -13.178   3.494  1.00  0.00     0.136 C 
HETATM    4  C   UNL     1      41.069 -13.260   3.730  1.00  0.00     0.144 C 
HETATM    5  C   UNL     1      40.673 -13.743   5.087  1.00  0.00     0.277 C 
HETATM    6  O   UNL     1      39.655 -14.384   5.319  1.00  0.00    -0.266 OA
HETATM    7  N   UNL     1      41.622 -13.566   6.048  1.00  0.00    -0.300 N 
HETATM    8  H   UNL     1      41.394 -13.882   6.978  1.00  0.00     0.171 HD
ENDROOT
BRANCH   1   9
HETATM    9  S   UNL     1      44.013 -13.612   7.027  1.00  0.00    -0.083 SA
BRANCH   9  10
HETATM   10  C   UNL     1      44.306 -15.402   7.044  1.00  0.00     0.185 C 
BRANCH  10  11
HETATM   11  C   UNL     1      43.271 -16.227   6.295  1.00  0.00     0.227 C 
HETATM   12  N   UNL     1      43.550 -16.509   4.977  1.00  0.00    -0.356 N 
HETATM   13  H   UNL     1      44.179 -15.871   4.502  1.00  0.00     0.162 HD
HETATM   14  O   UNL     1      42.289 -16.687   6.876  1.00  0.00    -0.273 OA
BRANCH  12  15
HETATM   15  C   UNL     1      42.558 -17.178   4.167  1.00  0.00     0.161 C 
BRANCH  15  16
HETATM   16  C   UNL     1      43.066 -18.477   3.603  1.00  0.00    -0.041 A 
HETATM   17  C   UNL     1      42.633 -18.929   2.349  1.00  0.00     0.009 A 
HETATM   18  C   UNL     1      43.147 -20.106   1.800  1.00  0.00     0.007 A 
HETATM   19  C   UNL     1      44.102 -20.855   2.494  1.00  0.00    -0.062 A 
HETATM   20  C   UNL     1      44.697 -22.092   1.890  1.00  0.00     0.048 C 
HETATM   21  C   UNL     1      44.542 -20.403   3.743  1.00  0.00     0.007 A 
HETATM   22  C   UNL     1      44.025 -19.227   4.294  1.00  0.00     0.009 A 
ENDBRANCH  15  16
ENDBRANCH  12  15
ENDBRANCH  10  11
ENDBRANCH   9  10
ENDBRANCH   1   9
BRANCH   3  23
HETATM   23  N   UNL     1      42.873 -12.862   2.225  1.00  0.00    -0.285 NA
HETATM   24  H   UNL     1      43.792 -13.297   2.137  1.00  0.00     0.125 HD
HETATM   25  H   UNL     1      42.266 -13.268   1.515  1.00  0.00     0.125 HD
ENDBRANCH   3  23
BRANCH   4  26
HETATM   26  N   UNL     1      40.164 -12.915   2.747  1.00  0.00    -0.314 N 
HETATM   27  C   UNL     1      39.413 -13.769   1.964  1.00  0.00     0.280 C 
HETATM   28  O   UNL     1      39.455 -14.991   2.012  1.00  0.00    -0.265 OA
HETATM   29  H   UNL     1      39.830 -11.956   2.778  1.00  0.00     0.169 HD
BRANCH  27  30
HETATM   30  C   UNL     1      38.471 -13.066   1.111  1.00  0.00     0.144 A 
HETATM   31  O   UNL     1      37.516 -12.263   1.680  1.00  0.00    -0.298 OA
HETATM   32  C   UNL     1      36.748 -11.775   0.669  1.00  0.00     0.122 A 
HETATM   33 BR   UNL     1      35.285 -10.646   0.920  1.00  0.00    -0.023 Br
HETATM   34  C   UNL     1      37.198 -12.240  -0.545  1.00  0.00     0.048 A 
HETATM   35  C   UNL     1      38.309 -13.071  -0.262  1.00  0.00     0.046 A 
ENDBRANCH  27  30
ENDBRANCH   4  26
TORSDOF 8
ENDMDL
MODEL 9
REMARK VINA RESULT:      -7.8      2.755      5.348
REMARK  8 active torsions:
REMARK  status: ('A' for Active; 'I' for Inactive)
REMARK    1  A    between atoms: C_5  and  C_6 
REMARK    2  A    between atoms: C_6  and  N_7 
REMARK       I    between atoms: N_7  and  C_8 
REMARK    3  A    between atoms: C_8  and  C_9 
REMARK    4  A    between atoms: C_9  and  S_10 
REMARK    5  A    between atoms: S_10  and  C_11 
REMARK    6  A    between atoms: C_13  and  N_14 
REMARK    7  A    between atoms: C_15  and  N_16 
REMARK       I    between atoms: N_16  and  C_17 
REMARK    8  A    between atoms: C_17  and  C_18 
ROOT
HETATM    1  C   UNL     1      43.102 -17.344   4.554  1.00  0.00     0.171 C 
HETATM    2  N   UNL     1      42.307 -16.364   4.808  1.00  0.00    -0.210 NA
HETATM    3  C   UNL     1      42.650 -15.519   5.833  1.00  0.00     0.136 C 
HETATM    4  C   UNL     1      43.721 -15.733   6.635  1.00  0.00     0.144 C 
HETATM    5  C   UNL     1      44.407 -17.051   6.474  1.00  0.00     0.277 C 
HETATM    6  O   UNL     1      44.973 -17.648   7.382  1.00  0.00    -0.266 OA
HETATM    7  N   UNL     1      44.213 -17.643   5.263  1.00  0.00    -0.300 N 
HETATM    8  H   UNL     1      44.657 -18.537   5.115  1.00  0.00     0.171 HD
ENDROOT
BRANCH   1   9
HETATM    9  S   UNL     1      42.836 -18.416   3.217  1.00  0.00    -0.083 SA
BRANCH   9  10
HETATM   10  C   UNL     1      43.228 -17.304   1.839  1.00  0.00     0.185 C 
BRANCH  10  11
HETATM   11  C   UNL     1      42.020 -16.689   1.149  1.00  0.00     0.227 C 
HETATM   12  N   UNL     1      42.226 -15.489   0.507  1.00  0.00    -0.356 N 
HETATM   13  H   UNL     1      43.002 -14.926   0.840  1.00  0.00     0.162 HD
HETATM   14  O   UNL     1      40.948 -17.291   1.096  1.00  0.00    -0.273 OA
BRANCH  12  15
HETATM   15  C   UNL     1      41.100 -14.783  -0.060  1.00  0.00     0.161 C 
BRANCH  15  16
HETATM   16  C   UNL     1      41.500 -13.916  -1.223  1.00  0.00    -0.041 A 
HETATM   17  C   UNL     1      41.107 -14.244  -2.527  1.00  0.00     0.009 A 
HETATM   18  C   UNL     1      41.430 -13.409  -3.600  1.00  0.00     0.007 A 
HETATM   19  C   UNL     1      42.152 -12.230  -3.389  1.00  0.00    -0.062 A 
HETATM   20  C   UNL     1      42.460 -11.302  -4.526  1.00  0.00     0.048 C 
HETATM   21  C   UNL     1      42.541 -11.896  -2.086  1.00  0.00     0.007 A 
HETATM   22  C   UNL     1      42.221 -12.733  -1.014  1.00  0.00     0.009 A 
ENDBRANCH  15  16
ENDBRANCH  12  15
ENDBRANCH  10  11
ENDBRANCH   9  10
ENDBRANCH   1   9
BRANCH   3  23
HETATM   23  N   UNL     1      41.868 -14.381   5.992  1.00  0.00    -0.285 NA
HETATM   24  H   UNL     1      40.906 -14.655   5.793  1.00  0.00     0.125 HD
HETATM   25  H   UNL     1      41.908 -14.061   6.958  1.00  0.00     0.125 HD
ENDBRANCH   3  23
BRANCH   4  26
HETATM   26  N   UNL     1      44.121 -14.770   7.539  1.00  0.00    -0.314 N 
HETATM   27  C   UNL     1      45.052 -13.771   7.341  1.00  0.00     0.280 C 
HETATM   28  O   UNL     1      45.693 -13.598   6.312  1.00  0.00    -0.265 OA
HETATM   29  H   UNL     1      43.495 -14.624   8.326  1.00  0.00     0.169 HD
BRANCH  27  30
HETATM   30  C   UNL     1      45.143 -12.856   8.465  1.00  0.00     0.144 A 
HETATM   31  O   UNL     1      44.241 -12.960   9.493  1.00  0.00    -0.298 OA
HETATM   32  C   UNL     1      44.522 -11.962  10.374  1.00  0.00     0.122 A 
HETATM   33 BR   UNL     1      43.559 -11.651  11.941  1.00  0.00    -0.023 Br
HETATM   34  C   UNL     1      45.598 -11.224   9.939  1.00  0.00     0.048 A 
HETATM   35  C   UNL     1      46.000 -11.799   8.709  1.00  0.00     0.046 A 
ENDBRANCH  27  30
ENDBRANCH   4  26
TORSDOF 8
ENDMDL
MODEL 10
REMARK VINA RESULT:      -7.8      4.181      8.970
REMARK  8 active torsions:
REMARK  status: ('A' for Active; 'I' for Inactive)
REMARK    1  A    between atoms: C_5  and  C_6 
REMARK    2  A    between atoms: C_6  and  N_7 
REMARK       I    between atoms: N_7  and  C_8 
REMARK    3  A    between atoms: C_8  and  C_9 
REMARK    4  A    between atoms: C_9  and  S_10 
REMARK    5  A    between atoms: S_10  and  C_11 
REMARK    6  A    between atoms: C_13  and  N_14 
REMARK    7  A    between atoms: C_15  and  N_16 
REMARK       I    between atoms: N_16  and  C_17 
REMARK    8  A    between atoms: C_17  and  C_18 
ROOT
HETATM    1  C   UNL     1      40.799 -14.083   5.410  1.00  0.00     0.171 C 
HETATM    2  N   UNL     1      40.318 -14.625   4.347  1.00  0.00    -0.210 NA
HETATM    3  C   UNL     1      40.914 -15.774   3.896  1.00  0.00     0.136 C 
HETATM    4  C   UNL     1      42.032 -16.294   4.460  1.00  0.00     0.144 C 
HETATM    5  C   UNL     1      42.704 -15.440   5.487  1.00  0.00     0.277 C 
HETATM    6  O   UNL     1      43.911 -15.434   5.693  1.00  0.00    -0.266 OA
HETATM    7  N   UNL     1      41.890 -14.522   6.078  1.00  0.00    -0.300 N 
HETATM    8  H   UNL     1      42.306 -13.924   6.775  1.00  0.00     0.171 HD
ENDROOT
BRANCH   1   9
HETATM    9  S   UNL     1      40.067 -12.691   6.141  1.00  0.00    -0.083 SA
BRANCH   9  10
HETATM   10  C   UNL     1      41.552 -11.755   6.594  1.00  0.00     0.185 C 
BRANCH  10  11
HETATM   11  C   UNL     1      41.319 -10.620   7.579  1.00  0.00     0.227 C 
HETATM   12  N   UNL     1      40.396 -10.851   8.573  1.00  0.00    -0.356 N 
HETATM   13  H   UNL     1      39.688 -11.551   8.378  1.00  0.00     0.162 HD
HETATM   14  O   UNL     1      41.995  -9.593   7.531  1.00  0.00    -0.273 OA
BRANCH  12  15
HETATM   15  C   UNL     1      40.028  -9.777   9.467  1.00  0.00     0.161 C 
BRANCH  15  16
HETATM   16  C   UNL     1      40.686  -9.908  10.814  1.00  0.00    -0.041 A 
HETATM   17  C   UNL     1      41.654  -8.984  11.229  1.00  0.00     0.009 A 
HETATM   18  C   UNL     1      42.224  -9.071  12.501  1.00  0.00     0.007 A 
HETATM   19  C   UNL     1      41.837 -10.086  13.383  1.00  0.00    -0.062 A 
HETATM   20  C   UNL     1      42.405 -10.158  14.769  1.00  0.00     0.048 C 
HETATM   21  C   UNL     1      40.866 -11.007  12.974  1.00  0.00     0.007 A 
HETATM   22  C   UNL     1      40.299 -10.921  11.700  1.00  0.00     0.009 A 
ENDBRANCH  15  16
ENDBRANCH  12  15
ENDBRANCH  10  11
ENDBRANCH   9  10
ENDBRANCH   1   9
BRANCH   3  23
HETATM   23  N   UNL     1      40.288 -16.431   2.843  1.00  0.00    -0.285 NA
HETATM   24  H   UNL     1      40.587 -15.963   1.986  1.00  0.00     0.125 HD
HETATM   25  H   UNL     1      40.604 -17.399   2.796  1.00  0.00     0.125 HD
ENDBRANCH   3  23
BRANCH   4  26
HETATM   26  N   UNL     1      42.494 -17.537   4.080  1.00  0.00    -0.314 N 
HETATM   27  C   UNL     1      43.443 -17.818   3.117  1.00  0.00     0.280 C 
HETATM   28  O   UNL     1      44.017 -16.985   2.427  1.00  0.00    -0.265 OA
HETATM   29  H   UNL     1      42.312 -18.290   4.736  1.00  0.00     0.169 HD
BRANCH  27  30
HETATM   30  C   UNL     1      43.780 -19.229   3.056  1.00  0.00     0.144 A 
HETATM   31  O   UNL     1      44.222 -19.866   4.187  1.00  0.00    -0.298 OA
HETATM   32  C   UNL     1      44.509 -21.150   3.838  1.00  0.00     0.122 A 
HETATM   33 BR   UNL     1      45.175 -22.429   5.020  1.00  0.00    -0.023 Br
HETATM   34  C   UNL     1      44.247 -21.355   2.504  1.00  0.00     0.048 A 
HETATM   35  C   UNL     1      43.776 -20.119   1.998  1.00  0.00     0.046 A 
ENDBRANCH  27  30
ENDBRANCH   4  26
TORSDOF 8
ENDMDL
