MODEL 1
REMARK VINA RESULT:      -8.4      0.000      0.000
REMARK  7 active torsions:
REMARK  status: ('A' for Active; 'I' for Inactive)
REMARK    1  A    between atoms: O_2  and  C_3 
REMARK    2  A    between atoms: C_6  and  C_7 
REMARK    3  A    between atoms: C_7  and  N_8 
REMARK    4  A    between atoms: C_7  and  C_23 
REMARK       I    between atoms: N_8  and  C_9 
REMARK    5  A    between atoms: C_9  and  C_10 
REMARK    6  A    between atoms: C_10  and  S_11 
REMARK    7  A    between atoms: S_11  and  C_12 
ROOT
HETATM    1  N   UNL     1      43.604 -16.984   4.759  1.00  0.00    -0.348 N 
HETATM    2  C   UNL     1      43.219 -16.439   5.963  1.00  0.00     0.228 C 
HETATM    3  O   UNL     1      42.066 -16.505   6.386  1.00  0.00    -0.273 OA
HETATM    4  H   UNL     1      44.570 -16.904   4.477  1.00  0.00     0.163 HD
ENDROOT
BRANCH   1   5
HETATM    5  C   UNL     1      42.687 -17.766   3.947  1.00  0.00     0.151 C 
BRANCH   5   6
HETATM    6  C   UNL     1      42.058 -16.937   2.832  1.00  0.00    -0.031 A 
HETATM    7  C   UNL     1      42.808 -16.384   1.784  1.00  0.00     0.012 A 
HETATM    8  C   UNL     1      42.180 -15.680   0.751  1.00  0.00     0.037 A 
HETATM    9  C   UNL     1      40.793 -15.524   0.735  1.00  0.00     0.068 A 
HETATM   10  C   UNL     1      40.037 -16.050   1.779  1.00  0.00     0.037 A 
HETATM   11  C   UNL     1      40.665 -16.753   2.816  1.00  0.00     0.012 A 
BRANCH   9  12
HETATM   12  O   UNL     1      40.302 -14.836  -0.341  1.00  0.00    -0.356 OA
HETATM   13  C   UNL     1      41.246 -14.475  -1.342  1.00  0.00     0.210 C 
ENDBRANCH   9  12
ENDBRANCH   5   6
BRANCH   5  14
HETATM   14  C   UNL     1      43.348 -19.037   3.424  1.00  0.00    -0.031 A 
HETATM   15  C   UNL     1      44.343 -19.667   4.193  1.00  0.00     0.009 A 
HETATM   16  C   UNL     1      44.955 -20.840   3.748  1.00  0.00     0.001 A 
HETATM   17  C   UNL     1      44.580 -21.406   2.533  1.00  0.00     0.000 A 
HETATM   18  C   UNL     1      43.594 -20.797   1.759  1.00  0.00     0.001 A 
HETATM   19  C   UNL     1      42.983 -19.622   2.199  1.00  0.00     0.009 A 
ENDBRANCH   5  14
ENDBRANCH   1   5
BRANCH   2  20
HETATM   20  C   UNL     1      44.329 -15.818   6.793  1.00  0.00     0.185 C 
BRANCH  20  21
HETATM   21  S   UNL     1      44.142 -14.013   6.938  1.00  0.00    -0.081 SA
BRANCH  21  22
HETATM   22  C   UNL     1      43.590 -13.648   5.340  1.00  0.00     0.192 A 
HETATM   23  N   UNL     1      42.347 -13.151   5.040  1.00  0.00    -0.311 N 
HETATM   24  C   UNL     1      42.342 -12.994   3.671  1.00  0.00     0.130 A 
HETATM   25  C   UNL     1      41.263 -12.893   5.966  1.00  0.00     0.133 C 
HETATM   26  C   UNL     1      41.221 -12.461   2.845  1.00  0.00     0.081 C 
HETATM   27  N   UNL     1      43.507 -13.384   3.192  1.00  0.00    -0.134 NA
HETATM   28  C   UNL     1      39.849 -12.922   3.316  1.00  0.00     0.008 C 
HETATM   29  C   UNL     1      39.309 -12.121   4.502  1.00  0.00     0.002 C 
HETATM   30  C   UNL     1      40.332 -11.750   5.573  1.00  0.00     0.020 C 
HETATM   31  N   UNL     1      44.287 -13.797   4.240  1.00  0.00    -0.123 NA
ENDBRANCH  21  22
ENDBRANCH  20  21
ENDBRANCH   2  20
TORSDOF 7
ENDMDL
MODEL 2
REMARK VINA RESULT:      -7.9      2.183      5.737
REMARK  7 active torsions:
REMARK  status: ('A' for Active; 'I' for Inactive)
REMARK    1  A    between atoms: O_2  and  C_3 
REMARK    2  A    between atoms: C_6  and  C_7 
REMARK    3  A    between atoms: C_7  and  N_8 
REMARK    4  A    between atoms: C_7  and  C_23 
REMARK       I    between atoms: N_8  and  C_9 
REMARK    5  A    between atoms: C_9  and  C_10 
REMARK    6  A    between atoms: C_10  and  S_11 
REMARK    7  A    between atoms: S_11  and  C_12 
ROOT
HETATM    1  N   UNL     1      41.346 -14.118   1.843  1.00  0.00    -0.348 N 
HETATM    2  C   UNL     1      42.127 -13.367   2.692  1.00  0.00     0.228 C 
HETATM    3  O   UNL     1      43.356 -13.363   2.637  1.00  0.00    -0.273 OA
HETATM    4  H   UNL     1      40.341 -14.065   1.935  1.00  0.00     0.163 HD
ENDROOT
BRANCH   1   5
HETATM    5  C   UNL     1      41.922 -14.884   0.752  1.00  0.00     0.151 C 
BRANCH   5   6
HETATM    6  C   UNL     1      42.278 -16.306   1.174  1.00  0.00    -0.031 A 
HETATM    7  C   UNL     1      41.313 -17.306   1.358  1.00  0.00     0.012 A 
HETATM    8  C   UNL     1      41.692 -18.611   1.690  1.00  0.00     0.037 A 
HETATM    9  C   UNL     1      43.039 -18.948   1.831  1.00  0.00     0.068 A 
HETATM   10  C   UNL     1      44.008 -17.961   1.671  1.00  0.00     0.037 A 
HETATM   11  C   UNL     1      43.630 -16.653   1.343  1.00  0.00     0.012 A 
BRANCH   9  12
HETATM   12  O   UNL     1      43.276 -20.262   2.133  1.00  0.00    -0.356 OA
HETATM   13  C   UNL     1      44.576 -20.569   2.623  1.00  0.00     0.210 C 
ENDBRANCH   9  12
ENDBRANCH   5   6
BRANCH   5  14
HETATM   14  C   UNL     1      41.031 -14.852  -0.486  1.00  0.00    -0.031 A 
HETATM   15  C   UNL     1      39.863 -14.068  -0.478  1.00  0.00     0.009 A 
HETATM   16  C   UNL     1      39.036 -14.006  -1.601  1.00  0.00     0.001 A 
HETATM   17  C   UNL     1      39.364 -14.720  -2.750  1.00  0.00     0.000 A 
HETATM   18  C   UNL     1      40.518 -15.500  -2.777  1.00  0.00     0.001 A 
HETATM   19  C   UNL     1      41.346 -15.567  -1.655  1.00  0.00     0.009 A 
ENDBRANCH   5  14
ENDBRANCH   1   5
BRANCH   2  20
HETATM   20  C   UNL     1      41.379 -12.466   3.658  1.00  0.00     0.185 C 
BRANCH  20  21
HETATM   21  S   UNL     1      41.623 -12.973   5.390  1.00  0.00    -0.081 SA
BRANCH  21  22
HETATM   22  C   UNL     1      41.510 -14.690   5.210  1.00  0.00     0.192 A 
HETATM   23  N   UNL     1      42.469 -15.580   5.618  1.00  0.00    -0.311 N 
HETATM   24  C   UNL     1      41.967 -16.824   5.301  1.00  0.00     0.130 A 
HETATM   25  C   UNL     1      43.753 -15.269   6.213  1.00  0.00     0.133 C 
HETATM   26  C   UNL     1      42.623 -18.136   5.561  1.00  0.00     0.081 C 
HETATM   27  N   UNL     1      40.787 -16.674   4.732  1.00  0.00    -0.134 NA
HETATM   28  C   UNL     1      44.129 -18.116   5.336  1.00  0.00     0.008 C 
HETATM   29  C   UNL     1      44.915 -17.532   6.510  1.00  0.00     0.002 C 
HETATM   30  C   UNL     1      44.289 -16.314   7.187  1.00  0.00     0.020 C 
HETATM   31  N   UNL     1      40.504 -15.335   4.672  1.00  0.00    -0.123 NA
ENDBRANCH  21  22
ENDBRANCH  20  21
ENDBRANCH   2  20
TORSDOF 7
ENDMDL
MODEL 3
REMARK VINA RESULT:      -7.7      3.117      7.556
REMARK  7 active torsions:
REMARK  status: ('A' for Active; 'I' for Inactive)
REMARK    1  A    between atoms: O_2  and  C_3 
REMARK    2  A    between atoms: C_6  and  C_7 
REMARK    3  A    between atoms: C_7  and  N_8 
REMARK    4  A    between atoms: C_7  and  C_23 
REMARK       I    between atoms: N_8  and  C_9 
REMARK    5  A    between atoms: C_9  and  C_10 
REMARK    6  A    between atoms: C_10  and  S_11 
REMARK    7  A    between atoms: S_11  and  C_12 
ROOT
HETATM    1  N   UNL     1      41.512 -14.071  -0.269  1.00  0.00    -0.348 N 
HETATM    2  C   UNL     1      41.655 -15.277   0.378  1.00  0.00     0.228 C 
HETATM    3  O   UNL     1      41.753 -16.347  -0.221  1.00  0.00    -0.273 OA
HETATM    4  H   UNL     1      41.449 -13.228   0.285  1.00  0.00     0.163 HD
ENDROOT
BRANCH   1   5
HETATM    5  C   UNL     1      41.569 -13.969  -1.717  1.00  0.00     0.151 C 
BRANCH   5   6
HETATM    6  C   UNL     1      40.242 -14.341  -2.371  1.00  0.00    -0.031 A 
HETATM    7  C   UNL     1      39.040 -13.682  -2.074  1.00  0.00     0.012 A 
HETATM    8  C   UNL     1      37.858 -14.019  -2.741  1.00  0.00     0.037 A 
HETATM    9  C   UNL     1      37.852 -15.008  -3.726  1.00  0.00     0.068 A 
HETATM   10  C   UNL     1      39.034 -15.685  -4.017  1.00  0.00     0.037 A 
HETATM   11  C   UNL     1      40.217 -15.351  -3.347  1.00  0.00     0.012 A 
BRANCH   9  12
HETATM   12  O   UNL     1      36.638 -15.225  -4.319  1.00  0.00    -0.356 OA
HETATM   13  C   UNL     1      35.931 -14.068  -4.747  1.00  0.00     0.210 C 
ENDBRANCH   9  12
ENDBRANCH   5   6
BRANCH   5  14
HETATM   14  C   UNL     1      42.073 -12.600  -2.162  1.00  0.00    -0.031 A 
HETATM   15  C   UNL     1      41.997 -12.242  -3.519  1.00  0.00     0.009 A 
HETATM   16  C   UNL     1      42.436 -10.990  -3.955  1.00  0.00     0.001 A 
HETATM   17  C   UNL     1      42.952 -10.075  -3.041  1.00  0.00     0.000 A 
HETATM   18  C   UNL     1      43.032 -10.411  -1.691  1.00  0.00     0.001 A 
HETATM   19  C   UNL     1      42.597 -11.663  -1.253  1.00  0.00     0.009 A 
ENDBRANCH   5  14
ENDBRANCH   1   5
BRANCH   2  20
HETATM   20  C   UNL     1      41.772 -15.208   1.891  1.00  0.00     0.185 C 
BRANCH  20  21
HETATM   21  S   UNL     1      40.922 -16.598   2.704  1.00  0.00    -0.081 SA
BRANCH  21  22
HETATM   22  C   UNL     1      42.104 -17.001   3.902  1.00  0.00     0.192 A 
HETATM   23  N   UNL     1      42.958 -18.070   3.823  1.00  0.00    -0.311 N 
HETATM   24  C   UNL     1      43.728 -18.003   4.965  1.00  0.00     0.130 A 
HETATM   25  C   UNL     1      43.005 -19.077   2.782  1.00  0.00     0.133 C 
HETATM   26  C   UNL     1      44.829 -18.932   5.347  1.00  0.00     0.081 C 
HETATM   27  N   UNL     1      43.343 -16.961   5.677  1.00  0.00    -0.134 NA
HETATM   28  C   UNL     1      44.538 -20.387   5.008  1.00  0.00     0.008 C 
HETATM   29  C   UNL     1      44.801 -20.737   3.543  1.00  0.00     0.002 C 
HETATM   30  C   UNL     1      44.382 -19.680   2.523  1.00  0.00     0.020 C 
HETATM   31  N   UNL     1      42.322 -16.337   5.010  1.00  0.00    -0.123 NA
ENDBRANCH  21  22
ENDBRANCH  20  21
ENDBRANCH   2  20
TORSDOF 7
ENDMDL
MODEL 4
REMARK VINA RESULT:      -7.6      2.187      5.686
REMARK  7 active torsions:
REMARK  status: ('A' for Active; 'I' for Inactive)
REMARK    1  A    between atoms: O_2  and  C_3 
REMARK    2  A    between atoms: C_6  and  C_7 
REMARK    3  A    between atoms: C_7  and  N_8 
REMARK    4  A    between atoms: C_7  and  C_23 
REMARK       I    between atoms: N_8  and  C_9 
REMARK    5  A    between atoms: C_9  and  C_10 
REMARK    6  A    between atoms: C_10  and  S_11 
REMARK    7  A    between atoms: S_11  and  C_12 
ROOT
HETATM    1  N   UNL     1      41.292 -14.300   1.960  1.00  0.00    -0.348 N 
HETATM    2  C   UNL     1      42.040 -13.499   2.793  1.00  0.00     0.228 C 
HETATM    3  O   UNL     1      43.254 -13.357   2.667  1.00  0.00    -0.273 OA
HETATM    4  H   UNL     1      40.295 -14.362   2.113  1.00  0.00     0.163 HD
ENDROOT
BRANCH   1   5
HETATM    5  C   UNL     1      41.878 -14.958   0.805  1.00  0.00     0.151 C 
BRANCH   5   6
HETATM    6  C   UNL     1      42.287 -16.395   1.111  1.00  0.00    -0.031 A 
HETATM    7  C   UNL     1      43.623 -16.780   1.291  1.00  0.00     0.012 A 
HETATM    8  C   UNL     1      43.946 -18.099   1.627  1.00  0.00     0.037 A 
HETATM    9  C   UNL     1      42.946 -19.056   1.803  1.00  0.00     0.068 A 
HETATM   10  C   UNL     1      41.616 -18.693   1.608  1.00  0.00     0.037 A 
HETATM   11  C   UNL     1      41.291 -17.374   1.268  1.00  0.00     0.012 A 
BRANCH   9  12
HETATM   12  O   UNL     1      43.393 -20.301   2.153  1.00  0.00    -0.356 OA
HETATM   13  C   UNL     1      44.640 -20.353   2.835  1.00  0.00     0.210 C 
ENDBRANCH   9  12
ENDBRANCH   5   6
BRANCH   5  14
HETATM   14  C   UNL     1      40.969 -14.859  -0.416  1.00  0.00    -0.031 A 
HETATM   15  C   UNL     1      39.797 -14.086  -0.346  1.00  0.00     0.009 A 
HETATM   16  C   UNL     1      38.954 -13.963  -1.452  1.00  0.00     0.001 A 
HETATM   17  C   UNL     1      39.269 -14.606  -2.645  1.00  0.00     0.000 A 
HETATM   18  C   UNL     1      40.428 -15.375  -2.734  1.00  0.00     0.001 A 
HETATM   19  C   UNL     1      41.272 -15.502  -1.629  1.00  0.00     0.009 A 
ENDBRANCH   5  14
ENDBRANCH   1   5
BRANCH   2  20
HETATM   20  C   UNL     1      41.260 -12.721   3.839  1.00  0.00     0.185 C 
BRANCH  20  21
HETATM   21  S   UNL     1      40.683 -13.792   5.194  1.00  0.00    -0.081 SA
BRANCH  21  22
HETATM   22  C   UNL     1      42.207 -14.355   5.789  1.00  0.00     0.192 A 
HETATM   23  N   UNL     1      42.558 -15.675   5.903  1.00  0.00    -0.311 N 
HETATM   24  C   UNL     1      43.845 -15.666   6.395  1.00  0.00     0.130 A 
HETATM   25  C   UNL     1      41.730 -16.828   5.610  1.00  0.00     0.133 C 
HETATM   26  C   UNL     1      44.693 -16.859   6.678  1.00  0.00     0.081 C 
HETATM   27  N   UNL     1      44.226 -14.416   6.569  1.00  0.00    -0.134 NA
HETATM   28  C   UNL     1      43.920 -18.023   7.282  1.00  0.00     0.008 C 
HETATM   29  C   UNL     1      43.161 -18.854   6.247  1.00  0.00     0.002 C 
HETATM   30  C   UNL     1      42.483 -18.064   5.129  1.00  0.00     0.020 C 
HETATM   31  N   UNL     1      43.196 -13.595   6.192  1.00  0.00    -0.123 NA
ENDBRANCH  21  22
ENDBRANCH  20  21
ENDBRANCH   2  20
TORSDOF 7
ENDMDL
MODEL 5
REMARK VINA RESULT:      -7.4      3.910      5.796
REMARK  7 active torsions:
REMARK  status: ('A' for Active; 'I' for Inactive)
REMARK    1  A    between atoms: O_2  and  C_3 
REMARK    2  A    between atoms: C_6  and  C_7 
REMARK    3  A    between atoms: C_7  and  N_8 
REMARK    4  A    between atoms: C_7  and  C_23 
REMARK       I    between atoms: N_8  and  C_9 
REMARK    5  A    between atoms: C_9  and  C_10 
REMARK    6  A    between atoms: C_10  and  S_11 
REMARK    7  A    between atoms: S_11  and  C_12 
ROOT
HETATM    1  N   UNL     1      40.955 -12.577   5.751  1.00  0.00    -0.348 N 
HETATM    2  C   UNL     1      39.819 -11.824   5.938  1.00  0.00     0.228 C 
HETATM    3  O   UNL     1      38.700 -12.215   5.612  1.00  0.00    -0.273 OA
HETATM    4  H   UNL     1      41.842 -12.200   6.053  1.00  0.00     0.163 HD
ENDROOT
BRANCH   1   5
HETATM    5  C   UNL     1      40.895 -13.937   5.244  1.00  0.00     0.151 C 
BRANCH   5   6
HETATM    6  C   UNL     1      41.020 -13.988   3.724  1.00  0.00    -0.031 A 
HETATM    7  C   UNL     1      41.951 -13.216   3.014  1.00  0.00     0.012 A 
HETATM    8  C   UNL     1      42.069 -13.339   1.626  1.00  0.00     0.037 A 
HETATM    9  C   UNL     1      41.273 -14.242   0.920  1.00  0.00     0.068 A 
HETATM   10  C   UNL     1      40.330 -15.001   1.609  1.00  0.00     0.037 A 
HETATM   11  C   UNL     1      40.208 -14.877   2.998  1.00  0.00     0.012 A 
BRANCH   9  12
HETATM   12  O   UNL     1      41.503 -14.283  -0.428  1.00  0.00    -0.356 OA
HETATM   13  C   UNL     1      40.357 -14.431  -1.258  1.00  0.00     0.210 C 
ENDBRANCH   9  12
ENDBRANCH   5   6
BRANCH   5  14
HETATM   14  C   UNL     1      41.908 -14.839   5.941  1.00  0.00    -0.031 A 
HETATM   15  C   UNL     1      43.198 -14.353   6.212  1.00  0.00     0.009 A 
HETATM   16  C   UNL     1      44.142 -15.149   6.863  1.00  0.00     0.001 A 
HETATM   17  C   UNL     1      43.810 -16.442   7.258  1.00  0.00     0.000 A 
HETATM   18  C   UNL     1      42.535 -16.941   7.001  1.00  0.00     0.001 A 
HETATM   19  C   UNL     1      41.590 -16.148   6.347  1.00  0.00     0.009 A 
ENDBRANCH   5  14
ENDBRANCH   1   5
BRANCH   2  20
HETATM   20  C   UNL     1      40.013 -10.500   6.656  1.00  0.00     0.185 C 
BRANCH  20  21
HETATM   21  S   UNL     1      39.768 -10.657   8.454  1.00  0.00    -0.081 SA
BRANCH  21  22
HETATM   22  C   UNL     1      41.418 -10.658   8.973  1.00  0.00     0.192 A 
HETATM   23  N   UNL     1      41.821 -10.670  10.284  1.00  0.00    -0.311 N 
HETATM   24  C   UNL     1      43.199 -10.684  10.238  1.00  0.00     0.130 A 
HETATM   25  C   UNL     1      40.974 -10.631  11.459  1.00  0.00     0.133 C 
HETATM   26  C   UNL     1      44.123 -10.722  11.407  1.00  0.00     0.081 C 
HETATM   27  N   UNL     1      43.583 -10.672   8.977  1.00  0.00    -0.134 NA
HETATM   28  C   UNL     1      43.655  -9.868  12.578  1.00  0.00     0.008 C 
HETATM   29  C   UNL     1      42.593 -10.547  13.442  1.00  0.00     0.002 C 
HETATM   30  C   UNL     1      41.532 -11.345  12.686  1.00  0.00     0.020 C 
HETATM   31  N   UNL     1      42.466 -10.651   8.186  1.00  0.00    -0.123 NA
ENDBRANCH  21  22
ENDBRANCH  20  21
ENDBRANCH   2  20
TORSDOF 7
ENDMDL
MODEL 6
REMARK VINA RESULT:      -7.4      3.176      7.128
REMARK  7 active torsions:
REMARK  status: ('A' for Active; 'I' for Inactive)
REMARK    1  A    between atoms: O_2  and  C_3 
REMARK    2  A    between atoms: C_6  and  C_7 
REMARK    3  A    between atoms: C_7  and  N_8 
REMARK    4  A    between atoms: C_7  and  C_23 
REMARK       I    between atoms: N_8  and  C_9 
REMARK    5  A    between atoms: C_9  and  C_10 
REMARK    6  A    between atoms: C_10  and  S_11 
REMARK    7  A    between atoms: S_11  and  C_12 
ROOT
HETATM    1  N   UNL     1      41.543 -14.071  -0.015  1.00  0.00    -0.348 N 
HETATM    2  C   UNL     1      41.705 -15.312   0.557  1.00  0.00     0.228 C 
HETATM    3  O   UNL     1      41.902 -16.330  -0.105  1.00  0.00    -0.273 OA
HETATM    4  H   UNL     1      41.396 -13.274   0.588  1.00  0.00     0.163 HD
ENDROOT
BRANCH   1   5
HETATM    5  C   UNL     1      41.695 -13.863  -1.445  1.00  0.00     0.151 C 
BRANCH   5   6
HETATM    6  C   UNL     1      40.424 -14.211  -2.213  1.00  0.00    -0.031 A 
HETATM    7  C   UNL     1      40.398 -15.160  -3.245  1.00  0.00     0.012 A 
HETATM    8  C   UNL     1      39.197 -15.488  -3.882  1.00  0.00     0.037 A 
HETATM    9  C   UNL     1      37.998 -14.888  -3.497  1.00  0.00     0.068 A 
HETATM   10  C   UNL     1      38.011 -13.929  -2.488  1.00  0.00     0.037 A 
HETATM   11  C   UNL     1      39.213 -13.597  -1.851  1.00  0.00     0.012 A 
BRANCH   9  12
HETATM   12  O   UNL     1      36.893 -15.314  -4.183  1.00  0.00    -0.356 OA
HETATM   13  C   UNL     1      36.008 -14.299  -4.643  1.00  0.00     0.210 C 
ENDBRANCH   9  12
ENDBRANCH   5   6
BRANCH   5  14
HETATM   14  C   UNL     1      42.196 -12.456  -1.755  1.00  0.00    -0.031 A 
HETATM   15  C   UNL     1      42.660 -11.640  -0.709  1.00  0.00     0.009 A 
HETATM   16  C   UNL     1      43.140 -10.354  -0.964  1.00  0.00     0.001 A 
HETATM   17  C   UNL     1      43.168  -9.865  -2.267  1.00  0.00     0.000 A 
HETATM   18  C   UNL     1      42.714 -10.660  -3.317  1.00  0.00     0.001 A 
HETATM   19  C   UNL     1      42.231 -11.946  -3.065  1.00  0.00     0.009 A 
ENDBRANCH   5  14
ENDBRANCH   1   5
BRANCH   2  20
HETATM   20  C   UNL     1      41.713 -15.346   2.075  1.00  0.00     0.185 C 
BRANCH  20  21
HETATM   21  S   UNL     1      40.829 -16.798   2.728  1.00  0.00    -0.081 SA
BRANCH  21  22
HETATM   22  C   UNL     1      42.176 -17.752   3.244  1.00  0.00     0.192 A 
HETATM   23  N   UNL     1      42.706 -17.731   4.508  1.00  0.00    -0.311 N 
HETATM   24  C   UNL     1      43.739 -18.644   4.482  1.00  0.00     0.130 A 
HETATM   25  C   UNL     1      42.292 -16.893   5.615  1.00  0.00     0.133 C 
HETATM   26  C   UNL     1      44.625 -19.011   5.623  1.00  0.00     0.081 C 
HETATM   27  N   UNL     1      43.818 -19.163   3.273  1.00  0.00    -0.134 NA
HETATM   28  C   UNL     1      45.007 -17.826   6.500  1.00  0.00     0.008 C 
HETATM   29  C   UNL     1      43.926 -17.441   7.510  1.00  0.00     0.002 C 
HETATM   30  C   UNL     1      42.488 -17.503   7.000  1.00  0.00     0.020 C 
HETATM   31  N   UNL     1      42.840 -18.600   2.497  1.00  0.00    -0.123 NA
ENDBRANCH  21  22
ENDBRANCH  20  21
ENDBRANCH   2  20
TORSDOF 7
ENDMDL
MODEL 7
REMARK VINA RESULT:      -7.4      3.315      4.106
REMARK  7 active torsions:
REMARK  status: ('A' for Active; 'I' for Inactive)
REMARK    1  A    between atoms: O_2  and  C_3 
REMARK    2  A    between atoms: C_6  and  C_7 
REMARK    3  A    between atoms: C_7  and  N_8 
REMARK    4  A    between atoms: C_7  and  C_23 
REMARK       I    between atoms: N_8  and  C_9 
REMARK    5  A    between atoms: C_9  and  C_10 
REMARK    6  A    between atoms: C_10  and  S_11 
REMARK    7  A    between atoms: S_11  and  C_12 
ROOT
HETATM    1  N   UNL     1      43.558 -15.874   5.173  1.00  0.00    -0.348 N 
HETATM    2  C   UNL     1      43.506 -15.636   6.527  1.00  0.00     0.228 C 
HETATM    3  O   UNL     1      42.685 -16.173   7.267  1.00  0.00    -0.273 OA
HETATM    4  H   UNL     1      44.266 -15.408   4.625  1.00  0.00     0.163 HD
ENDROOT
BRANCH   1   5
HETATM    5  C   UNL     1      42.702 -16.861   4.538  1.00  0.00     0.151 C 
BRANCH   5   6
HETATM    6  C   UNL     1      41.945 -16.284   3.346  1.00  0.00    -0.031 A 
HETATM    7  C   UNL     1      40.727 -16.812   2.895  1.00  0.00     0.012 A 
HETATM    8  C   UNL     1      40.040 -16.213   1.834  1.00  0.00     0.037 A 
HETATM    9  C   UNL     1      40.543 -15.070   1.212  1.00  0.00     0.068 A 
HETATM   10  C   UNL     1      41.762 -14.545   1.637  1.00  0.00     0.037 A 
HETATM   11  C   UNL     1      42.453 -15.146   2.696  1.00  0.00     0.012 A 
BRANCH   9  12
HETATM   12  O   UNL     1      39.764 -14.569   0.205  1.00  0.00    -0.356 OA
HETATM   13  C   UNL     1      38.499 -14.044   0.590  1.00  0.00     0.210 C 
ENDBRANCH   9  12
ENDBRANCH   5   6
BRANCH   5  14
HETATM   14  C   UNL     1      43.477 -18.124   4.177  1.00  0.00    -0.031 A 
HETATM   15  C   UNL     1      43.965 -18.954   5.201  1.00  0.00     0.009 A 
HETATM   16  C   UNL     1      44.665 -20.125   4.903  1.00  0.00     0.001 A 
HETATM   17  C   UNL     1      44.884 -20.488   3.577  1.00  0.00     0.000 A 
HETATM   18  C   UNL     1      44.406 -19.679   2.548  1.00  0.00     0.001 A 
HETATM   19  C   UNL     1      43.709 -18.506   2.843  1.00  0.00     0.009 A 
ENDBRANCH   5  14
ENDBRANCH   1   5
BRANCH   2  20
HETATM   20  C   UNL     1      44.588 -14.725   7.081  1.00  0.00     0.185 C 
BRANCH  20  21
HETATM   21  S   UNL     1      44.102 -12.972   7.014  1.00  0.00    -0.081 SA
BRANCH  21  22
HETATM   22  C   UNL     1      44.453 -12.510   8.644  1.00  0.00     0.192 A 
HETATM   23  N   UNL     1      43.704 -11.629   9.381  1.00  0.00    -0.311 N 
HETATM   24  C   UNL     1      44.325 -11.568  10.611  1.00  0.00     0.130 A 
HETATM   25  C   UNL     1      42.539 -10.890   8.940  1.00  0.00     0.133 C 
HETATM   26  C   UNL     1      43.886 -10.761  11.785  1.00  0.00     0.081 C 
HETATM   27  N   UNL     1      45.380 -12.359  10.595  1.00  0.00    -0.134 NA
HETATM   28  C   UNL     1      43.351  -9.386  11.410  1.00  0.00     0.008 C 
HETATM   29  C   UNL     1      41.901  -9.405  10.927  1.00  0.00     0.002 C 
HETATM   30  C   UNL     1      41.516 -10.579  10.028  1.00  0.00     0.020 C 
HETATM   31  N   UNL     1      45.461 -12.945   9.360  1.00  0.00    -0.123 NA
ENDBRANCH  21  22
ENDBRANCH  20  21
ENDBRANCH   2  20
TORSDOF 7
ENDMDL
MODEL 8
REMARK VINA RESULT:      -7.4      2.439      3.511
REMARK  7 active torsions:
REMARK  status: ('A' for Active; 'I' for Inactive)
REMARK    1  A    between atoms: O_2  and  C_3 
REMARK    2  A    between atoms: C_6  and  C_7 
REMARK    3  A    between atoms: C_7  and  N_8 
REMARK    4  A    between atoms: C_7  and  C_23 
REMARK       I    between atoms: N_8  and  C_9 
REMARK    5  A    between atoms: C_9  and  C_10 
REMARK    6  A    between atoms: C_10  and  S_11 
REMARK    7  A    between atoms: S_11  and  C_12 
ROOT
HETATM    1  N   UNL     1      43.213 -16.576   5.160  1.00  0.00    -0.348 N 
HETATM    2  C   UNL     1      42.841 -16.416   6.475  1.00  0.00     0.228 C 
HETATM    3  O   UNL     1      41.777 -16.839   6.922  1.00  0.00    -0.273 OA
HETATM    4  H   UNL     1      44.107 -16.214   4.861  1.00  0.00     0.163 HD
ENDROOT
BRANCH   1   5
HETATM    5  C   UNL     1      42.411 -17.350   4.228  1.00  0.00     0.151 C 
BRANCH   5   6
HETATM    6  C   UNL     1      41.860 -16.492   3.094  1.00  0.00    -0.031 A 
HETATM    7  C   UNL     1      40.582 -16.684   2.550  1.00  0.00     0.012 A 
HETATM    8  C   UNL     1      40.097 -15.835   1.550  1.00  0.00     0.037 A 
HETATM    9  C   UNL     1      40.868 -14.770   1.083  1.00  0.00     0.068 A 
HETATM   10  C   UNL     1      42.147 -14.578   1.600  1.00  0.00     0.037 A 
HETATM   11  C   UNL     1      42.636 -15.430   2.598  1.00  0.00     0.012 A 
BRANCH   9  12
HETATM   12  O   UNL     1      40.270 -14.002   0.122  1.00  0.00    -0.356 OA
HETATM   13  C   UNL     1      40.323 -14.502  -1.208  1.00  0.00     0.210 C 
ENDBRANCH   9  12
ENDBRANCH   5   6
BRANCH   5  14
HETATM   14  C   UNL     1      43.169 -18.571   3.718  1.00  0.00    -0.031 A 
HETATM   15  C   UNL     1      42.947 -19.027   2.407  1.00  0.00     0.009 A 
HETATM   16  C   UNL     1      43.637 -20.132   1.906  1.00  0.00     0.001 A 
HETATM   17  C   UNL     1      44.564 -20.796   2.704  1.00  0.00     0.000 A 
HETATM   18  C   UNL     1      44.801 -20.357   4.005  1.00  0.00     0.001 A 
HETATM   19  C   UNL     1      44.109 -19.255   4.510  1.00  0.00     0.009 A 
ENDBRANCH   5  14
ENDBRANCH   1   5
BRANCH   2  20
HETATM   20  C   UNL     1      43.867 -15.753   7.378  1.00  0.00     0.185 C 
BRANCH  20  21
HETATM   21  S   UNL     1      44.692 -14.352   6.558  1.00  0.00    -0.081 SA
BRANCH  21  22
HETATM   22  C   UNL     1      43.638 -13.069   7.044  1.00  0.00     0.192 A 
HETATM   23  N   UNL     1      43.832 -12.279   8.147  1.00  0.00    -0.311 N 
HETATM   24  C   UNL     1      42.779 -11.389   8.144  1.00  0.00     0.130 A 
HETATM   25  C   UNL     1      44.894 -12.390   9.126  1.00  0.00     0.133 C 
HETATM   26  C   UNL     1      42.539 -10.298   9.131  1.00  0.00     0.081 C 
HETATM   27  N   UNL     1      42.007 -11.647   7.107  1.00  0.00    -0.134 NA
HETATM   28  C   UNL     1      42.878 -10.690  10.562  1.00  0.00     0.008 C 
HETATM   29  C   UNL     1      44.370 -10.602  10.883  1.00  0.00     0.002 C 
HETATM   30  C   UNL     1      45.315 -11.078   9.781  1.00  0.00     0.020 C 
HETATM   31  N   UNL     1      42.544 -12.703   6.421  1.00  0.00    -0.123 NA
ENDBRANCH  21  22
ENDBRANCH  20  21
ENDBRANCH   2  20
TORSDOF 7
ENDMDL
MODEL 9
REMARK VINA RESULT:      -7.3      2.741      5.932
REMARK  7 active torsions:
REMARK  status: ('A' for Active; 'I' for Inactive)
REMARK    1  A    between atoms: O_2  and  C_3 
REMARK    2  A    between atoms: C_6  and  C_7 
REMARK    3  A    between atoms: C_7  and  N_8 
REMARK    4  A    between atoms: C_7  and  C_23 
REMARK       I    between atoms: N_8  and  C_9 
REMARK    5  A    between atoms: C_9  and  C_10 
REMARK    6  A    between atoms: C_10  and  S_11 
REMARK    7  A    between atoms: S_11  and  C_12 
ROOT
HETATM    1  N   UNL     1      41.475 -15.752   3.563  1.00  0.00    -0.348 N 
HETATM    2  C   UNL     1      40.423 -14.908   3.835  1.00  0.00     0.228 C 
HETATM    3  O   UNL     1      39.856 -14.880   4.926  1.00  0.00    -0.273 OA
HETATM    4  H   UNL     1      41.902 -15.716   2.649  1.00  0.00     0.163 HD
ENDROOT
BRANCH   1   5
HETATM    5  C   UNL     1      42.056 -16.603   4.587  1.00  0.00     0.151 C 
BRANCH   5   6
HETATM    6  C   UNL     1      42.750 -17.824   3.993  1.00  0.00    -0.031 A 
HETATM    7  C   UNL     1      42.543 -18.246   2.672  1.00  0.00     0.012 A 
HETATM    8  C   UNL     1      43.246 -19.337   2.153  1.00  0.00     0.037 A 
HETATM    9  C   UNL     1      44.179 -20.022   2.933  1.00  0.00     0.068 A 
HETATM   10  C   UNL     1      44.381 -19.627   4.253  1.00  0.00     0.037 A 
HETATM   11  C   UNL     1      43.676 -18.536   4.776  1.00  0.00     0.012 A 
BRANCH   9  12
HETATM   12  O   UNL     1      44.815 -21.054   2.300  1.00  0.00    -0.356 OA
HETATM   13  C   UNL     1      43.992 -21.924   1.531  1.00  0.00     0.210 C 
ENDBRANCH   9  12
ENDBRANCH   5   6
BRANCH   5  14
HETATM   14  C   UNL     1      42.967 -15.812   5.520  1.00  0.00    -0.031 A 
HETATM   15  C   UNL     1      43.632 -14.672   5.036  1.00  0.00     0.009 A 
HETATM   16  C   UNL     1      44.461 -13.919   5.870  1.00  0.00     0.001 A 
HETATM   17  C   UNL     1      44.634 -14.289   7.201  1.00  0.00     0.000 A 
HETATM   18  C   UNL     1      43.981 -15.414   7.699  1.00  0.00     0.001 A 
HETATM   19  C   UNL     1      43.154 -16.171   6.867  1.00  0.00     0.009 A 
ENDBRANCH   5  14
ENDBRANCH   1   5
BRANCH   2  20
HETATM   20  C   UNL     1      40.048 -13.939   2.728  1.00  0.00     0.185 C 
BRANCH  20  21
HETATM   21  S   UNL     1      41.503 -13.392   1.780  1.00  0.00    -0.081 SA
BRANCH  21  22
HETATM   22  C   UNL     1      41.325 -14.384   0.375  1.00  0.00     0.192 A 
HETATM   23  N   UNL     1      40.881 -13.936  -0.843  1.00  0.00    -0.311 N 
HETATM   24  C   UNL     1      40.912 -15.041  -1.667  1.00  0.00     0.130 A 
HETATM   25  C   UNL     1      40.433 -12.598  -1.171  1.00  0.00     0.133 C 
HETATM   26  C   UNL     1      40.542 -15.079  -3.111  1.00  0.00     0.081 C 
HETATM   27  N   UNL     1      41.340 -16.078  -0.974  1.00  0.00    -0.134 NA
HETATM   28  C   UNL     1      39.333 -14.217  -3.449  1.00  0.00     0.008 C 
HETATM   29  C   UNL     1      39.666 -12.734  -3.611  1.00  0.00     0.002 C 
HETATM   30  C   UNL     1      40.676 -12.168  -2.615  1.00  0.00     0.020 C 
HETATM   31  N   UNL     1      41.595 -15.665   0.307  1.00  0.00    -0.123 NA
ENDBRANCH  21  22
ENDBRANCH  20  21
ENDBRANCH   2  20
TORSDOF 7
ENDMDL
MODEL 10
REMARK VINA RESULT:      -7.2      3.471      6.705
REMARK  7 active torsions:
REMARK  status: ('A' for Active; 'I' for Inactive)
REMARK    1  A    between atoms: O_2  and  C_3 
REMARK    2  A    between atoms: C_6  and  C_7 
REMARK    3  A    between atoms: C_7  and  N_8 
REMARK    4  A    between atoms: C_7  and  C_23 
REMARK       I    between atoms: N_8  and  C_9 
REMARK    5  A    between atoms: C_9  and  C_10 
REMARK    6  A    between atoms: C_10  and  S_11 
REMARK    7  A    between atoms: S_11  and  C_12 
ROOT
HETATM    1  N   UNL     1      40.997 -15.584   1.539  1.00  0.00    -0.348 N 
HETATM    2  C   UNL     1      39.791 -15.018   1.194  1.00  0.00     0.228 C 
HETATM    3  O   UNL     1      38.805 -15.052   1.928  1.00  0.00    -0.273 OA
HETATM    4  H   UNL     1      41.770 -15.510   0.894  1.00  0.00     0.163 HD
ENDROOT
BRANCH   1   5
HETATM    5  C   UNL     1      41.216 -16.176   2.847  1.00  0.00     0.151 C 
BRANCH   5   6
HETATM    6  C   UNL     1      42.160 -17.373   2.785  1.00  0.00    -0.031 A 
HETATM    7  C   UNL     1      42.718 -17.836   1.585  1.00  0.00     0.012 A 
HETATM    8  C   UNL     1      43.624 -18.902   1.584  1.00  0.00     0.037 A 
HETATM    9  C   UNL     1      44.002 -19.518   2.778  1.00  0.00     0.068 A 
HETATM   10  C   UNL     1      43.441 -19.081   3.976  1.00  0.00     0.037 A 
HETATM   11  C   UNL     1      42.531 -18.017   3.978  1.00  0.00     0.012 A 
BRANCH   9  12
HETATM   12  O   UNL     1      44.913 -20.530   2.642  1.00  0.00    -0.356 OA
HETATM   13  C   UNL     1      44.386 -21.810   2.313  1.00  0.00     0.210 C 
ENDBRANCH   9  12
ENDBRANCH   5   6
BRANCH   5  14
HETATM   14  C   UNL     1      41.666 -15.133   3.865  1.00  0.00    -0.031 A 
HETATM   15  C   UNL     1      40.792 -14.750   4.897  1.00  0.00     0.009 A 
HETATM   16  C   UNL     1      41.181 -13.809   5.852  1.00  0.00     0.001 A 
HETATM   17  C   UNL     1      42.451 -13.241   5.795  1.00  0.00     0.000 A 
HETATM   18  C   UNL     1      43.332 -13.610   4.781  1.00  0.00     0.001 A 
HETATM   19  C   UNL     1      42.944 -14.548   3.823  1.00  0.00     0.009 A 
ENDBRANCH   5  14
ENDBRANCH   1   5
BRANCH   2  20
HETATM   20  C   UNL     1      39.766 -14.266  -0.125  1.00  0.00     0.185 C 
BRANCH  20  21
HETATM   21  S   UNL     1      41.196 -14.681  -1.173  1.00  0.00    -0.081 SA
BRANCH  21  22
HETATM   22  C   UNL     1      41.897 -13.109  -1.346  1.00  0.00     0.192 A 
HETATM   23  N   UNL     1      41.700 -12.283  -2.422  1.00  0.00    -0.311 N 
HETATM   24  C   UNL     1      42.419 -11.142  -2.139  1.00  0.00     0.130 A 
HETATM   25  C   UNL     1      40.935 -12.574  -3.618  1.00  0.00     0.133 C 
HETATM   26  C   UNL     1      42.515  -9.922  -2.990  1.00  0.00     0.081 C 
HETATM   27  N   UNL     1      43.011 -11.291  -0.971  1.00  0.00    -0.134 NA
HETATM   28  C   UNL     1      42.599 -10.227  -4.480  1.00  0.00     0.008 C 
HETATM   29  C   UNL     1      41.243 -10.523  -5.120  1.00  0.00     0.002 C 
HETATM   30  C   UNL     1      40.283 -11.365  -4.282  1.00  0.00     0.020 C 
HETATM   31  N   UNL     1      42.686 -12.526  -0.477  1.00  0.00    -0.123 NA
ENDBRANCH  21  22
ENDBRANCH  20  21
ENDBRANCH   2  20
TORSDOF 7
ENDMDL
