MODEL 1
REMARK VINA RESULT:      -9.2      0.000      0.000
REMARK  7 active torsions:
REMARK  status: ('A' for Active; 'I' for Inactive)
REMARK    1  A    between atoms: O_2  and  C_3 
REMARK    2  A    between atoms: C_6  and  C_7 
REMARK    3  A    between atoms: C_11  and  C_12 
REMARK       I    between atoms: C_12  and  N_13 
REMARK    4  A    between atoms: N_13  and  N_14 
REMARK       I    between atoms: N_14  and  C_15 
REMARK    5  A    between atoms: C_15  and  C_16 
REMARK    6  A    between atoms: C_16  and  C_17 
REMARK    7  A    between atoms: C_17  and  C_18 
ROOT
HETATM    1  C   UNL     1      42.879 -13.450   6.091  1.00  0.00     0.288 C 
HETATM    2  N   UNL     1      43.695 -13.505   7.202  1.00  0.00    -0.262 N 
HETATM    3  O   UNL     1      42.053 -12.552   5.941  1.00  0.00    -0.264 OA
HETATM    4  H   UNL     1      44.417 -14.207   7.346  1.00  0.00     0.190 HD
ENDROOT
BRANCH   1   5
HETATM    5  C   UNL     1      43.073 -14.493   5.125  1.00  0.00     0.121 A 
HETATM    6  N   UNL     1      43.305 -14.217   3.808  1.00  0.00    -0.272 N 
HETATM    7  N   UNL     1      43.509 -15.300   3.045  1.00  0.00    -0.174 NA
HETATM    8  H   UNL     1      43.349 -13.299   3.375  1.00  0.00     0.189 HD
HETATM    9  C   UNL     1      43.389 -16.338   3.888  1.00  0.00     0.089 A 
HETATM   10  C   UNL     1      43.103 -15.872   5.202  1.00  0.00     0.071 A 
BRANCH   9  11
HETATM   11  C   UNL     1      43.578 -17.721   3.440  1.00  0.00    -0.005 A 
HETATM   12  C   UNL     1      43.379 -18.062   2.094  1.00  0.00     0.016 A 
HETATM   13  C   UNL     1      43.598 -19.369   1.640  1.00  0.00     0.037 A 
HETATM   14  C   UNL     1      44.017 -20.357   2.529  1.00  0.00     0.068 A 
HETATM   15  C   UNL     1      44.191 -20.031   3.875  1.00  0.00     0.037 A 
HETATM   16  C   UNL     1      43.978 -18.725   4.330  1.00  0.00     0.016 A 
BRANCH  14  17
HETATM   17  O   UNL     1      44.278 -21.662   2.215  1.00  0.00    -0.356 OA
HETATM   18  C   UNL     1      44.653 -22.513   3.291  1.00  0.00     0.210 C 
ENDBRANCH  14  17
ENDBRANCH   9  11
ENDBRANCH   1   5
BRANCH   2  19
HETATM   19  N   UNL     1      43.619 -12.479   8.148  1.00  0.00    -0.267 N 
HETATM   20  C   UNL     1      44.720 -12.247   8.943  1.00  0.00     0.236 C 
HETATM   21  O   UNL     1      45.719 -12.963   8.920  1.00  0.00    -0.272 OA
HETATM   22  H   UNL     1      42.848 -11.820   8.045  1.00  0.00     0.190 HD
BRANCH  20  23
HETATM   23  C   UNL     1      44.591 -11.045   9.845  1.00  0.00     0.109 C 
BRANCH  23  24
HETATM   24  C   UNL     1      43.126 -10.671  10.049  1.00  0.00     0.048 C 
BRANCH  24  25
HETATM   25  C   UNL     1      42.801 -10.451  11.507  1.00  0.00    -0.058 A 
HETATM   26  C   UNL     1      41.645 -11.005  12.071  1.00  0.00     0.009 A 
HETATM   27  C   UNL     1      41.343 -10.792  13.419  1.00  0.00     0.024 A 
HETATM   28  C   UNL     1      42.195 -10.022  14.206  1.00  0.00     0.034 A 
HETATM   29 CL   UNL     1      41.823  -9.759  15.864  1.00  0.00    -0.084 Cl
HETATM   30  C   UNL     1      43.347  -9.462  13.657  1.00  0.00     0.024 A 
HETATM   31  C   UNL     1      43.649  -9.677  12.311  1.00  0.00     0.009 A 
ENDBRANCH  24  25
ENDBRANCH  23  24
ENDBRANCH  20  23
ENDBRANCH   2  19
TORSDOF 7
ENDMDL
MODEL 2
REMARK VINA RESULT:      -8.4      2.498      3.027
REMARK  7 active torsions:
REMARK  status: ('A' for Active; 'I' for Inactive)
REMARK    1  A    between atoms: O_2  and  C_3 
REMARK    2  A    between atoms: C_6  and  C_7 
REMARK    3  A    between atoms: C_11  and  C_12 
REMARK       I    between atoms: C_12  and  N_13 
REMARK    4  A    between atoms: N_13  and  N_14 
REMARK       I    between atoms: N_14  and  C_15 
REMARK    5  A    between atoms: C_15  and  C_16 
REMARK    6  A    between atoms: C_16  and  C_17 
REMARK    7  A    between atoms: C_17  and  C_18 
ROOT
HETATM    1  C   UNL     1      39.689 -13.630   5.169  1.00  0.00     0.288 C 
HETATM    2  N   UNL     1      39.835 -13.656   6.539  1.00  0.00    -0.262 N 
HETATM    3  O   UNL     1      39.130 -12.695   4.597  1.00  0.00    -0.264 OA
HETATM    4  H   UNL     1      40.324 -14.389   7.048  1.00  0.00     0.190 HD
ENDROOT
BRANCH   1   5
HETATM    5  C   UNL     1      40.243 -14.750   4.463  1.00  0.00     0.121 A 
HETATM    6  N   UNL     1      39.766 -15.136   3.243  1.00  0.00    -0.272 N 
HETATM    7  N   UNL     1      40.421 -16.170   2.698  1.00  0.00    -0.174 NA
HETATM    8  H   UNL     1      38.999 -14.716   2.727  1.00  0.00     0.189 HD
HETATM    9  C   UNL     1      41.359 -16.496   3.602  1.00  0.00     0.089 A 
HETATM   10  C   UNL     1      41.271 -15.632   4.731  1.00  0.00     0.071 A 
BRANCH   9  11
HETATM   11  C   UNL     1      42.319 -17.576   3.363  1.00  0.00    -0.005 A 
HETATM   12  C   UNL     1      42.960 -18.205   4.441  1.00  0.00     0.016 A 
HETATM   13  C   UNL     1      43.848 -19.269   4.233  1.00  0.00     0.037 A 
HETATM   14  C   UNL     1      44.110 -19.719   2.941  1.00  0.00     0.068 A 
HETATM   15  C   UNL     1      43.496 -19.081   1.861  1.00  0.00     0.037 A 
HETATM   16  C   UNL     1      42.605 -18.021   2.066  1.00  0.00     0.016 A 
BRANCH  14  17
HETATM   17  O   UNL     1      44.940 -20.751   2.602  1.00  0.00    -0.356 OA
HETATM   18  C   UNL     1      44.322 -21.923   2.088  1.00  0.00     0.210 C 
ENDBRANCH  14  17
ENDBRANCH   9  11
ENDBRANCH   1   5
BRANCH   2  19
HETATM   19  N   UNL     1      39.391 -12.562   7.288  1.00  0.00    -0.267 N 
HETATM   20  C   UNL     1      40.239 -11.485   7.429  1.00  0.00     0.236 C 
HETATM   21  O   UNL     1      41.394 -11.489   7.010  1.00  0.00    -0.272 OA
HETATM   22  H   UNL     1      38.393 -12.526   7.494  1.00  0.00     0.190 HD
BRANCH  20  23
HETATM   23  C   UNL     1      39.629 -10.305   8.144  1.00  0.00     0.109 C 
BRANCH  23  24
HETATM   24  C   UNL     1      39.198 -10.688   9.557  1.00  0.00     0.048 C 
BRANCH  24  25
HETATM   25  C   UNL     1      40.272 -10.381  10.573  1.00  0.00    -0.058 A 
HETATM   26  C   UNL     1      40.617 -11.322  11.552  1.00  0.00     0.009 A 
HETATM   27  C   UNL     1      41.606 -11.031  12.496  1.00  0.00     0.024 A 
HETATM   28  C   UNL     1      42.249  -9.796  12.466  1.00  0.00     0.034 A 
HETATM   29 CL   UNL     1      43.465  -9.437  13.629  1.00  0.00    -0.084 Cl
HETATM   30  C   UNL     1      41.914  -8.850  11.501  1.00  0.00     0.024 A 
HETATM   31  C   UNL     1      40.928  -9.142  10.556  1.00  0.00     0.009 A 
ENDBRANCH  24  25
ENDBRANCH  23  24
ENDBRANCH  20  23
ENDBRANCH   2  19
TORSDOF 7
ENDMDL
MODEL 3
REMARK VINA RESULT:      -8.2      8.789     12.433
REMARK  7 active torsions:
REMARK  status: ('A' for Active; 'I' for Inactive)
REMARK    1  A    between atoms: O_2  and  C_3 
REMARK    2  A    between atoms: C_6  and  C_7 
REMARK    3  A    between atoms: C_11  and  C_12 
REMARK       I    between atoms: C_12  and  N_13 
REMARK    4  A    between atoms: N_13  and  N_14 
REMARK       I    between atoms: N_14  and  C_15 
REMARK    5  A    between atoms: C_15  and  C_16 
REMARK    6  A    between atoms: C_16  and  C_17 
REMARK    7  A    between atoms: C_17  and  C_18 
ROOT
HETATM    1  C   UNL     1      40.612 -15.398  -2.699  1.00  0.00     0.288 C 
HETATM    2  N   UNL     1      40.662 -15.658  -1.346  1.00  0.00    -0.262 N 
HETATM    3  O   UNL     1      41.604 -15.521  -3.417  1.00  0.00    -0.264 OA
HETATM    4  H   UNL     1      39.858 -15.607  -0.725  1.00  0.00     0.190 HD
ENDROOT
BRANCH   1   5
HETATM    5  C   UNL     1      39.333 -14.995  -3.208  1.00  0.00     0.121 A 
HETATM    6  N   UNL     1      38.420 -15.906  -3.659  1.00  0.00    -0.272 N 
HETATM    7  N   UNL     1      37.259 -15.371  -4.059  1.00  0.00    -0.174 NA
HETATM    8  H   UNL     1      38.535 -16.915  -3.702  1.00  0.00     0.189 HD
HETATM    9  C   UNL     1      37.414 -14.049  -3.885  1.00  0.00     0.089 A 
HETATM   10  C   UNL     1      38.709 -13.772  -3.363  1.00  0.00     0.071 A 
BRANCH   9  11
HETATM   11  C   UNL     1      36.337 -13.100  -4.182  1.00  0.00    -0.005 A 
HETATM   12  C   UNL     1      35.160 -13.539  -4.806  1.00  0.00     0.016 A 
HETATM   13  C   UNL     1      34.102 -12.655  -5.057  1.00  0.00     0.037 A 
HETATM   14  C   UNL     1      34.209 -11.315  -4.689  1.00  0.00     0.068 A 
HETATM   15  C   UNL     1      35.388 -10.866  -4.091  1.00  0.00     0.037 A 
HETATM   16  C   UNL     1      36.443 -11.748  -3.834  1.00  0.00     0.016 A 
BRANCH  14  17
HETATM   17  O   UNL     1      33.251 -10.355  -4.863  1.00  0.00    -0.356 OA
HETATM   18  C   UNL     1      33.683  -9.115  -5.409  1.00  0.00     0.210 C 
ENDBRANCH  14  17
ENDBRANCH   9  11
ENDBRANCH   1   5
BRANCH   2  19
HETATM   19  N   UNL     1      41.855 -16.132  -0.792  1.00  0.00    -0.267 N 
HETATM   20  C   UNL     1      41.821 -16.626   0.493  1.00  0.00     0.236 C 
HETATM   21  O   UNL     1      40.816 -16.577   1.199  1.00  0.00    -0.272 OA
HETATM   22  H   UNL     1      42.626 -16.293  -1.439  1.00  0.00     0.190 HD
BRANCH  20  23
HETATM   23  C   UNL     1      43.124 -17.227   0.960  1.00  0.00     0.109 C 
BRANCH  23  24
HETATM   24  C   UNL     1      43.289 -17.065   2.469  1.00  0.00     0.048 C 
BRANCH  24  25
HETATM   25  C   UNL     1      43.773 -18.339   3.119  1.00  0.00    -0.058 A 
HETATM   26  C   UNL     1      44.044 -18.380   4.493  1.00  0.00     0.009 A 
HETATM   27  C   UNL     1      44.500 -19.558   5.090  1.00  0.00     0.024 A 
HETATM   28  C   UNL     1      44.690 -20.699   4.314  1.00  0.00     0.034 A 
HETATM   29 CL   UNL     1      45.253 -22.149   5.048  1.00  0.00    -0.084 Cl
HETATM   30  C   UNL     1      44.427 -20.672   2.946  1.00  0.00     0.024 A 
HETATM   31  C   UNL     1      43.969 -19.496   2.350  1.00  0.00     0.009 A 
ENDBRANCH  24  25
ENDBRANCH  23  24
ENDBRANCH  20  23
ENDBRANCH   2  19
TORSDOF 7
ENDMDL
MODEL 4
REMARK VINA RESULT:      -8.1      1.951      2.251
REMARK  7 active torsions:
REMARK  status: ('A' for Active; 'I' for Inactive)
REMARK    1  A    between atoms: O_2  and  C_3 
REMARK    2  A    between atoms: C_6  and  C_7 
REMARK    3  A    between atoms: C_11  and  C_12 
REMARK       I    between atoms: C_12  and  N_13 
REMARK    4  A    between atoms: N_13  and  N_14 
REMARK       I    between atoms: N_14  and  C_15 
REMARK    5  A    between atoms: C_15  and  C_16 
REMARK    6  A    between atoms: C_16  and  C_17 
REMARK    7  A    between atoms: C_17  and  C_18 
ROOT
HETATM    1  C   UNL     1      41.619 -12.791   5.244  1.00  0.00     0.288 C 
HETATM    2  N   UNL     1      41.433 -12.785   6.610  1.00  0.00    -0.262 N 
HETATM    3  O   UNL     1      41.721 -11.746   4.602  1.00  0.00    -0.264 OA
HETATM    4  H   UNL     1      41.383 -13.624   7.183  1.00  0.00     0.190 HD
ENDROOT
BRANCH   1   5
HETATM    5  C   UNL     1      41.701 -14.087   4.633  1.00  0.00     0.121 A 
HETATM    6  N   UNL     1      40.808 -14.489   3.681  1.00  0.00    -0.272 N 
HETATM    7  N   UNL     1      41.051 -15.708   3.178  1.00  0.00    -0.174 NA
HETATM    8  H   UNL     1      40.018 -13.961   3.324  1.00  0.00     0.189 HD
HETATM    9  C   UNL     1      42.137 -16.139   3.838  1.00  0.00     0.089 A 
HETATM   10  C   UNL     1      42.569 -15.153   4.770  1.00  0.00     0.071 A 
BRANCH   9  11
HETATM   11  C   UNL     1      42.748 -17.440   3.551  1.00  0.00    -0.005 A 
HETATM   12  C   UNL     1      42.488 -18.091   2.336  1.00  0.00     0.016 A 
HETATM   13  C   UNL     1      43.099 -19.313   2.026  1.00  0.00     0.037 A 
HETATM   14  C   UNL     1      43.978 -19.905   2.931  1.00  0.00     0.068 A 
HETATM   15  C   UNL     1      44.221 -19.276   4.153  1.00  0.00     0.037 A 
HETATM   16  C   UNL     1      43.617 -18.052   4.463  1.00  0.00     0.016 A 
BRANCH  14  17
HETATM   17  O   UNL     1      44.647 -21.083   2.747  1.00  0.00    -0.356 OA
HETATM   18  C   UNL     1      44.197 -21.913   1.685  1.00  0.00     0.210 C 
ENDBRANCH  14  17
ENDBRANCH   9  11
ENDBRANCH   1   5
BRANCH   2  19
HETATM   19  N   UNL     1      41.423 -11.562   7.285  1.00  0.00    -0.267 N 
HETATM   20  C   UNL     1      40.262 -11.183   7.924  1.00  0.00     0.236 C 
HETATM   21  O   UNL     1      39.218 -11.826   7.840  1.00  0.00    -0.272 OA
HETATM   22  H   UNL     1      42.329 -11.128   7.458  1.00  0.00     0.190 HD
BRANCH  20  23
HETATM   23  C   UNL     1      40.382  -9.912   8.728  1.00  0.00     0.109 C 
BRANCH  23  24
HETATM   24  C   UNL     1      41.817  -9.700   9.201  1.00  0.00     0.048 C 
BRANCH  24  25
HETATM   25  C   UNL     1      41.928  -9.777  10.705  1.00  0.00    -0.058 A 
HETATM   26  C   UNL     1      40.779  -9.880  11.500  1.00  0.00     0.009 A 
HETATM   27  C   UNL     1      40.885  -9.942  12.892  1.00  0.00     0.024 A 
HETATM   28  C   UNL     1      42.141  -9.898  13.493  1.00  0.00     0.034 A 
HETATM   29 CL   UNL     1      42.271  -9.973  15.207  1.00  0.00    -0.084 Cl
HETATM   30  C   UNL     1      43.291  -9.793  12.715  1.00  0.00     0.024 A 
HETATM   31  C   UNL     1      43.185  -9.734  11.324  1.00  0.00     0.009 A 
ENDBRANCH  24  25
ENDBRANCH  23  24
ENDBRANCH  20  23
ENDBRANCH   2  19
TORSDOF 7
ENDMDL
MODEL 5
REMARK VINA RESULT:      -8.1      1.445      2.133
REMARK  7 active torsions:
REMARK  status: ('A' for Active; 'I' for Inactive)
REMARK    1  A    between atoms: O_2  and  C_3 
REMARK    2  A    between atoms: C_6  and  C_7 
REMARK    3  A    between atoms: C_11  and  C_12 
REMARK       I    between atoms: C_12  and  N_13 
REMARK    4  A    between atoms: N_13  and  N_14 
REMARK       I    between atoms: N_14  and  C_15 
REMARK    5  A    between atoms: C_15  and  C_16 
REMARK    6  A    between atoms: C_16  and  C_17 
REMARK    7  A    between atoms: C_17  and  C_18 
ROOT
HETATM    1  C   UNL     1      43.936 -13.903   7.280  1.00  0.00     0.288 C 
HETATM    2  N   UNL     1      43.068 -12.842   7.133  1.00  0.00    -0.262 N 
HETATM    3  O   UNL     1      44.800 -13.914   8.155  1.00  0.00    -0.264 OA
HETATM    4  H   UNL     1      42.316 -12.810   6.449  1.00  0.00     0.190 HD
ENDROOT
BRANCH   1   5
HETATM    5  C   UNL     1      43.751 -14.990   6.361  1.00  0.00     0.121 A 
HETATM    6  N   UNL     1      42.901 -14.893   5.296  1.00  0.00    -0.272 N 
HETATM    7  N   UNL     1      42.876 -15.977   4.510  1.00  0.00    -0.174 NA
HETATM    8  H   UNL     1      42.320 -14.096   5.049  1.00  0.00     0.189 HD
HETATM    9  C   UNL     1      43.729 -16.838   5.088  1.00  0.00     0.089 A 
HETATM   10  C   UNL     1      44.290 -16.257   6.261  1.00  0.00     0.071 A 
BRANCH   9  11
HETATM   11  C   UNL     1      44.012 -18.152   4.506  1.00  0.00    -0.005 A 
HETATM   12  C   UNL     1      44.558 -19.174   5.297  1.00  0.00     0.016 A 
HETATM   13  C   UNL     1      44.793 -20.450   4.768  1.00  0.00     0.037 A 
HETATM   14  C   UNL     1      44.488 -20.722   3.436  1.00  0.00     0.068 A 
HETATM   15  C   UNL     1      43.969 -19.703   2.635  1.00  0.00     0.037 A 
HETATM   16  C   UNL     1      43.728 -18.429   3.163  1.00  0.00     0.016 A 
BRANCH  14  17
HETATM   17  O   UNL     1      44.655 -21.922   2.802  1.00  0.00    -0.356 OA
HETATM   18  C   UNL     1      44.063 -22.051   1.516  1.00  0.00     0.210 C 
ENDBRANCH  14  17
ENDBRANCH   9  11
ENDBRANCH   1   5
BRANCH   2  19
HETATM   19  N   UNL     1      43.136 -11.783   8.042  1.00  0.00    -0.267 N 
HETATM   20  C   UNL     1      42.083 -10.895   8.083  1.00  0.00     0.236 C 
HETATM   21  O   UNL     1      41.143 -10.942   7.293  1.00  0.00    -0.272 OA
HETATM   22  H   UNL     1      43.845 -11.852   8.771  1.00  0.00     0.190 HD
BRANCH  20  23
HETATM   23  C   UNL     1      42.187  -9.860   9.176  1.00  0.00     0.109 C 
BRANCH  23  24
HETATM   24  C   UNL     1      40.957  -9.894  10.078  1.00  0.00     0.048 C 
BRANCH  24  25
HETATM   25  C   UNL     1      41.324  -9.731  11.533  1.00  0.00    -0.058 A 
HETATM   26  C   UNL     1      40.945 -10.695  12.476  1.00  0.00     0.009 A 
HETATM   27  C   UNL     1      41.280 -10.537  13.824  1.00  0.00     0.024 A 
HETATM   28  C   UNL     1      41.991  -9.412  14.233  1.00  0.00     0.034 A 
HETATM   29 CL   UNL     1      42.402  -9.216  15.892  1.00  0.00    -0.084 Cl
HETATM   30  C   UNL     1      42.373  -8.444  13.307  1.00  0.00     0.024 A 
HETATM   31  C   UNL     1      42.041  -8.604  11.960  1.00  0.00     0.009 A 
ENDBRANCH  24  25
ENDBRANCH  23  24
ENDBRANCH  20  23
ENDBRANCH   2  19
TORSDOF 7
ENDMDL
MODEL 6
REMARK VINA RESULT:      -8.1      4.111     11.295
REMARK  7 active torsions:
REMARK  status: ('A' for Active; 'I' for Inactive)
REMARK    1  A    between atoms: O_2  and  C_3 
REMARK    2  A    between atoms: C_6  and  C_7 
REMARK    3  A    between atoms: C_11  and  C_12 
REMARK       I    between atoms: C_12  and  N_13 
REMARK    4  A    between atoms: N_13  and  N_14 
REMARK       I    between atoms: N_14  and  C_15 
REMARK    5  A    between atoms: C_15  and  C_16 
REMARK    6  A    between atoms: C_16  and  C_17 
REMARK    7  A    between atoms: C_17  and  C_18 
ROOT
HETATM    1  C   UNL     1      41.579 -11.419   6.591  1.00  0.00     0.288 C 
HETATM    2  N   UNL     1      41.950 -12.716   6.306  1.00  0.00    -0.262 N 
HETATM    3  O   UNL     1      41.438 -10.578   5.704  1.00  0.00    -0.264 OA
HETATM    4  H   UNL     1      42.040 -13.450   7.003  1.00  0.00     0.190 HD
ENDROOT
BRANCH   1   5
HETATM    5  C   UNL     1      41.355 -11.127   7.978  1.00  0.00     0.121 A 
HETATM    6  N   UNL     1      40.135 -11.314   8.563  1.00  0.00    -0.272 N 
HETATM    7  N   UNL     1      40.104 -11.037   9.873  1.00  0.00    -0.174 NA
HETATM    8  H   UNL     1      39.287 -11.646   8.113  1.00  0.00     0.189 HD
HETATM    9  C   UNL     1      41.349 -10.630  10.166  1.00  0.00     0.089 A 
HETATM   10  C   UNL     1      42.162 -10.662   8.998  1.00  0.00     0.071 A 
BRANCH   9  11
HETATM   11  C   UNL     1      41.740 -10.260  11.529  1.00  0.00    -0.005 A 
HETATM   12  C   UNL     1      43.091 -10.059  11.849  1.00  0.00     0.016 A 
HETATM   13  C   UNL     1      43.478  -9.662  13.135  1.00  0.00     0.037 A 
HETATM   14  C   UNL     1      42.517  -9.463  14.124  1.00  0.00     0.068 A 
HETATM   15  C   UNL     1      41.173  -9.686  13.821  1.00  0.00     0.037 A 
HETATM   16  C   UNL     1      40.783 -10.078  12.535  1.00  0.00     0.016 A 
BRANCH  14  17
HETATM   17  O   UNL     1      42.758  -9.064  15.410  1.00  0.00    -0.356 OA
HETATM   18  C   UNL     1      41.739  -9.338  16.363  1.00  0.00     0.210 C 
ENDBRANCH  14  17
ENDBRANCH   9  11
ENDBRANCH   1   5
BRANCH   2  19
HETATM   19  N   UNL     1      42.108 -13.095   4.970  1.00  0.00    -0.267 N 
HETATM   20  C   UNL     1      43.323 -13.618   4.584  1.00  0.00     0.236 C 
HETATM   21  O   UNL     1      44.293 -13.672   5.337  1.00  0.00    -0.272 OA
HETATM   22  H   UNL     1      41.257 -13.175   4.414  1.00  0.00     0.190 HD
BRANCH  20  23
HETATM   23  C   UNL     1      43.361 -14.113   3.159  1.00  0.00     0.109 C 
BRANCH  23  24
HETATM   24  C   UNL     1      42.290 -15.174   2.922  1.00  0.00     0.048 C 
BRANCH  24  25
HETATM   25  C   UNL     1      42.883 -16.559   2.835  1.00  0.00    -0.058 A 
HETATM   26  C   UNL     1      43.412 -17.034   1.628  1.00  0.00     0.009 A 
HETATM   27  C   UNL     1      43.953 -18.320   1.549  1.00  0.00     0.024 A 
HETATM   28  C   UNL     1      43.963 -19.137   2.677  1.00  0.00     0.034 A 
HETATM   29 CL   UNL     1      44.627 -20.721   2.580  1.00  0.00    -0.084 Cl
HETATM   30  C   UNL     1      43.438 -18.680   3.884  1.00  0.00     0.024 A 
HETATM   31  C   UNL     1      42.900 -17.393   3.962  1.00  0.00     0.009 A 
ENDBRANCH  24  25
ENDBRANCH  23  24
ENDBRANCH  20  23
ENDBRANCH   2  19
TORSDOF 7
ENDMDL
MODEL 7
REMARK VINA RESULT:      -7.5      8.450     10.496
REMARK  7 active torsions:
REMARK  status: ('A' for Active; 'I' for Inactive)
REMARK    1  A    between atoms: O_2  and  C_3 
REMARK    2  A    between atoms: C_6  and  C_7 
REMARK    3  A    between atoms: C_11  and  C_12 
REMARK       I    between atoms: C_12  and  N_13 
REMARK    4  A    between atoms: N_13  and  N_14 
REMARK       I    between atoms: N_14  and  C_15 
REMARK    5  A    between atoms: C_15  and  C_16 
REMARK    6  A    between atoms: C_16  and  C_17 
REMARK    7  A    between atoms: C_17  and  C_18 
ROOT
HETATM    1  C   UNL     1      41.257 -14.501  -0.036  1.00  0.00     0.288 C 
HETATM    2  N   UNL     1      42.182 -13.503   0.185  1.00  0.00    -0.262 N 
HETATM    3  O   UNL     1      40.293 -14.333  -0.781  1.00  0.00    -0.264 OA
HETATM    4  H   UNL     1      43.013 -13.613   0.762  1.00  0.00     0.190 HD
ENDROOT
BRANCH   1   5
HETATM    5  C   UNL     1      41.504 -15.740   0.644  1.00  0.00     0.121 A 
HETATM    6  N   UNL     1      40.601 -16.765   0.619  1.00  0.00    -0.272 N 
HETATM    7  N   UNL     1      41.002 -17.869   1.264  1.00  0.00    -0.174 NA
HETATM    8  H   UNL     1      39.695 -16.768   0.160  1.00  0.00     0.189 HD
HETATM    9  C   UNL     1      42.213 -17.557   1.753  1.00  0.00     0.089 A 
HETATM   10  C   UNL     1      42.558 -16.223   1.394  1.00  0.00     0.071 A 
BRANCH   9  11
HETATM   11  C   UNL     1      43.013 -18.526   2.507  1.00  0.00    -0.005 A 
HETATM   12  C   UNL     1      43.485 -19.692   1.885  1.00  0.00     0.016 A 
HETATM   13  C   UNL     1      44.288 -20.607   2.578  1.00  0.00     0.037 A 
HETATM   14  C   UNL     1      44.629 -20.370   3.908  1.00  0.00     0.068 A 
HETATM   15  C   UNL     1      44.142 -19.226   4.542  1.00  0.00     0.037 A 
HETATM   16  C   UNL     1      43.344 -18.308   3.850  1.00  0.00     0.016 A 
BRANCH  14  17
HETATM   17  O   UNL     1      45.412 -21.172   4.691  1.00  0.00    -0.356 OA
HETATM   18  C   UNL     1      44.879 -22.443   5.036  1.00  0.00     0.210 C 
ENDBRANCH  14  17
ENDBRANCH   9  11
ENDBRANCH   1   5
BRANCH   2  19
HETATM   19  N   UNL     1      42.051 -12.295  -0.504  1.00  0.00    -0.267 N 
HETATM   20  C   UNL     1      41.726 -11.168   0.219  1.00  0.00     0.236 C 
HETATM   21  O   UNL     1      41.453 -11.202   1.417  1.00  0.00    -0.272 OA
HETATM   22  H   UNL     1      42.421 -12.269  -1.454  1.00  0.00     0.190 HD
BRANCH  20  23
HETATM   23  C   UNL     1      41.728  -9.892  -0.587  1.00  0.00     0.109 C 
BRANCH  23  24
HETATM   24  C   UNL     1      43.005  -9.771  -1.413  1.00  0.00     0.048 C 
BRANCH  24  25
HETATM   25  C   UNL     1      42.711  -9.693  -2.892  1.00  0.00    -0.058 A 
HETATM   26  C   UNL     1      42.544  -8.453  -3.521  1.00  0.00     0.009 A 
HETATM   27  C   UNL     1      42.263  -8.385  -4.888  1.00  0.00     0.024 A 
HETATM   28  C   UNL     1      42.144  -9.558  -5.629  1.00  0.00     0.034 A 
HETATM   29 CL   UNL     1      41.797  -9.474  -7.312  1.00  0.00    -0.084 Cl
HETATM   30  C   UNL     1      42.304 -10.798  -5.017  1.00  0.00     0.024 A 
HETATM   31  C   UNL     1      42.588 -10.866  -3.651  1.00  0.00     0.009 A 
ENDBRANCH  24  25
ENDBRANCH  23  24
ENDBRANCH  20  23
ENDBRANCH   2  19
TORSDOF 7
ENDMDL
MODEL 8
REMARK VINA RESULT:      -7.5      7.548     11.235
REMARK  7 active torsions:
REMARK  status: ('A' for Active; 'I' for Inactive)
REMARK    1  A    between atoms: O_2  and  C_3 
REMARK    2  A    between atoms: C_6  and  C_7 
REMARK    3  A    between atoms: C_11  and  C_12 
REMARK       I    between atoms: C_12  and  N_13 
REMARK    4  A    between atoms: N_13  and  N_14 
REMARK       I    between atoms: N_14  and  C_15 
REMARK    5  A    between atoms: C_15  and  C_16 
REMARK    6  A    between atoms: C_16  and  C_17 
REMARK    7  A    between atoms: C_17  and  C_18 
ROOT
HETATM    1  C   UNL     1      41.613 -15.421   0.125  1.00  0.00     0.288 C 
HETATM    2  N   UNL     1      41.943 -14.781   1.300  1.00  0.00    -0.262 N 
HETATM    3  O   UNL     1      41.685 -16.644   0.013  1.00  0.00    -0.264 OA
HETATM    4  H   UNL     1      41.860 -13.778   1.447  1.00  0.00     0.190 HD
ENDROOT
BRANCH   1   5
HETATM    5  C   UNL     1      41.167 -14.571  -0.942  1.00  0.00     0.121 A 
HETATM    6  N   UNL     1      39.861 -14.544  -1.340  1.00  0.00    -0.272 N 
HETATM    7  N   UNL     1      39.601 -13.665  -2.318  1.00  0.00    -0.174 NA
HETATM    8  H   UNL     1      39.097 -15.099  -0.965  1.00  0.00     0.189 HD
HETATM    9  C   UNL     1      40.787 -13.100  -2.593  1.00  0.00     0.089 A 
HETATM   10  C   UNL     1      41.799 -13.652  -1.757  1.00  0.00     0.071 A 
BRANCH   9  11
HETATM   11  C   UNL     1      40.924 -12.046  -3.602  1.00  0.00    -0.005 A 
HETATM   12  C   UNL     1      42.194 -11.661  -4.056  1.00  0.00     0.016 A 
HETATM   13  C   UNL     1      42.341 -10.686  -5.051  1.00  0.00     0.037 A 
HETATM   14  C   UNL     1      41.217 -10.078  -5.606  1.00  0.00     0.068 A 
HETATM   15  C   UNL     1      39.950 -10.437  -5.141  1.00  0.00     0.037 A 
HETATM   16  C   UNL     1      39.801 -11.414  -4.150  1.00  0.00     0.016 A 
BRANCH  14  17
HETATM   17  O   UNL     1      41.220  -9.127  -6.588  1.00  0.00    -0.356 OA
HETATM   18  C   UNL     1      41.916  -7.920  -6.305  1.00  0.00     0.210 C 
ENDBRANCH  14  17
ENDBRANCH   9  11
ENDBRANCH   1   5
BRANCH   2  19
HETATM   19  N   UNL     1      42.309 -15.549   2.409  1.00  0.00    -0.267 N 
HETATM   20  C   UNL     1      41.330 -15.882   3.320  1.00  0.00     0.236 C 
HETATM   21  O   UNL     1      40.181 -15.452   3.248  1.00  0.00    -0.272 OA
HETATM   22  H   UNL     1      43.219 -16.006   2.366  1.00  0.00     0.190 HD
BRANCH  20  23
HETATM   23  C   UNL     1      41.792 -16.814   4.413  1.00  0.00     0.109 C 
BRANCH  23  24
HETATM   24  C   UNL     1      43.301 -17.028   4.346  1.00  0.00     0.048 C 
BRANCH  24  25
HETATM   25  C   UNL     1      43.649 -18.395   3.807  1.00  0.00    -0.058 A 
HETATM   26  C   UNL     1      44.471 -19.262   4.540  1.00  0.00     0.009 A 
HETATM   27  C   UNL     1      44.799 -20.523   4.034  1.00  0.00     0.024 A 
HETATM   28  C   UNL     1      44.308 -20.919   2.793  1.00  0.00     0.034 A 
HETATM   29 CL   UNL     1      44.712 -22.471   2.170  1.00  0.00    -0.084 Cl
HETATM   30  C   UNL     1      43.491 -20.067   2.052  1.00  0.00     0.024 A 
HETATM   31  C   UNL     1      43.162 -18.808   2.559  1.00  0.00     0.009 A 
ENDBRANCH  24  25
ENDBRANCH  23  24
ENDBRANCH  20  23
ENDBRANCH   2  19
TORSDOF 7
ENDMDL
MODEL 9
REMARK VINA RESULT:      -7.5      7.398     10.894
REMARK  7 active torsions:
REMARK  status: ('A' for Active; 'I' for Inactive)
REMARK    1  A    between atoms: O_2  and  C_3 
REMARK    2  A    between atoms: C_6  and  C_7 
REMARK    3  A    between atoms: C_11  and  C_12 
REMARK       I    between atoms: C_12  and  N_13 
REMARK    4  A    between atoms: N_13  and  N_14 
REMARK       I    between atoms: N_14  and  C_15 
REMARK    5  A    between atoms: C_15  and  C_16 
REMARK    6  A    between atoms: C_16  and  C_17 
REMARK    7  A    between atoms: C_17  and  C_18 
ROOT
HETATM    1  C   UNL     1      41.181 -15.374   0.575  1.00  0.00     0.288 C 
HETATM    2  N   UNL     1      41.544 -14.699   1.721  1.00  0.00    -0.262 N 
HETATM    3  O   UNL     1      41.137 -16.603   0.537  1.00  0.00    -0.264 OA
HETATM    4  H   UNL     1      41.557 -13.686   1.807  1.00  0.00     0.190 HD
ENDROOT
BRANCH   1   5
HETATM    5  C   UNL     1      40.845 -14.552  -0.551  1.00  0.00     0.121 A 
HETATM    6  N   UNL     1      39.553 -14.399  -0.968  1.00  0.00    -0.272 N 
HETATM    7  N   UNL     1      39.404 -13.563  -2.005  1.00  0.00    -0.174 NA
HETATM    8  H   UNL     1      38.727 -14.834  -0.568  1.00  0.00     0.189 HD
HETATM    9  C   UNL     1      40.650 -13.161  -2.301  1.00  0.00     0.089 A 
HETATM   10  C   UNL     1      41.585 -13.770  -1.416  1.00  0.00     0.071 A 
BRANCH   9  11
HETATM   11  C   UNL     1      40.915 -12.199  -3.374  1.00  0.00    -0.005 A 
HETATM   12  C   UNL     1      39.854 -11.547  -4.019  1.00  0.00     0.016 A 
HETATM   13  C   UNL     1      40.091 -10.592  -5.016  1.00  0.00     0.037 A 
HETATM   14  C   UNL     1      41.396 -10.277  -5.386  1.00  0.00     0.068 A 
HETATM   15  C   UNL     1      42.458 -10.941  -4.768  1.00  0.00     0.037 A 
HETATM   16  C   UNL     1      42.224 -11.891  -3.768  1.00  0.00     0.016 A 
BRANCH  14  17
HETATM   17  O   UNL     1      41.765  -9.360  -6.331  1.00  0.00    -0.356 OA
HETATM   18  C   UNL     1      41.371  -9.630  -7.670  1.00  0.00     0.210 C 
ENDBRANCH  14  17
ENDBRANCH   9  11
ENDBRANCH   1   5
BRANCH   2  19
HETATM   19  N   UNL     1      41.809 -15.431   2.882  1.00  0.00    -0.267 N 
HETATM   20  C   UNL     1      43.064 -15.329   3.442  1.00  0.00     0.236 C 
HETATM   21  O   UNL     1      43.979 -14.704   2.911  1.00  0.00    -0.272 OA
HETATM   22  H   UNL     1      41.002 -15.817   3.372  1.00  0.00     0.190 HD
BRANCH  20  23
HETATM   23  C   UNL     1      43.217 -16.053   4.756  1.00  0.00     0.109 C 
BRANCH  23  24
HETATM   24  C   UNL     1      42.347 -17.306   4.794  1.00  0.00     0.048 C 
BRANCH  24  25
HETATM   25  C   UNL     1      42.993 -18.459   4.065  1.00  0.00    -0.058 A 
HETATM   26  C   UNL     1      42.616 -18.774   2.752  1.00  0.00     0.009 A 
HETATM   27  C   UNL     1      43.210 -19.848   2.084  1.00  0.00     0.024 A 
HETATM   28  C   UNL     1      44.180 -20.613   2.728  1.00  0.00     0.034 A 
HETATM   29 CL   UNL     1      44.909 -21.936   1.905  1.00  0.00    -0.084 Cl
HETATM   30  C   UNL     1      44.562 -20.313   4.033  1.00  0.00     0.024 A 
HETATM   31  C   UNL     1      43.970 -19.238   4.700  1.00  0.00     0.009 A 
ENDBRANCH  24  25
ENDBRANCH  23  24
ENDBRANCH  20  23
ENDBRANCH   2  19
TORSDOF 7
ENDMDL
MODEL 10
REMARK VINA RESULT:      -7.4      8.523     11.382
REMARK  7 active torsions:
REMARK  status: ('A' for Active; 'I' for Inactive)
REMARK    1  A    between atoms: O_2  and  C_3 
REMARK    2  A    between atoms: C_6  and  C_7 
REMARK    3  A    between atoms: C_11  and  C_12 
REMARK       I    between atoms: C_12  and  N_13 
REMARK    4  A    between atoms: N_13  and  N_14 
REMARK       I    between atoms: N_14  and  C_15 
REMARK    5  A    between atoms: C_15  and  C_16 
REMARK    6  A    between atoms: C_16  and  C_17 
REMARK    7  A    between atoms: C_17  and  C_18 
ROOT
HETATM    1  C   UNL     1      41.216 -14.643  -0.266  1.00  0.00     0.288 C 
HETATM    2  N   UNL     1      40.125 -14.713  -1.106  1.00  0.00    -0.262 N 
HETATM    3  O   UNL     1      41.871 -13.609  -0.145  1.00  0.00    -0.264 OA
HETATM    4  H   UNL     1      39.534 -15.535  -1.207  1.00  0.00     0.190 HD
ENDROOT
BRANCH   1   5
HETATM    5  C   UNL     1      41.519 -15.842   0.462  1.00  0.00     0.121 A 
HETATM    6  N   UNL     1      40.678 -16.919   0.453  1.00  0.00    -0.272 N 
HETATM    7  N   UNL     1      41.127 -17.974   1.145  1.00  0.00    -0.174 NA
HETATM    8  H   UNL     1      39.785 -16.992  -0.026  1.00  0.00     0.189 HD
HETATM    9  C   UNL     1      42.305 -17.575   1.650  1.00  0.00     0.089 A 
HETATM   10  C   UNL     1      42.580 -16.236   1.252  1.00  0.00     0.071 A 
BRANCH   9  11
HETATM   11  C   UNL     1      43.141 -18.469   2.456  1.00  0.00    -0.005 A 
HETATM   12  C   UNL     1      43.515 -18.105   3.759  1.00  0.00     0.016 A 
HETATM   13  C   UNL     1      44.277 -18.966   4.559  1.00  0.00     0.037 A 
HETATM   14  C   UNL     1      44.680 -20.205   4.066  1.00  0.00     0.068 A 
HETATM   15  C   UNL     1      44.334 -20.563   2.761  1.00  0.00     0.037 A 
HETATM   16  C   UNL     1      43.569 -19.707   1.962  1.00  0.00     0.016 A 
BRANCH  14  17
HETATM   17  O   UNL     1      45.411 -21.141   4.743  1.00  0.00    -0.356 OA
HETATM   18  C   UNL     1      44.851 -22.445   4.834  1.00  0.00     0.210 C 
ENDBRANCH  14  17
ENDBRANCH   9  11
ENDBRANCH   1   5
BRANCH   2  19
HETATM   19  N   UNL     1      39.721 -13.562  -1.788  1.00  0.00    -0.267 N 
HETATM   20  C   UNL     1      40.091 -13.427  -3.109  1.00  0.00     0.236 C 
HETATM   21  O   UNL     1      40.836 -14.223  -3.675  1.00  0.00    -0.272 OA
HETATM   22  H   UNL     1      38.995 -13.001  -1.345  1.00  0.00     0.190 HD
BRANCH  20  23
HETATM   23  C   UNL     1      39.507 -12.217  -3.795  1.00  0.00     0.109 C 
BRANCH  23  24
HETATM   24  C   UNL     1      39.995 -10.929  -3.138  1.00  0.00     0.048 C 
BRANCH  24  25
HETATM   25  C   UNL     1      40.871 -10.123  -4.066  1.00  0.00    -0.058 A 
HETATM   26  C   UNL     1      41.484  -8.944  -3.624  1.00  0.00     0.009 A 
HETATM   27  C   UNL     1      42.288  -8.196  -4.489  1.00  0.00     0.024 A 
HETATM   28  C   UNL     1      42.478  -8.624  -5.800  1.00  0.00     0.034 A 
HETATM   29 CL   UNL     1      43.466  -7.702  -6.865  1.00  0.00    -0.084 Cl
HETATM   30  C   UNL     1      41.872  -9.793  -6.255  1.00  0.00     0.024 A 
HETATM   31  C   UNL     1      41.071 -10.541  -5.390  1.00  0.00     0.009 A 
ENDBRANCH  24  25
ENDBRANCH  23  24
ENDBRANCH  20  23
ENDBRANCH   2  19
TORSDOF 7
ENDMDL
