MODEL 1
REMARK VINA RESULT:      -8.0      0.000      0.000
REMARK  8 active torsions:
REMARK  status: ('A' for Active; 'I' for Inactive)
REMARK    1  A    between atoms: C_2  and  C_3 
REMARK    2  A    between atoms: C_3  and  C_4 
REMARK    3  A    between atoms: C_8  and  C_9 
REMARK       I    between atoms: C_9  and  N_10 
REMARK    4  A    between atoms: N_10  and  C_11 
REMARK    5  A    between atoms: N_10  and  C_17 
REMARK    6  A    between atoms: C_17  and  C_18 
REMARK    7  A    between atoms: C_18  and  O_19 
REMARK    8  A    between atoms: C_18  and  C_20 
ROOT
HETATM    1  C   UNL     1      41.692 -15.262   4.547  1.00  0.00     0.272 C 
HETATM    2  N   UNL     1      42.438 -16.378   4.942  1.00  0.00    -0.339 N 
HETATM    3  O   UNL     1      41.461 -14.334   5.317  1.00  0.00    -0.266 OA
ENDROOT
BRANCH   2   4
HETATM    4  C   UNL     1      43.039 -16.433   6.302  1.00  0.00     0.087 C 
HETATM    5  C   UNL     1      42.420 -17.540   7.174  1.00  0.00     0.025 C 
HETATM    6  C   UNL     1      43.232 -18.824   7.278  1.00  0.00     0.002 C 
HETATM    7  C   UNL     1      44.682 -18.537   7.633  1.00  0.00     0.000 C 
HETATM    8  C   UNL     1      45.341 -17.647   6.592  1.00  0.00     0.002 C 
HETATM    9  C   UNL     1      44.579 -16.344   6.351  1.00  0.00     0.025 C 
ENDBRANCH   2   4
BRANCH   2  10
HETATM   10  C   UNL     1      42.445 -17.656   4.194  1.00  0.00     0.163 C 
BRANCH  10  11
HETATM   11  C   UNL     1      43.759 -17.915   3.424  1.00  0.00     0.169 C 
BRANCH  11  12
HETATM   12  O   UNL     1      43.735 -17.249   2.157  1.00  0.00    -0.389 OA
HETATM   13  H   UNL     1      43.813 -16.296   2.341  1.00  0.00     0.210 HD
ENDBRANCH  11  12
BRANCH  11  14
HETATM   14  C   UNL     1      43.977 -19.396   3.187  1.00  0.00    -0.028 A 
HETATM   15  C   UNL     1      44.594 -20.187   4.165  1.00  0.00     0.010 A 
HETATM   16  C   UNL     1      44.792 -21.553   3.948  1.00  0.00     0.001 A 
HETATM   17  C   UNL     1      44.372 -22.142   2.757  1.00  0.00     0.000 A 
HETATM   18  C   UNL     1      43.748 -21.369   1.781  1.00  0.00     0.001 A 
HETATM   19  C   UNL     1      43.549 -20.005   1.995  1.00  0.00     0.010 A 
ENDBRANCH  11  14
ENDBRANCH  10  11
ENDBRANCH   2  10
BRANCH   1  20
HETATM   20  C   UNL     1      41.128 -15.194   3.221  1.00  0.00     0.119 A 
HETATM   21  N   UNL     1      39.797 -15.456   3.019  1.00  0.00    -0.273 N 
HETATM   22  N   UNL     1      39.403 -15.354   1.741  1.00  0.00    -0.179 NA
HETATM   23  H   UNL     1      39.116 -15.712   3.726  1.00  0.00     0.189 HD
HETATM   24  C   UNL     1      40.484 -14.883   1.109  1.00  0.00     0.057 A 
HETATM   25  C   UNL     1      41.586 -14.764   1.991  1.00  0.00     0.065 A 
BRANCH  24  26
HETATM   26  C   UNL     1      40.415 -14.527  -0.338  1.00  0.00     0.061 C 
BRANCH  26  27
HETATM   27  C   UNL     1      41.125 -15.560  -1.215  1.00  0.00     0.002 C 
HETATM   28  C   UNL     1      40.788 -15.374  -2.686  1.00  0.00     0.005 C 
ENDBRANCH  26  27
ENDBRANCH  24  26
ENDBRANCH   1  20
TORSDOF 8
ENDMDL
MODEL 2
REMARK VINA RESULT:      -7.5      2.008      6.215
REMARK  8 active torsions:
REMARK  status: ('A' for Active; 'I' for Inactive)
REMARK    1  A    between atoms: C_2  and  C_3 
REMARK    2  A    between atoms: C_3  and  C_4 
REMARK    3  A    between atoms: C_8  and  C_9 
REMARK       I    between atoms: C_9  and  N_10 
REMARK    4  A    between atoms: N_10  and  C_11 
REMARK    5  A    between atoms: N_10  and  C_17 
REMARK    6  A    between atoms: C_17  and  C_18 
REMARK    7  A    between atoms: C_18  and  O_19 
REMARK    8  A    between atoms: C_18  and  C_20 
ROOT
HETATM    1  C   UNL     1      40.049 -13.856   4.430  1.00  0.00     0.272 C 
HETATM    2  N   UNL     1      40.292 -13.896   3.053  1.00  0.00    -0.339 N 
HETATM    3  O   UNL     1      39.345 -12.987   4.937  1.00  0.00    -0.266 OA
ENDROOT
BRANCH   2   4
HETATM    4  C   UNL     1      39.634 -12.913   2.149  1.00  0.00     0.087 C 
HETATM    5  C   UNL     1      40.609 -12.321   1.115  1.00  0.00     0.025 C 
HETATM    6  C   UNL     1      40.543 -12.935  -0.276  1.00  0.00     0.002 C 
HETATM    7  C   UNL     1      39.112 -12.999  -0.787  1.00  0.00     0.000 C 
HETATM    8  C   UNL     1      38.232 -13.828   0.135  1.00  0.00     0.002 C 
HETATM    9  C   UNL     1      38.264 -13.345   1.585  1.00  0.00     0.025 C 
ENDBRANCH   2   4
BRANCH   2  10
HETATM   10  C   UNL     1      41.390 -14.680   2.444  1.00  0.00     0.163 C 
BRANCH  10  11
HETATM   11  C   UNL     1      40.934 -16.040   1.870  1.00  0.00     0.169 C 
BRANCH  11  12
HETATM   12  O   UNL     1      39.721 -16.467   2.500  1.00  0.00    -0.389 OA
HETATM   13  H   UNL     1      39.076 -15.749   2.377  1.00  0.00     0.210 HD
ENDBRANCH  11  12
BRANCH  11  14
HETATM   14  C   UNL     1      41.989 -17.108   2.081  1.00  0.00    -0.028 A 
HETATM   15  C   UNL     1      42.916 -17.399   1.071  1.00  0.00     0.010 A 
HETATM   16  C   UNL     1      43.890 -18.381   1.266  1.00  0.00     0.001 A 
HETATM   17  C   UNL     1      43.951 -19.079   2.471  1.00  0.00     0.000 A 
HETATM   18  C   UNL     1      43.042 -18.794   3.487  1.00  0.00     0.001 A 
HETATM   19  C   UNL     1      42.068 -17.812   3.295  1.00  0.00     0.010 A 
ENDBRANCH  11  14
ENDBRANCH  10  11
ENDBRANCH   2  10
BRANCH   1  20
HETATM   20  C   UNL     1      40.665 -14.822   5.307  1.00  0.00     0.119 A 
HETATM   21  N   UNL     1      39.992 -15.961   5.666  1.00  0.00    -0.273 N 
HETATM   22  N   UNL     1      40.680 -16.775   6.481  1.00  0.00    -0.179 NA
HETATM   23  H   UNL     1      39.055 -16.227   5.380  1.00  0.00     0.189 HD
HETATM   24  C   UNL     1      41.890 -16.209   6.549  1.00  0.00     0.057 A 
HETATM   25  C   UNL     1      41.932 -14.989   5.831  1.00  0.00     0.065 A 
BRANCH  24  26
HETATM   26  C   UNL     1      42.997 -16.884   7.289  1.00  0.00     0.061 C 
BRANCH  26  27
HETATM   27  C   UNL     1      44.349 -16.687   6.601  1.00  0.00     0.002 C 
HETATM   28  C   UNL     1      45.122 -17.993   6.503  1.00  0.00     0.005 C 
ENDBRANCH  26  27
ENDBRANCH  24  26
ENDBRANCH   1  20
TORSDOF 8
ENDMDL
MODEL 3
REMARK VINA RESULT:      -7.5      2.104      6.172
REMARK  8 active torsions:
REMARK  status: ('A' for Active; 'I' for Inactive)
REMARK    1  A    between atoms: C_2  and  C_3 
REMARK    2  A    between atoms: C_3  and  C_4 
REMARK    3  A    between atoms: C_8  and  C_9 
REMARK       I    between atoms: C_9  and  N_10 
REMARK    4  A    between atoms: N_10  and  C_11 
REMARK    5  A    between atoms: N_10  and  C_17 
REMARK    6  A    between atoms: C_17  and  C_18 
REMARK    7  A    between atoms: C_18  and  O_19 
REMARK    8  A    between atoms: C_18  and  C_20 
ROOT
HETATM    1  C   UNL     1      40.167 -14.579   4.173  1.00  0.00     0.272 C 
HETATM    2  N   UNL     1      40.038 -14.307   2.807  1.00  0.00    -0.339 N 
HETATM    3  O   UNL     1      39.543 -13.945   5.020  1.00  0.00    -0.266 OA
ENDROOT
BRANCH   2   4
HETATM    4  C   UNL     1      39.074 -13.275   2.337  1.00  0.00     0.087 C 
HETATM    5  C   UNL     1      39.751 -11.922   2.057  1.00  0.00     0.025 C 
HETATM    6  C   UNL     1      40.051 -11.630   0.593  1.00  0.00     0.002 C 
HETATM    7  C   UNL     1      38.832 -11.871  -0.283  1.00  0.00     0.000 C 
HETATM    8  C   UNL     1      38.351 -13.309  -0.180  1.00  0.00     0.002 C 
HETATM    9  C   UNL     1      38.074 -13.744   1.259  1.00  0.00     0.025 C 
ENDBRANCH   2   4
BRANCH   2  10
HETATM   10  C   UNL     1      41.005 -14.779   1.790  1.00  0.00     0.163 C 
BRANCH  10  11
HETATM   11  C   UNL     1      40.713 -16.206   1.274  1.00  0.00     0.169 C 
BRANCH  11  12
HETATM   12  O   UNL     1      39.588 -16.765   1.960  1.00  0.00    -0.389 OA
HETATM   13  H   UNL     1      38.833 -16.176   1.782  1.00  0.00     0.210 HD
ENDBRANCH  11  12
BRANCH  11  14
HETATM   14  C   UNL     1      41.905 -17.120   1.477  1.00  0.00    -0.028 A 
HETATM   15  C   UNL     1      43.209 -16.629   1.329  1.00  0.00     0.010 A 
HETATM   16  C   UNL     1      44.308 -17.470   1.519  1.00  0.00     0.001 A 
HETATM   17  C   UNL     1      44.116 -18.808   1.862  1.00  0.00     0.000 A 
HETATM   18  C   UNL     1      42.825 -19.307   2.022  1.00  0.00     0.001 A 
HETATM   19  C   UNL     1      41.726 -18.468   1.833  1.00  0.00     0.010 A 
ENDBRANCH  11  14
ENDBRANCH  10  11
ENDBRANCH   2  10
BRANCH   1  20
HETATM   20  C   UNL     1      41.083 -15.596   4.631  1.00  0.00     0.119 A 
HETATM   21  N   UNL     1      40.640 -16.871   4.872  1.00  0.00    -0.273 N 
HETATM   22  N   UNL     1      41.594 -17.717   5.289  1.00  0.00    -0.179 NA
HETATM   23  H   UNL     1      39.690 -17.212   4.768  1.00  0.00     0.189 HD
HETATM   24  C   UNL     1      42.720 -17.002   5.189  1.00  0.00     0.057 A 
HETATM   25  C   UNL     1      42.454 -15.672   4.780  1.00  0.00     0.065 A 
BRANCH  24  26
HETATM   26  C   UNL     1      44.043 -17.636   5.466  1.00  0.00     0.061 C 
BRANCH  26  27
HETATM   27  C   UNL     1      43.893 -19.058   6.009  1.00  0.00     0.002 C 
HETATM   28  C   UNL     1      44.729 -20.051   5.218  1.00  0.00     0.005 C 
ENDBRANCH  26  27
ENDBRANCH  24  26
ENDBRANCH   1  20
TORSDOF 8
ENDMDL
MODEL 4
REMARK VINA RESULT:      -7.5      1.532      2.091
REMARK  8 active torsions:
REMARK  status: ('A' for Active; 'I' for Inactive)
REMARK    1  A    between atoms: C_2  and  C_3 
REMARK    2  A    between atoms: C_3  and  C_4 
REMARK    3  A    between atoms: C_8  and  C_9 
REMARK       I    between atoms: C_9  and  N_10 
REMARK    4  A    between atoms: N_10  and  C_11 
REMARK    5  A    between atoms: N_10  and  C_17 
REMARK    6  A    between atoms: C_17  and  C_18 
REMARK    7  A    between atoms: C_18  and  O_19 
REMARK    8  A    between atoms: C_18  and  C_20 
ROOT
HETATM    1  C   UNL     1      40.830 -13.942   3.182  1.00  0.00     0.272 C 
HETATM    2  N   UNL     1      41.349 -15.041   3.875  1.00  0.00    -0.339 N 
HETATM    3  O   UNL     1      40.376 -12.963   3.770  1.00  0.00    -0.266 OA
ENDROOT
BRANCH   2   4
HETATM    4  C   UNL     1      41.429 -15.018   5.361  1.00  0.00     0.087 C 
HETATM    5  C   UNL     1      40.764 -16.249   6.005  1.00  0.00     0.025 C 
HETATM    6  C   UNL     1      41.715 -17.355   6.440  1.00  0.00     0.002 C 
HETATM    7  C   UNL     1      42.864 -16.804   7.271  1.00  0.00     0.000 C 
HETATM    8  C   UNL     1      43.666 -15.775   6.493  1.00  0.00     0.002 C 
HETATM    9  C   UNL     1      42.806 -14.637   5.945  1.00  0.00     0.025 C 
ENDBRANCH   2   4
BRANCH   2  10
HETATM   10  C   UNL     1      41.573 -16.363   3.249  1.00  0.00     0.163 C 
BRANCH  10  11
HETATM   11  C   UNL     1      43.015 -16.566   2.731  1.00  0.00     0.169 C 
BRANCH  11  12
HETATM   12  O   UNL     1      43.106 -16.201   1.350  1.00  0.00    -0.389 OA
HETATM   13  H   UNL     1      43.846 -16.711   0.975  1.00  0.00     0.210 HD
ENDBRANCH  11  12
BRANCH  11  14
HETATM   14  C   UNL     1      43.455 -18.009   2.879  1.00  0.00    -0.028 A 
HETATM   15  C   UNL     1      44.107 -18.436   4.044  1.00  0.00     0.010 A 
HETATM   16  C   UNL     1      44.510 -19.766   4.181  1.00  0.00     0.001 A 
HETATM   17  C   UNL     1      44.264 -20.683   3.160  1.00  0.00     0.000 A 
HETATM   18  C   UNL     1      43.608 -20.274   2.001  1.00  0.00     0.001 A 
HETATM   19  C   UNL     1      43.204 -18.946   1.862  1.00  0.00     0.010 A 
ENDBRANCH  11  14
ENDBRANCH  10  11
ENDBRANCH   2  10
BRANCH   1  20
HETATM   20  C   UNL     1      40.773 -13.950   1.740  1.00  0.00     0.119 A 
HETATM   21  N   UNL     1      41.899 -13.693   1.001  1.00  0.00    -0.273 N 
HETATM   22  N   UNL     1      41.708 -13.736  -0.326  1.00  0.00    -0.179 NA
HETATM   23  H   UNL     1      42.825 -13.480   1.359  1.00  0.00     0.189 HD
HETATM   24  C   UNL     1      40.448 -14.164  -0.454  1.00  0.00     0.057 A 
HETATM   25  C   UNL     1      39.822 -14.314   0.808  1.00  0.00     0.065 A 
BRANCH  24  26
HETATM   26  C   UNL     1      39.882 -14.448  -1.806  1.00  0.00     0.061 C 
BRANCH  26  27
HETATM   27  C   UNL     1      40.651 -15.557  -2.527  1.00  0.00     0.002 C 
HETATM   28  C   UNL     1      39.801 -16.224  -3.596  1.00  0.00     0.005 C 
ENDBRANCH  26  27
ENDBRANCH  24  26
ENDBRANCH   1  20
TORSDOF 8
ENDMDL
MODEL 5
REMARK VINA RESULT:      -7.3      2.101      4.871
REMARK  8 active torsions:
REMARK  status: ('A' for Active; 'I' for Inactive)
REMARK    1  A    between atoms: C_2  and  C_3 
REMARK    2  A    between atoms: C_3  and  C_4 
REMARK    3  A    between atoms: C_8  and  C_9 
REMARK       I    between atoms: C_9  and  N_10 
REMARK    4  A    between atoms: N_10  and  C_11 
REMARK    5  A    between atoms: N_10  and  C_17 
REMARK    6  A    between atoms: C_17  and  C_18 
REMARK    7  A    between atoms: C_18  and  O_19 
REMARK    8  A    between atoms: C_18  and  C_20 
ROOT
HETATM    1  C   UNL     1      43.470 -17.860   2.504  1.00  0.00     0.272 C 
HETATM    2  N   UNL     1      43.576 -18.734   3.591  1.00  0.00    -0.339 N 
HETATM    3  O   UNL     1      44.329 -17.812   1.627  1.00  0.00    -0.266 OA
ENDROOT
BRANCH   2   4
HETATM    4  C   UNL     1      44.713 -19.691   3.674  1.00  0.00     0.087 C 
HETATM    5  C   UNL     1      44.996 -20.144   5.118  1.00  0.00     0.025 C 
HETATM    6  C   UNL     1      44.435 -21.508   5.498  1.00  0.00     0.002 C 
HETATM    7  C   UNL     1      44.799 -22.565   4.466  1.00  0.00     0.000 C 
HETATM    8  C   UNL     1      44.263 -22.203   3.091  1.00  0.00     0.002 C 
HETATM    9  C   UNL     1      44.708 -20.819   2.621  1.00  0.00     0.025 C 
ENDBRANCH   2   4
BRANCH   2  10
HETATM   10  C   UNL     1      42.779 -18.588   4.831  1.00  0.00     0.163 C 
BRANCH  10  11
HETATM   11  C   UNL     1      43.330 -17.517   5.798  1.00  0.00     0.169 C 
BRANCH  11  12
HETATM   12  O   UNL     1      43.326 -18.008   7.143  1.00  0.00    -0.389 OA
HETATM   13  H   UNL     1      44.108 -17.627   7.581  1.00  0.00     0.210 HD
ENDBRANCH  11  12
BRANCH  11  14
HETATM   14  C   UNL     1      42.500 -16.249   5.746  1.00  0.00    -0.028 A 
HETATM   15  C   UNL     1      41.104 -16.310   5.853  1.00  0.00     0.010 A 
HETATM   16  C   UNL     1      40.340 -15.142   5.808  1.00  0.00     0.001 A 
HETATM   17  C   UNL     1      40.960 -13.903   5.659  1.00  0.00     0.000 A 
HETATM   18  C   UNL     1      42.348 -13.827   5.560  1.00  0.00     0.001 A 
HETATM   19  C   UNL     1      43.113 -14.993   5.606  1.00  0.00     0.010 A 
ENDBRANCH  11  14
ENDBRANCH  10  11
ENDBRANCH   2  10
BRANCH   1  20
HETATM   20  C   UNL     1      42.356 -16.947   2.408  1.00  0.00     0.119 A 
HETATM   21  N   UNL     1      42.572 -15.612   2.187  1.00  0.00    -0.273 N 
HETATM   22  N   UNL     1      41.452 -14.877   2.115  1.00  0.00    -0.179 NA
HETATM   23  H   UNL     1      43.471 -15.152   2.080  1.00  0.00     0.189 HD
HETATM   24  C   UNL     1      40.471 -15.785   2.160  1.00  0.00     0.057 A 
HETATM   25  C   UNL     1      40.984 -17.092   2.340  1.00  0.00     0.065 A 
BRANCH  24  26
HETATM   26  C   UNL     1      39.048 -15.365   1.997  1.00  0.00     0.061 C 
BRANCH  26  27
HETATM   27  C   UNL     1      38.921 -14.076   1.183  1.00  0.00     0.002 C 
HETATM   28  C   UNL     1      37.523 -13.913   0.607  1.00  0.00     0.005 C 
ENDBRANCH  26  27
ENDBRANCH  24  26
ENDBRANCH   1  20
TORSDOF 8
ENDMDL
MODEL 6
REMARK VINA RESULT:      -7.2      2.374      6.552
REMARK  8 active torsions:
REMARK  status: ('A' for Active; 'I' for Inactive)
REMARK    1  A    between atoms: C_2  and  C_3 
REMARK    2  A    between atoms: C_3  and  C_4 
REMARK    3  A    between atoms: C_8  and  C_9 
REMARK       I    between atoms: C_9  and  N_10 
REMARK    4  A    between atoms: N_10  and  C_11 
REMARK    5  A    between atoms: N_10  and  C_17 
REMARK    6  A    between atoms: C_17  and  C_18 
REMARK    7  A    between atoms: C_18  and  O_19 
REMARK    8  A    between atoms: C_18  and  C_20 
ROOT
HETATM    1  C   UNL     1      41.302 -15.860  -0.027  1.00  0.00     0.272 C 
HETATM    2  N   UNL     1      40.567 -14.892   0.665  1.00  0.00    -0.339 N 
HETATM    3  O   UNL     1      41.298 -15.920  -1.254  1.00  0.00    -0.266 OA
ENDROOT
BRANCH   2   4
HETATM    4  C   UNL     1      39.810 -13.851  -0.082  1.00  0.00     0.087 C 
HETATM    5  C   UNL     1      38.286 -14.043   0.023  1.00  0.00     0.025 C 
HETATM    6  C   UNL     1      37.582 -13.154   1.040  1.00  0.00     0.002 C 
HETATM    7  C   UNL     1      37.982 -11.696   0.872  1.00  0.00     0.000 C 
HETATM    8  C   UNL     1      39.480 -11.510   1.043  1.00  0.00     0.002 C 
HETATM    9  C   UNL     1      40.303 -12.402   0.115  1.00  0.00     0.025 C 
ENDBRANCH   2   4
BRANCH   2  10
HETATM   10  C   UNL     1      40.253 -14.989   2.109  1.00  0.00     0.163 C 
BRANCH  10  11
HETATM   11  C   UNL     1      41.362 -14.420   3.023  1.00  0.00     0.169 C 
BRANCH  11  12
HETATM   12  O   UNL     1      42.479 -13.984   2.241  1.00  0.00    -0.389 OA
HETATM   13  H   UNL     1      42.127 -13.734   1.368  1.00  0.00     0.210 HD
ENDBRANCH  11  12
BRANCH  11  14
HETATM   14  C   UNL     1      41.844 -15.459   4.016  1.00  0.00    -0.028 A 
HETATM   15  C   UNL     1      40.948 -16.391   4.558  1.00  0.00     0.010 A 
HETATM   16  C   UNL     1      41.393 -17.350   5.471  1.00  0.00     0.001 A 
HETATM   17  C   UNL     1      42.734 -17.391   5.848  1.00  0.00     0.000 A 
HETATM   18  C   UNL     1      43.637 -16.477   5.309  1.00  0.00     0.001 A 
HETATM   19  C   UNL     1      43.195 -15.518   4.396  1.00  0.00     0.010 A 
ENDBRANCH  11  14
ENDBRANCH  10  11
ENDBRANCH   2  10
BRANCH   1  20
HETATM   20  C   UNL     1      42.057 -16.856   0.694  1.00  0.00     0.119 A 
HETATM   21  N   UNL     1      43.403 -16.691   0.899  1.00  0.00    -0.273 N 
HETATM   22  N   UNL     1      43.982 -17.687   1.587  1.00  0.00    -0.179 NA
HETATM   23  H   UNL     1      43.973 -15.912   0.585  1.00  0.00     0.189 HD
HETATM   24  C   UNL     1      42.955 -18.461   1.954  1.00  0.00     0.057 A 
HETATM   25  C   UNL     1      41.731 -17.983   1.424  1.00  0.00     0.065 A 
BRANCH  24  26
HETATM   26  C   UNL     1      43.178 -19.639   2.843  1.00  0.00     0.061 C 
BRANCH  26  27
HETATM   27  C   UNL     1      44.369 -20.483   2.385  1.00  0.00     0.002 C 
HETATM   28  C   UNL     1      43.917 -21.751   1.678  1.00  0.00     0.005 C 
ENDBRANCH  26  27
ENDBRANCH  24  26
ENDBRANCH   1  20
TORSDOF 8
ENDMDL
MODEL 7
REMARK VINA RESULT:      -7.0      2.490      4.993
REMARK  8 active torsions:
REMARK  status: ('A' for Active; 'I' for Inactive)
REMARK    1  A    between atoms: C_2  and  C_3 
REMARK    2  A    between atoms: C_3  and  C_4 
REMARK    3  A    between atoms: C_8  and  C_9 
REMARK       I    between atoms: C_9  and  N_10 
REMARK    4  A    between atoms: N_10  and  C_11 
REMARK    5  A    between atoms: N_10  and  C_17 
REMARK    6  A    between atoms: C_17  and  C_18 
REMARK    7  A    between atoms: C_18  and  O_19 
REMARK    8  A    between atoms: C_18  and  C_20 
ROOT
HETATM    1  C   UNL     1      41.072 -14.306   2.877  1.00  0.00     0.272 C 
HETATM    2  N   UNL     1      40.934 -13.928   4.217  1.00  0.00    -0.339 N 
HETATM    3  O   UNL     1      40.668 -13.595   1.960  1.00  0.00    -0.266 OA
ENDROOT
BRANCH   2   4
HETATM    4  C   UNL     1      40.351 -12.604   4.565  1.00  0.00     0.087 C 
HETATM    5  C   UNL     1      39.135 -12.724   5.501  1.00  0.00     0.025 C 
HETATM    6  C   UNL     1      39.414 -12.460   6.975  1.00  0.00     0.002 C 
HETATM    7  C   UNL     1      40.182 -11.163   7.170  1.00  0.00     0.000 C 
HETATM    8  C   UNL     1      41.514 -11.191   6.438  1.00  0.00     0.002 C 
HETATM    9  C   UNL     1      41.370 -11.511   4.951  1.00  0.00     0.025 C 
ENDBRANCH   2   4
BRANCH   2  10
HETATM   10  C   UNL     1      41.071 -14.876   5.346  1.00  0.00     0.163 C 
BRANCH  10  11
HETATM   11  C   UNL     1      42.476 -14.875   5.989  1.00  0.00     0.169 C 
BRANCH  11  12
HETATM   12  O   UNL     1      43.363 -14.029   5.248  1.00  0.00    -0.389 OA
HETATM   13  H   UNL     1      43.145 -14.152   4.307  1.00  0.00     0.210 HD
ENDBRANCH  11  12
BRANCH  11  14
HETATM   14  C   UNL     1      43.064 -16.271   6.032  1.00  0.00    -0.028 A 
HETATM   15  C   UNL     1      44.364 -16.479   6.512  1.00  0.00     0.010 A 
HETATM   16  C   UNL     1      44.904 -17.766   6.554  1.00  0.00     0.001 A 
HETATM   17  C   UNL     1      44.152 -18.857   6.122  1.00  0.00     0.000 A 
HETATM   18  C   UNL     1      42.856 -18.666   5.651  1.00  0.00     0.001 A 
HETATM   19  C   UNL     1      42.313 -17.381   5.609  1.00  0.00     0.010 A 
ENDBRANCH  11  14
ENDBRANCH  10  11
ENDBRANCH   2  10
BRANCH   1  20
HETATM   20  C   UNL     1      41.659 -15.579   2.535  1.00  0.00     0.119 A 
HETATM   21  N   UNL     1      40.864 -16.629   2.155  1.00  0.00    -0.273 N 
HETATM   22  N   UNL     1      41.537 -17.752   1.861  1.00  0.00    -0.179 NA
HETATM   23  H   UNL     1      39.851 -16.628   2.082  1.00  0.00     0.189 HD
HETATM   24  C   UNL     1      42.820 -17.382   1.927  1.00  0.00     0.057 A 
HETATM   25  C   UNL     1      42.949 -16.034   2.341  1.00  0.00     0.065 A 
BRANCH  24  26
HETATM   26  C   UNL     1      43.901 -18.341   1.554  1.00  0.00     0.061 C 
BRANCH  26  27
HETATM   27  C   UNL     1      43.559 -19.775   1.962  1.00  0.00     0.002 C 
HETATM   28  C   UNL     1      44.674 -20.406   2.780  1.00  0.00     0.005 C 
ENDBRANCH  26  27
ENDBRANCH  24  26
ENDBRANCH   1  20
TORSDOF 8
ENDMDL
MODEL 8
REMARK VINA RESULT:      -7.0      1.489      5.632
REMARK  8 active torsions:
REMARK  status: ('A' for Active; 'I' for Inactive)
REMARK    1  A    between atoms: C_2  and  C_3 
REMARK    2  A    between atoms: C_3  and  C_4 
REMARK    3  A    between atoms: C_8  and  C_9 
REMARK       I    between atoms: C_9  and  N_10 
REMARK    4  A    between atoms: N_10  and  C_11 
REMARK    5  A    between atoms: N_10  and  C_17 
REMARK    6  A    between atoms: C_17  and  C_18 
REMARK    7  A    between atoms: C_18  and  O_19 
REMARK    8  A    between atoms: C_18  and  C_20 
ROOT
HETATM    1  C   UNL     1      40.982 -15.023   3.618  1.00  0.00     0.272 C 
HETATM    2  N   UNL     1      40.867 -15.755   2.431  1.00  0.00    -0.339 N 
HETATM    3  O   UNL     1      40.860 -13.801   3.638  1.00  0.00    -0.266 OA
ENDROOT
BRANCH   2   4
HETATM    4  C   UNL     1      40.517 -15.067   1.159  1.00  0.00     0.087 C 
HETATM    5  C   UNL     1      39.035 -14.654   1.102  1.00  0.00     0.025 C 
HETATM    6  C   UNL     1      38.749 -13.193   1.421  1.00  0.00     0.002 C 
HETATM    7  C   UNL     1      39.651 -12.264   0.623  1.00  0.00     0.000 C 
HETATM    8  C   UNL     1      41.118 -12.530   0.915  1.00  0.00     0.002 C 
HETATM    9  C   UNL     1      41.516 -13.989   0.691  1.00  0.00     0.025 C 
ENDBRANCH   2   4
BRANCH   2  10
HETATM   10  C   UNL     1      41.347 -17.148   2.287  1.00  0.00     0.163 C 
BRANCH  10  11
HETATM   11  C   UNL     1      42.858 -17.254   1.980  1.00  0.00     0.169 C 
BRANCH  11  12
HETATM   12  O   UNL     1      43.099 -17.052   0.583  1.00  0.00    -0.389 OA
HETATM   13  H   UNL     1      42.546 -17.699   0.109  1.00  0.00     0.210 HD
ENDBRANCH  11  12
BRANCH  11  14
HETATM   14  C   UNL     1      43.406 -18.611   2.374  1.00  0.00    -0.028 A 
HETATM   15  C   UNL     1      44.098 -18.772   3.582  1.00  0.00     0.010 A 
HETATM   16  C   UNL     1      44.601 -20.023   3.947  1.00  0.00     0.001 A 
HETATM   17  C   UNL     1      44.416 -21.124   3.112  1.00  0.00     0.000 A 
HETATM   18  C   UNL     1      43.722 -20.979   1.913  1.00  0.00     0.001 A 
HETATM   19  C   UNL     1      43.218 -19.731   1.547  1.00  0.00     0.010 A 
ENDBRANCH  11  14
ENDBRANCH  10  11
ENDBRANCH   2  10
BRANCH   1  20
HETATM   20  C   UNL     1      41.297 -15.690   4.858  1.00  0.00     0.119 A 
HETATM   21  N   UNL     1      40.340 -16.417   5.517  1.00  0.00    -0.273 N 
HETATM   22  N   UNL     1      40.766 -16.988   6.654  1.00  0.00    -0.179 NA
HETATM   23  H   UNL     1      39.375 -16.551   5.229  1.00  0.00     0.189 HD
HETATM   24  C   UNL     1      42.078 -16.732   6.667  1.00  0.00     0.057 A 
HETATM   25  C   UNL     1      42.460 -15.927   5.566  1.00  0.00     0.065 A 
BRANCH  24  26
HETATM   26  C   UNL     1      42.947 -17.303   7.738  1.00  0.00     0.061 C 
BRANCH  26  27
HETATM   27  C   UNL     1      43.787 -18.476   7.229  1.00  0.00     0.002 C 
HETATM   28  C   UNL     1      45.218 -18.055   6.939  1.00  0.00     0.005 C 
ENDBRANCH  26  27
ENDBRANCH  24  26
ENDBRANCH   1  20
TORSDOF 8
ENDMDL
MODEL 9
REMARK VINA RESULT:      -7.0      3.442      6.371
REMARK  8 active torsions:
REMARK  status: ('A' for Active; 'I' for Inactive)
REMARK    1  A    between atoms: C_2  and  C_3 
REMARK    2  A    between atoms: C_3  and  C_4 
REMARK    3  A    between atoms: C_8  and  C_9 
REMARK       I    between atoms: C_9  and  N_10 
REMARK    4  A    between atoms: N_10  and  C_11 
REMARK    5  A    between atoms: N_10  and  C_17 
REMARK    6  A    between atoms: C_17  and  C_18 
REMARK    7  A    between atoms: C_18  and  O_19 
REMARK    8  A    between atoms: C_18  and  C_20 
ROOT
HETATM    1  C   UNL     1      39.791 -12.797   3.927  1.00  0.00     0.272 C 
HETATM    2  N   UNL     1      40.551 -13.929   3.612  1.00  0.00    -0.339 N 
HETATM    3  O   UNL     1      39.157 -12.186   3.072  1.00  0.00    -0.266 OA
ENDROOT
BRANCH   2   4
HETATM    4  C   UNL     1      40.550 -14.469   2.226  1.00  0.00     0.087 C 
HETATM    5  C   UNL     1      41.969 -14.592   1.641  1.00  0.00     0.025 C 
HETATM    6  C   UNL     1      42.574 -15.989   1.680  1.00  0.00     0.002 C 
HETATM    7  C   UNL     1      41.614 -17.026   1.119  1.00  0.00     0.000 C 
HETATM    8  C   UNL     1      40.312 -17.057   1.903  1.00  0.00     0.002 C 
HETATM    9  C   UNL     1      39.636 -15.689   1.990  1.00  0.00     0.025 C 
ENDBRANCH   2   4
BRANCH   2  10
HETATM   10  C   UNL     1      41.596 -14.480   4.505  1.00  0.00     0.163 C 
BRANCH  10  11
HETATM   11  C   UNL     1      41.162 -15.765   5.245  1.00  0.00     0.169 C 
BRANCH  11  12
HETATM   12  O   UNL     1      40.614 -15.443   6.528  1.00  0.00    -0.389 OA
HETATM   13  H   UNL     1      40.692 -14.477   6.630  1.00  0.00     0.210 HD
ENDBRANCH  11  12
BRANCH  11  14
HETATM   14  C   UNL     1      42.333 -16.708   5.444  1.00  0.00    -0.028 A 
HETATM   15  C   UNL     1      43.401 -16.347   6.276  1.00  0.00     0.010 A 
HETATM   16  C   UNL     1      44.478 -17.217   6.462  1.00  0.00     0.001 A 
HETATM   17  C   UNL     1      44.497 -18.455   5.823  1.00  0.00     0.000 A 
HETATM   18  C   UNL     1      43.438 -18.831   5.000  1.00  0.00     0.001 A 
HETATM   19  C   UNL     1      42.360 -17.964   4.814  1.00  0.00     0.010 A 
ENDBRANCH  11  14
ENDBRANCH  10  11
ENDBRANCH   2  10
BRANCH   1  20
HETATM   20  C   UNL     1      39.771 -12.285   5.276  1.00  0.00     0.119 A 
HETATM   21  N   UNL     1      38.994 -12.885   6.234  1.00  0.00    -0.273 N 
HETATM   22  N   UNL     1      39.071 -12.312   7.445  1.00  0.00    -0.179 NA
HETATM   23  H   UNL     1      38.390 -13.691   6.107  1.00  0.00     0.189 HD
HETATM   24  C   UNL     1      40.029 -11.391   7.302  1.00  0.00     0.057 A 
HETATM   25  C   UNL     1      40.500 -11.336   5.967  1.00  0.00     0.065 A 
BRANCH  24  26
HETATM   26  C   UNL     1      40.493 -10.597   8.478  1.00  0.00     0.061 C 
BRANCH  26  27
HETATM   27  C   UNL     1      39.591 -10.799   9.696  1.00  0.00     0.002 C 
HETATM   28  C   UNL     1      40.400 -11.085  10.951  1.00  0.00     0.005 C 
ENDBRANCH  26  27
ENDBRANCH  24  26
ENDBRANCH   1  20
TORSDOF 8
ENDMDL
MODEL 10
REMARK VINA RESULT:      -7.0      2.268      5.658
REMARK  8 active torsions:
REMARK  status: ('A' for Active; 'I' for Inactive)
REMARK    1  A    between atoms: C_2  and  C_3 
REMARK    2  A    between atoms: C_3  and  C_4 
REMARK    3  A    between atoms: C_8  and  C_9 
REMARK       I    between atoms: C_9  and  N_10 
REMARK    4  A    between atoms: N_10  and  C_11 
REMARK    5  A    between atoms: N_10  and  C_17 
REMARK    6  A    between atoms: C_17  and  C_18 
REMARK    7  A    between atoms: C_18  and  O_19 
REMARK    8  A    between atoms: C_18  and  C_20 
ROOT
HETATM    1  C   UNL     1      40.969 -15.889   2.291  1.00  0.00     0.272 C 
HETATM    2  N   UNL     1      40.817 -15.191   3.494  1.00  0.00    -0.339 N 
HETATM    3  O   UNL     1      40.150 -15.795   1.381  1.00  0.00    -0.266 OA
ENDROOT
BRANCH   2   4
HETATM    4  C   UNL     1      39.679 -14.250   3.674  1.00  0.00     0.087 C 
HETATM    5  C   UNL     1      39.722 -13.529   5.034  1.00  0.00     0.025 C 
HETATM    6  C   UNL     1      40.276 -12.111   5.006  1.00  0.00     0.002 C 
HETATM    7  C   UNL     1      39.617 -11.278   3.918  1.00  0.00     0.000 C 
HETATM    8  C   UNL     1      39.831 -11.892   2.544  1.00  0.00     0.002 C 
HETATM    9  C   UNL     1      39.368 -13.346   2.462  1.00  0.00     0.025 C 
ENDBRANCH   2   4
BRANCH   2  10
HETATM   10  C   UNL     1      41.559 -15.532   4.729  1.00  0.00     0.163 C 
BRANCH  10  11
HETATM   11  C   UNL     1      41.087 -16.844   5.393  1.00  0.00     0.169 C 
BRANCH  11  12
HETATM   12  O   UNL     1      39.991 -16.590   6.279  1.00  0.00    -0.389 OA
HETATM   13  H   UNL     1      39.229 -16.355   5.719  1.00  0.00     0.210 HD
ENDBRANCH  11  12
BRANCH  11  14
HETATM   14  C   UNL     1      42.205 -17.495   6.183  1.00  0.00    -0.028 A 
HETATM   15  C   UNL     1      42.908 -18.585   5.651  1.00  0.00     0.010 A 
HETATM   16  C   UNL     1      43.940 -19.183   6.378  1.00  0.00     0.001 A 
HETATM   17  C   UNL     1      44.283 -18.698   7.639  1.00  0.00     0.000 A 
HETATM   18  C   UNL     1      43.598 -17.610   8.176  1.00  0.00     0.001 A 
HETATM   19  C   UNL     1      42.567 -17.010   7.451  1.00  0.00     0.010 A 
ENDBRANCH  11  14
ENDBRANCH  10  11
ENDBRANCH   2  10
BRANCH   1  20
HETATM   20  C   UNL     1      42.085 -16.784   2.104  1.00  0.00     0.119 A 
HETATM   21  N   UNL     1      43.319 -16.292   1.764  1.00  0.00    -0.273 N 
HETATM   22  N   UNL     1      44.268 -17.231   1.624  1.00  0.00    -0.179 NA
HETATM   23  H   UNL     1      43.563 -15.319   1.612  1.00  0.00     0.189 HD
HETATM   24  C   UNL     1      43.662 -18.358   2.015  1.00  0.00     0.057 A 
HETATM   25  C   UNL     1      42.299 -18.131   2.327  1.00  0.00     0.065 A 
BRANCH  24  26
HETATM   26  C   UNL     1      44.431 -19.634   2.107  1.00  0.00     0.061 C 
BRANCH  26  27
HETATM   27  C   UNL     1      43.539 -20.856   1.883  1.00  0.00     0.002 C 
HETATM   28  C   UNL     1      44.348 -22.143   1.862  1.00  0.00     0.005 C 
ENDBRANCH  26  27
ENDBRANCH  24  26
ENDBRANCH   1  20
TORSDOF 8
ENDMDL
