MODEL 1
REMARK VINA RESULT:      -8.9      0.000      0.000
REMARK  5 active torsions:
REMARK  status: ('A' for Active; 'I' for Inactive)
REMARK    1  A    between atoms: C_2  and  C_3 
REMARK    2  A    between atoms: N_4  and  C_6 
REMARK    3  A    between atoms: C_6  and  C_7 
REMARK    4  A    between atoms: N_14  and  C_16 
REMARK    5  A    between atoms: C_16  and  C_17 
ROOT
HETATM    1  C   UNL     1      43.610 -18.571   6.455  1.00  0.00    -0.032 A 
HETATM    2  C   UNL     1      44.198 -18.644   5.172  1.00  0.00     0.020 A 
HETATM    3  C   UNL     1      44.683 -19.862   4.653  1.00  0.00     0.002 A 
HETATM    4  C   UNL     1      44.575 -21.007   5.444  1.00  0.00     0.076 A 
HETATM    5  O   UNL     1      45.079 -22.203   5.023  1.00  0.00    -0.349 OA
HETATM    6  C   UNL     1      44.299 -22.770   3.963  1.00  0.00     0.203 C 
HETATM    7  C   UNL     1      44.825 -22.328   2.595  1.00  0.00     0.262 C 
HETATM    8  N   UNL     1      44.590 -20.849   2.307  1.00  0.00    -0.061 N 
HETATM    9  H   UNL     1      45.054 -20.693   1.405  1.00  0.00     0.280 HD
HETATM   10  C   UNL     1      45.311 -19.943   3.286  1.00  0.00     0.276 C 
HETATM   11  C   UNL     1      44.004 -20.956   6.713  1.00  0.00     0.038 A 
HETATM   12  C   UNL     1      43.499 -19.751   7.206  1.00  0.00     0.011 A 
ENDROOT
BRANCH   1  13
HETATM   13  C   UNL     1      43.054 -17.254   6.958  1.00  0.00     0.274 C 
BRANCH  13  14
HETATM   14  N   UNL     1      42.649 -16.267   5.895  1.00  0.00    -0.053 N 
HETATM   15  C   UNL     1      43.699 -15.138   5.651  1.00  0.00     0.279 C 
HETATM   16  C   UNL     1      43.273 -14.240   4.469  1.00  0.00     0.248 C 
HETATM   17  N   UNL     1      41.930 -13.988   4.333  1.00  0.00    -0.358 N 
HETATM   18  O   UNL     1      44.086 -13.715   3.719  1.00  0.00    -0.271 OA
HETATM   19  C   UNL     1      40.890 -14.892   4.793  1.00  0.00     0.150 C 
HETATM   20  H   UNL     1      41.719 -13.383   3.539  1.00  0.00     0.162 HD
HETATM   21  C   UNL     1      41.252 -15.688   6.054  1.00  0.00     0.256 C 
HETATM   22  H   UNL     1      42.646 -16.777   5.005  1.00  0.00     0.281 HD
BRANCH  15  23
HETATM   23  C   UNL     1      43.917 -14.299   6.920  1.00  0.00     0.038 C 
HETATM   24  C   UNL     1      45.333 -13.741   7.015  1.00  0.00     0.007 C 
ENDBRANCH  15  23
ENDBRANCH  13  14
ENDBRANCH   1  13
BRANCH   8  25
HETATM   25  C   UNL     1      43.149 -20.447   2.092  1.00  0.00     0.274 C 
BRANCH  25  26
HETATM   26  C   UNL     1      42.940 -18.975   1.865  1.00  0.00    -0.029 A 
HETATM   27  C   UNL     1      41.668 -18.400   2.016  1.00  0.00     0.054 A 
HETATM   28  C   UNL     1      41.487 -17.034   1.793  1.00  0.00     0.155 A 
HETATM   29  F   UNL     1      40.265 -16.513   1.944  1.00  0.00    -0.203 F 
HETATM   30  C   UNL     1      42.555 -16.232   1.420  1.00  0.00     0.154 A 
HETATM   31  F   UNL     1      42.378 -14.923   1.207  1.00  0.00    -0.203 F 
HETATM   32  C   UNL     1      43.822 -16.784   1.265  1.00  0.00     0.046 A 
HETATM   33  C   UNL     1      44.016 -18.151   1.486  1.00  0.00     0.012 A 
ENDBRANCH  25  26
ENDBRANCH   8  25
TORSDOF 5
ENDMDL
MODEL 2
REMARK VINA RESULT:      -8.7      4.420      7.646
REMARK  5 active torsions:
REMARK  status: ('A' for Active; 'I' for Inactive)
REMARK    1  A    between atoms: C_2  and  C_3 
REMARK    2  A    between atoms: N_4  and  C_6 
REMARK    3  A    between atoms: C_6  and  C_7 
REMARK    4  A    between atoms: N_14  and  C_16 
REMARK    5  A    between atoms: C_16  and  C_17 
ROOT
HETATM    1  C   UNL     1      41.210 -14.670   0.754  1.00  0.00    -0.032 A 
HETATM    2  C   UNL     1      42.195 -15.178   1.628  1.00  0.00     0.020 A 
HETATM    3  C   UNL     1      42.181 -14.882   3.007  1.00  0.00     0.002 A 
HETATM    4  C   UNL     1      41.164 -14.061   3.495  1.00  0.00     0.076 A 
HETATM    5  O   UNL     1      41.128 -13.688   4.807  1.00  0.00    -0.349 OA
HETATM    6  C   UNL     1      40.763 -14.778   5.664  1.00  0.00     0.203 C 
HETATM    7  C   UNL     1      42.002 -15.535   6.149  1.00  0.00     0.262 C 
HETATM    8  N   UNL     1      42.702 -16.318   5.044  1.00  0.00    -0.061 N 
HETATM    9  H   UNL     1      43.537 -16.704   5.501  1.00  0.00     0.280 HD
HETATM   10  C   UNL     1      43.232 -15.422   3.941  1.00  0.00     0.276 C 
HETATM   11  C   UNL     1      40.185 -13.544   2.650  1.00  0.00     0.038 A 
HETATM   12  C   UNL     1      40.190 -13.868   1.292  1.00  0.00     0.011 A 
ENDROOT
BRANCH   1  13
HETATM   13  C   UNL     1      41.228 -15.052  -0.713  1.00  0.00     0.274 C 
BRANCH  13  14
HETATM   14  N   UNL     1      40.711 -14.007  -1.667  1.00  0.00    -0.053 N 
HETATM   15  C   UNL     1      39.540 -14.503  -2.570  1.00  0.00     0.279 C 
HETATM   16  C   UNL     1      38.985 -13.347  -3.431  1.00  0.00     0.248 C 
HETATM   17  N   UNL     1      39.893 -12.432  -3.902  1.00  0.00    -0.358 N 
HETATM   18  O   UNL     1      37.804 -13.272  -3.743  1.00  0.00    -0.271 OA
HETATM   19  C   UNL     1      41.146 -12.122  -3.235  1.00  0.00     0.150 C 
HETATM   20  H   UNL     1      39.462 -11.702  -4.469  1.00  0.00     0.162 HD
HETATM   21  C   UNL     1      41.779 -13.307  -2.492  1.00  0.00     0.256 C 
HETATM   22  H   UNL     1      40.270 -13.278  -1.095  1.00  0.00     0.281 HD
BRANCH  15  23
HETATM   23  C   UNL     1      39.983 -15.678  -3.458  1.00  0.00     0.038 C 
HETATM   24  C   UNL     1      38.807 -16.376  -4.133  1.00  0.00     0.007 C 
ENDBRANCH  15  23
ENDBRANCH  13  14
ENDBRANCH   1  13
BRANCH   8  25
HETATM   25  C   UNL     1      41.947 -17.515   4.512  1.00  0.00     0.274 C 
BRANCH  25  26
HETATM   26  C   UNL     1      42.813 -18.558   3.860  1.00  0.00    -0.029 A 
HETATM   27  C   UNL     1      43.775 -19.258   4.605  1.00  0.00     0.054 A 
HETATM   28  C   UNL     1      44.578 -20.217   3.986  1.00  0.00     0.155 A 
HETATM   29  F   UNL     1      45.487 -20.869   4.719  1.00  0.00    -0.203 F 
HETATM   30  C   UNL     1      44.438 -20.487   2.633  1.00  0.00     0.154 A 
HETATM   31  F   UNL     1      45.210 -21.406   2.042  1.00  0.00    -0.203 F 
HETATM   32  C   UNL     1      43.492 -19.802   1.878  1.00  0.00     0.046 A 
HETATM   33  C   UNL     1      42.680 -18.840   2.488  1.00  0.00     0.012 A 
ENDBRANCH  25  26
ENDBRANCH   8  25
TORSDOF 5
ENDMDL
MODEL 3
REMARK VINA RESULT:      -8.6      3.934      6.742
REMARK  5 active torsions:
REMARK  status: ('A' for Active; 'I' for Inactive)
REMARK    1  A    between atoms: C_2  and  C_3 
REMARK    2  A    between atoms: N_4  and  C_6 
REMARK    3  A    between atoms: C_6  and  C_7 
REMARK    4  A    between atoms: N_14  and  C_16 
REMARK    5  A    between atoms: C_16  and  C_17 
ROOT
HETATM    1  C   UNL     1      40.767 -13.346   2.518  1.00  0.00    -0.032 A 
HETATM    2  C   UNL     1      41.940 -14.040   2.887  1.00  0.00     0.020 A 
HETATM    3  C   UNL     1      42.044 -14.705   4.126  1.00  0.00     0.002 A 
HETATM    4  C   UNL     1      40.953 -14.658   4.994  1.00  0.00     0.076 A 
HETATM    5  O   UNL     1      41.011 -15.229   6.232  1.00  0.00    -0.349 OA
HETATM    6  C   UNL     1      40.991 -16.661   6.162  1.00  0.00     0.203 C 
HETATM    7  C   UNL     1      42.410 -17.229   6.084  1.00  0.00     0.262 C 
HETATM    8  N   UNL     1      43.107 -16.931   4.761  1.00  0.00    -0.061 N 
HETATM    9  H   UNL     1      44.054 -17.305   4.887  1.00  0.00     0.280 HD
HETATM   10  C   UNL     1      43.295 -15.445   4.523  1.00  0.00     0.276 C 
HETATM   11  C   UNL     1      39.788 -13.975   4.653  1.00  0.00     0.038 A 
HETATM   12  C   UNL     1      39.684 -13.346   3.411  1.00  0.00     0.011 A 
ENDROOT
BRANCH   1  13
HETATM   13  C   UNL     1      40.674 -12.687   1.156  1.00  0.00     0.274 C 
BRANCH  13  14
HETATM   14  N   UNL     1      40.044 -13.520   0.070  1.00  0.00    -0.053 N 
HETATM   15  C   UNL     1      41.025 -13.895  -1.084  1.00  0.00     0.279 C 
HETATM   16  C   UNL     1      40.344 -14.845  -2.094  1.00  0.00     0.248 C 
HETATM   17  N   UNL     1      39.012 -14.630  -2.349  1.00  0.00    -0.358 N 
HETATM   18  O   UNL     1      40.963 -15.712  -2.697  1.00  0.00    -0.271 OA
HETATM   19  C   UNL     1      38.096 -14.026  -1.396  1.00  0.00     0.150 C 
HETATM   20  H   UNL     1      38.629 -15.286  -3.029  1.00  0.00     0.162 HD
HETATM   21  C   UNL     1      38.736 -12.974  -0.480  1.00  0.00     0.256 C 
HETATM   22  H   UNL     1      39.819 -14.429   0.488  1.00  0.00     0.281 HD
BRANCH  15  23
HETATM   23  C   UNL     1      41.554 -12.637  -1.794  1.00  0.00     0.038 C 
HETATM   24  C   UNL     1      42.846 -12.900  -2.560  1.00  0.00     0.007 C 
ENDBRANCH  15  23
ENDBRANCH  13  14
ENDBRANCH   1  13
BRANCH   8  25
HETATM   25  C   UNL     1      42.550 -17.649   3.553  1.00  0.00     0.274 C 
BRANCH  25  26
HETATM   26  C   UNL     1      43.216 -18.963   3.247  1.00  0.00    -0.029 A 
HETATM   27  C   UNL     1      44.102 -19.548   4.166  1.00  0.00     0.054 A 
HETATM   28  C   UNL     1      44.720 -20.762   3.866  1.00  0.00     0.155 A 
HETATM   29  F   UNL     1      45.560 -21.297   4.760  1.00  0.00    -0.203 F 
HETATM   30  C   UNL     1      44.470 -21.403   2.662  1.00  0.00     0.154 A 
HETATM   31  F   UNL     1      45.065 -22.567   2.377  1.00  0.00    -0.203 F 
HETATM   32  C   UNL     1      43.596 -20.838   1.739  1.00  0.00     0.046 A 
HETATM   33  C   UNL     1      42.970 -19.622   2.029  1.00  0.00     0.012 A 
ENDBRANCH  25  26
ENDBRANCH   8  25
TORSDOF 5
ENDMDL
MODEL 4
REMARK VINA RESULT:      -8.5      4.070      7.020
REMARK  5 active torsions:
REMARK  status: ('A' for Active; 'I' for Inactive)
REMARK    1  A    between atoms: C_2  and  C_3 
REMARK    2  A    between atoms: N_4  and  C_6 
REMARK    3  A    between atoms: C_6  and  C_7 
REMARK    4  A    between atoms: N_14  and  C_16 
REMARK    5  A    between atoms: C_16  and  C_17 
ROOT
HETATM    1  C   UNL     1      40.124 -14.233   1.451  1.00  0.00    -0.032 A 
HETATM    2  C   UNL     1      41.393 -14.817   1.660  1.00  0.00     0.020 A 
HETATM    3  C   UNL     1      42.030 -14.765   2.917  1.00  0.00     0.002 A 
HETATM    4  C   UNL     1      41.376 -14.112   3.962  1.00  0.00     0.076 A 
HETATM    5  O   UNL     1      41.965 -13.975   5.186  1.00  0.00    -0.349 OA
HETATM    6  C   UNL     1      42.019 -15.218   5.896  1.00  0.00     0.203 C 
HETATM    7  C   UNL     1      43.325 -15.962   5.605  1.00  0.00     0.262 C 
HETATM    8  N   UNL     1      43.411 -16.493   4.178  1.00  0.00    -0.061 N 
HETATM    9  H   UNL     1      44.354 -16.895   4.117  1.00  0.00     0.280 HD
HETATM   10  C   UNL     1      43.384 -15.386   3.142  1.00  0.00     0.276 C 
HETATM   11  C   UNL     1      40.127 -13.524   3.777  1.00  0.00     0.038 A 
HETATM   12  C   UNL     1      39.491 -13.607   2.537  1.00  0.00     0.011 A 
ENDROOT
BRANCH   1  13
HETATM   13  C   UNL     1      39.448 -14.354   0.100  1.00  0.00     0.274 C 
BRANCH  13  14
HETATM   14  N   UNL     1      40.363 -14.293  -1.095  1.00  0.00    -0.053 N 
HETATM   15  C   UNL     1      41.062 -12.911  -1.283  1.00  0.00     0.279 C 
HETATM   16  C   UNL     1      42.072 -12.963  -2.452  1.00  0.00     0.248 C 
HETATM   17  N   UNL     1      41.725 -13.726  -3.539  1.00  0.00    -0.358 N 
HETATM   18  O   UNL     1      43.106 -12.309  -2.452  1.00  0.00    -0.271 OA
HETATM   19  C   UNL     1      40.846 -14.880  -3.467  1.00  0.00     0.150 C 
HETATM   20  H   UNL     1      42.430 -13.709  -4.275  1.00  0.00     0.162 HD
HETATM   21  C   UNL     1      39.748 -14.776  -2.400  1.00  0.00     0.256 C 
HETATM   22  H   UNL     1      41.147 -14.925  -0.900  1.00  0.00     0.281 HD
BRANCH  15  23
HETATM   23  C   UNL     1      40.031 -11.793  -1.506  1.00  0.00     0.038 C 
HETATM   24  C   UNL     1      40.120 -10.698  -0.448  1.00  0.00     0.007 C 
ENDBRANCH  15  23
ENDBRANCH  13  14
ENDBRANCH   1  13
BRANCH   8  25
HETATM   25  C   UNL     1      42.470 -17.628   3.845  1.00  0.00     0.274 C 
BRANCH  25  26
HETATM   26  C   UNL     1      43.153 -18.901   3.425  1.00  0.00    -0.029 A 
HETATM   27  C   UNL     1      44.045 -19.554   4.289  1.00  0.00     0.054 A 
HETATM   28  C   UNL     1      44.680 -20.729   3.883  1.00  0.00     0.155 A 
HETATM   29  F   UNL     1      45.525 -21.331   4.727  1.00  0.00    -0.203 F 
HETATM   30  C   UNL     1      44.439 -21.263   2.626  1.00  0.00     0.154 A 
HETATM   31  F   UNL     1      45.049 -22.389   2.239  1.00  0.00    -0.203 F 
HETATM   32  C   UNL     1      43.559 -20.628   1.755  1.00  0.00     0.046 A 
HETATM   33  C   UNL     1      42.917 -19.451   2.151  1.00  0.00     0.012 A 
ENDBRANCH  25  26
ENDBRANCH   8  25
TORSDOF 5
ENDMDL
MODEL 5
REMARK VINA RESULT:      -8.5      3.966      7.415
REMARK  5 active torsions:
REMARK  status: ('A' for Active; 'I' for Inactive)
REMARK    1  A    between atoms: C_2  and  C_3 
REMARK    2  A    between atoms: N_4  and  C_6 
REMARK    3  A    between atoms: C_6  and  C_7 
REMARK    4  A    between atoms: N_14  and  C_16 
REMARK    5  A    between atoms: C_16  and  C_17 
ROOT
HETATM    1  C   UNL     1      42.033 -15.888   2.690  1.00  0.00    -0.032 A 
HETATM    2  C   UNL     1      40.815 -15.840   1.977  1.00  0.00     0.020 A 
HETATM    3  C   UNL     1      39.863 -14.826   2.212  1.00  0.00     0.002 A 
HETATM    4  C   UNL     1      40.150 -13.863   3.180  1.00  0.00     0.076 A 
HETATM    5  O   UNL     1      39.245 -12.892   3.497  1.00  0.00    -0.349 OA
HETATM    6  C   UNL     1      39.120 -11.916   2.454  1.00  0.00     0.203 C 
HETATM    7  C   UNL     1      38.015 -12.303   1.468  1.00  0.00     0.262 C 
HETATM    8  N   UNL     1      38.363 -13.522   0.620  1.00  0.00    -0.061 N 
HETATM    9  H   UNL     1      37.512 -13.697   0.073  1.00  0.00     0.280 HD
HETATM   10  C   UNL     1      38.562 -14.773   1.454  1.00  0.00     0.276 C 
HETATM   11  C   UNL     1      41.342 -13.895   3.899  1.00  0.00     0.038 A 
HETATM   12  C   UNL     1      42.291 -14.884   3.637  1.00  0.00     0.011 A 
ENDROOT
BRANCH   1  13
HETATM   13  C   UNL     1      43.054 -16.963   2.374  1.00  0.00     0.274 C 
BRANCH  13  14
HETATM   14  N   UNL     1      43.471 -17.829   3.533  1.00  0.00    -0.053 N 
HETATM   15  C   UNL     1      44.146 -19.170   3.107  1.00  0.00     0.279 C 
HETATM   16  C   UNL     1      44.653 -19.945   4.343  1.00  0.00     0.248 C 
HETATM   17  N   UNL     1      43.882 -19.879   5.477  1.00  0.00    -0.358 N 
HETATM   18  O   UNL     1      45.657 -20.644   4.311  1.00  0.00    -0.271 OA
HETATM   19  C   UNL     1      43.014 -18.759   5.797  1.00  0.00     0.150 C 
HETATM   20  H   UNL     1      44.269 -20.419   6.251  1.00  0.00     0.162 HD
HETATM   21  C   UNL     1      42.391 -18.069   4.576  1.00  0.00     0.256 C 
HETATM   22  H   UNL     1      44.227 -17.332   4.016  1.00  0.00     0.281 HD
BRANCH  15  23
HETATM   23  C   UNL     1      43.183 -20.037   2.279  1.00  0.00     0.038 C 
HETATM   24  C   UNL     1      43.846 -21.306   1.753  1.00  0.00     0.007 C 
ENDBRANCH  15  23
ENDBRANCH  13  14
ENDBRANCH   1  13
BRANCH   8  25
HETATM   25  C   UNL     1      39.461 -13.317  -0.398  1.00  0.00     0.274 C 
BRANCH  25  26
HETATM   26  C   UNL     1      39.334 -14.171  -1.630  1.00  0.00    -0.029 A 
HETATM   27  C   UNL     1      38.111 -14.268  -2.313  1.00  0.00     0.054 A 
HETATM   28  C   UNL     1      38.005 -15.071  -3.449  1.00  0.00     0.155 A 
HETATM   29  F   UNL     1      36.828 -15.144  -4.080  1.00  0.00    -0.203 F 
HETATM   30  C   UNL     1      39.101 -15.781  -3.915  1.00  0.00     0.154 A 
HETATM   31  F   UNL     1      38.996 -16.551  -5.005  1.00  0.00    -0.203 F 
HETATM   32  C   UNL     1      40.320 -15.699  -3.252  1.00  0.00     0.046 A 
HETATM   33  C   UNL     1      40.439 -14.897  -2.113  1.00  0.00     0.012 A 
ENDBRANCH  25  26
ENDBRANCH   8  25
TORSDOF 5
ENDMDL
MODEL 6
REMARK VINA RESULT:      -8.1      2.778      7.327
REMARK  5 active torsions:
REMARK  status: ('A' for Active; 'I' for Inactive)
REMARK    1  A    between atoms: C_2  and  C_3 
REMARK    2  A    between atoms: N_4  and  C_6 
REMARK    3  A    between atoms: C_6  and  C_7 
REMARK    4  A    between atoms: N_14  and  C_16 
REMARK    5  A    between atoms: C_16  and  C_17 
ROOT
HETATM    1  C   UNL     1      43.220 -17.113   1.749  1.00  0.00    -0.032 A 
HETATM    2  C   UNL     1      43.372 -15.808   2.267  1.00  0.00     0.020 A 
HETATM    3  C   UNL     1      42.364 -14.834   2.115  1.00  0.00     0.002 A 
HETATM    4  C   UNL     1      41.201 -15.187   1.429  1.00  0.00     0.076 A 
HETATM    5  O   UNL     1      40.215 -14.274   1.196  1.00  0.00    -0.349 OA
HETATM    6  C   UNL     1      39.499 -13.942   2.392  1.00  0.00     0.203 C 
HETATM    7  C   UNL     1      40.131 -12.740   3.097  1.00  0.00     0.262 C 
HETATM    8  N   UNL     1      41.494 -13.046   3.707  1.00  0.00    -0.061 N 
HETATM    9  H   UNL     1      41.815 -12.142   4.072  1.00  0.00     0.280 HD
HETATM   10  C   UNL     1      42.523 -13.440   2.665  1.00  0.00     0.276 C 
HETATM   11  C   UNL     1      41.034 -16.467   0.905  1.00  0.00     0.038 A 
HETATM   12  C   UNL     1      42.024 -17.433   1.088  1.00  0.00     0.011 A 
ENDROOT
BRANCH   1  13
HETATM   13  C   UNL     1      44.304 -18.149   1.977  1.00  0.00     0.274 C 
BRANCH  13  14
HETATM   14  N   UNL     1      44.326 -18.780   3.345  1.00  0.00    -0.053 N 
HETATM   15  C   UNL     1      44.629 -20.310   3.327  1.00  0.00     0.279 C 
HETATM   16  C   UNL     1      44.755 -20.860   4.765  1.00  0.00     0.248 C 
HETATM   17  N   UNL     1      43.917 -20.323   5.711  1.00  0.00    -0.358 N 
HETATM   18  O   UNL     1      45.513 -21.777   5.051  1.00  0.00    -0.271 OA
HETATM   19  C   UNL     1      43.378 -18.976   5.639  1.00  0.00     0.150 C 
HETATM   20  H   UNL     1      44.046 -20.736   6.634  1.00  0.00     0.162 HD
HETATM   21  C   UNL     1      43.116 -18.472   4.213  1.00  0.00     0.256 C 
HETATM   22  H   UNL     1      45.136 -18.389   3.837  1.00  0.00     0.281 HD
BRANCH  15  23
HETATM   23  C   UNL     1      43.553 -21.080   2.543  1.00  0.00     0.038 C 
HETATM   24  C   UNL     1      44.146 -21.957   1.445  1.00  0.00     0.007 C 
ENDBRANCH  15  23
ENDBRANCH  13  14
ENDBRANCH   1  13
BRANCH   8  25
HETATM   25  C   UNL     1      41.483 -13.977   4.898  1.00  0.00     0.274 C 
BRANCH  25  26
HETATM   26  C   UNL     1      42.609 -13.758   5.871  1.00  0.00    -0.029 A 
HETATM   27  C   UNL     1      42.615 -12.639   6.719  1.00  0.00     0.054 A 
HETATM   28  C   UNL     1      43.670 -12.442   7.611  1.00  0.00     0.155 A 
HETATM   29  F   UNL     1      43.650 -11.368   8.407  1.00  0.00    -0.203 F 
HETATM   30  C   UNL     1      44.722 -13.344   7.669  1.00  0.00     0.154 A 
HETATM   31  F   UNL     1      45.732 -13.153   8.525  1.00  0.00    -0.203 F 
HETATM   32  C   UNL     1      44.734 -14.457   6.836  1.00  0.00     0.046 A 
HETATM   33  C   UNL     1      43.682 -14.666   5.939  1.00  0.00     0.012 A 
ENDBRANCH  25  26
ENDBRANCH   8  25
TORSDOF 5
ENDMDL
MODEL 7
REMARK VINA RESULT:      -8.1      3.798      6.687
REMARK  5 active torsions:
REMARK  status: ('A' for Active; 'I' for Inactive)
REMARK    1  A    between atoms: C_2  and  C_3 
REMARK    2  A    between atoms: N_4  and  C_6 
REMARK    3  A    between atoms: C_6  and  C_7 
REMARK    4  A    between atoms: N_14  and  C_16 
REMARK    5  A    between atoms: C_16  and  C_17 
ROOT
HETATM    1  C   UNL     1      41.809 -13.095   2.352  1.00  0.00    -0.032 A 
HETATM    2  C   UNL     1      42.814 -13.862   2.982  1.00  0.00     0.020 A 
HETATM    3  C   UNL     1      42.555 -14.585   4.165  1.00  0.00     0.002 A 
HETATM    4  C   UNL     1      41.272 -14.524   4.709  1.00  0.00     0.076 A 
HETATM    5  O   UNL     1      40.974 -15.152   5.884  1.00  0.00    -0.349 OA
HETATM    6  C   UNL     1      40.923 -16.576   5.731  1.00  0.00     0.203 C 
HETATM    7  C   UNL     1      42.290 -17.208   6.004  1.00  0.00     0.262 C 
HETATM    8  N   UNL     1      43.328 -16.887   4.935  1.00  0.00    -0.061 N 
HETATM    9  H   UNL     1      44.193 -17.312   5.289  1.00  0.00     0.280 HD
HETATM   10  C   UNL     1      43.626 -15.403   4.840  1.00  0.00     0.276 C 
HETATM   11  C   UNL     1      40.268 -13.770   4.107  1.00  0.00     0.038 A 
HETATM   12  C   UNL     1      40.526 -13.082   2.920  1.00  0.00     0.011 A 
ENDROOT
BRANCH   1  13
HETATM   13  C   UNL     1      42.110 -12.373   1.053  1.00  0.00     0.274 C 
BRANCH  13  14
HETATM   14  N   UNL     1      40.963 -12.266   0.084  1.00  0.00    -0.053 N 
HETATM   15  C   UNL     1      40.289 -13.634  -0.246  1.00  0.00     0.279 C 
HETATM   16  C   UNL     1      39.050 -13.431  -1.147  1.00  0.00     0.248 C 
HETATM   17  N   UNL     1      39.127 -12.441  -2.095  1.00  0.00    -0.358 N 
HETATM   18  O   UNL     1      38.064 -14.152  -1.076  1.00  0.00    -0.271 OA
HETATM   19  C   UNL     1      39.959 -11.258  -1.960  1.00  0.00     0.150 C 
HETATM   20  H   UNL     1      38.281 -12.367  -2.659  1.00  0.00     0.162 HD
HETATM   21  C   UNL     1      41.265 -11.486  -1.185  1.00  0.00     0.256 C 
HETATM   22  H   UNL     1      40.217 -11.750   0.564  1.00  0.00     0.281 HD
BRANCH  15  23
HETATM   23  C   UNL     1      41.287 -14.600  -0.906  1.00  0.00     0.038 C 
HETATM   24  C   UNL     1      41.382 -15.933  -0.170  1.00  0.00     0.007 C 
ENDBRANCH  15  23
ENDBRANCH  13  14
ENDBRANCH   1  13
BRANCH   8  25
HETATM   25  C   UNL     1      43.093 -17.522   3.584  1.00  0.00     0.274 C 
BRANCH  25  26
HETATM   26  C   UNL     1      43.597 -18.934   3.464  1.00  0.00    -0.029 A 
HETATM   27  C   UNL     1      43.328 -19.696   2.316  1.00  0.00     0.054 A 
HETATM   28  C   UNL     1      43.794 -21.009   2.221  1.00  0.00     0.155 A 
HETATM   29  F   UNL     1      43.523 -21.711   1.116  1.00  0.00    -0.203 F 
HETATM   30  C   UNL     1      44.523 -21.574   3.256  1.00  0.00     0.154 A 
HETATM   31  F   UNL     1      44.968 -22.833   3.163  1.00  0.00    -0.203 F 
HETATM   32  C   UNL     1      44.798 -20.836   4.402  1.00  0.00     0.046 A 
HETATM   33  C   UNL     1      44.338 -19.520   4.508  1.00  0.00     0.012 A 
ENDBRANCH  25  26
ENDBRANCH   8  25
TORSDOF 5
ENDMDL
MODEL 8
REMARK VINA RESULT:      -7.9      3.452      6.403
REMARK  5 active torsions:
REMARK  status: ('A' for Active; 'I' for Inactive)
REMARK    1  A    between atoms: C_2  and  C_3 
REMARK    2  A    between atoms: N_4  and  C_6 
REMARK    3  A    between atoms: C_6  and  C_7 
REMARK    4  A    between atoms: N_14  and  C_16 
REMARK    5  A    between atoms: C_16  and  C_17 
ROOT
HETATM    1  C   UNL     1      41.870 -17.128   1.142  1.00  0.00    -0.032 A 
HETATM    2  C   UNL     1      41.280 -16.877   2.400  1.00  0.00     0.020 A 
HETATM    3  C   UNL     1      41.873 -17.332   3.596  1.00  0.00     0.002 A 
HETATM    4  C   UNL     1      43.067 -18.048   3.510  1.00  0.00     0.076 A 
HETATM    5  O   UNL     1      43.659 -18.567   4.624  1.00  0.00    -0.349 OA
HETATM    6  C   UNL     1      44.243 -17.547   5.445  1.00  0.00     0.203 C 
HETATM    7  C   UNL     1      43.244 -17.043   6.489  1.00  0.00     0.262 C 
HETATM    8  N   UNL     1      42.094 -16.243   5.887  1.00  0.00    -0.061 N 
HETATM    9  H   UNL     1      41.483 -16.041   6.688  1.00  0.00     0.280 HD
HETATM   10  C   UNL     1      41.244 -17.067   4.939  1.00  0.00     0.276 C 
HETATM   11  C   UNL     1      43.664 -18.311   2.279  1.00  0.00     0.038 A 
HETATM   12  C   UNL     1      43.085 -17.831   1.103  1.00  0.00     0.011 A 
ENDROOT
BRANCH   1  13
HETATM   13  C   UNL     1      41.231 -16.578  -0.118  1.00  0.00     0.274 C 
BRANCH  13  14
HETATM   14  N   UNL     1      41.716 -15.222  -0.558  1.00  0.00    -0.053 N 
HETATM   15  C   UNL     1      41.434 -14.087   0.474  1.00  0.00     0.279 C 
HETATM   16  C   UNL     1      42.064 -12.755   0.010  1.00  0.00     0.248 C 
HETATM   17  N   UNL     1      42.046 -12.496  -1.338  1.00  0.00    -0.358 N 
HETATM   18  O   UNL     1      42.504 -11.929   0.799  1.00  0.00    -0.271 OA
HETATM   19  C   UNL     1      42.033 -13.530  -2.358  1.00  0.00     0.150 C 
HETATM   20  H   UNL     1      42.469 -11.599  -1.574  1.00  0.00     0.162 HD
HETATM   21  C   UNL     1      41.283 -14.808  -1.956  1.00  0.00     0.256 C 
HETATM   22  H   UNL     1      42.740 -15.267  -0.579  1.00  0.00     0.281 HD
BRANCH  15  23
HETATM   23  C   UNL     1      39.925 -13.918   0.716  1.00  0.00     0.038 C 
HETATM   24  C   UNL     1      39.595 -13.645   2.180  1.00  0.00     0.007 C 
ENDBRANCH  15  23
ENDBRANCH  13  14
ENDBRANCH   1  13
BRANCH   8  25
HETATM   25  C   UNL     1      42.465 -14.894   5.316  1.00  0.00     0.274 C 
BRANCH  25  26
HETATM   26  C   UNL     1      41.594 -13.759   5.781  1.00  0.00    -0.029 A 
HETATM   27  C   UNL     1      42.160 -12.536   6.173  1.00  0.00     0.054 A 
HETATM   28  C   UNL     1      41.341 -11.494   6.612  1.00  0.00     0.155 A 
HETATM   29  F   UNL     1      41.907 -10.339   6.979  1.00  0.00    -0.203 F 
HETATM   30  C   UNL     1      39.965 -11.654   6.668  1.00  0.00     0.154 A 
HETATM   31  F   UNL     1      39.183 -10.654   7.090  1.00  0.00    -0.203 F 
HETATM   32  C   UNL     1      39.386 -12.860   6.285  1.00  0.00     0.046 A 
HETATM   33  C   UNL     1      40.196 -13.910   5.843  1.00  0.00     0.012 A 
ENDBRANCH  25  26
ENDBRANCH   8  25
TORSDOF 5
ENDMDL
MODEL 9
REMARK VINA RESULT:      -7.8      4.203      7.361
REMARK  5 active torsions:
REMARK  status: ('A' for Active; 'I' for Inactive)
REMARK    1  A    between atoms: C_2  and  C_3 
REMARK    2  A    between atoms: N_4  and  C_6 
REMARK    3  A    between atoms: C_6  and  C_7 
REMARK    4  A    between atoms: N_14  and  C_16 
REMARK    5  A    between atoms: C_16  and  C_17 
ROOT
HETATM    1  C   UNL     1      42.378 -15.199   2.322  1.00  0.00    -0.032 A 
HETATM    2  C   UNL     1      42.195 -14.872   3.684  1.00  0.00     0.020 A 
HETATM    3  C   UNL     1      42.451 -15.809   4.706  1.00  0.00     0.002 A 
HETATM    4  C   UNL     1      42.887 -17.083   4.341  1.00  0.00     0.076 A 
HETATM    5  O   UNL     1      43.093 -18.053   5.279  1.00  0.00    -0.349 OA
HETATM    6  C   UNL     1      44.262 -17.796   6.067  1.00  0.00     0.203 C 
HETATM    7  C   UNL     1      43.917 -16.981   7.316  1.00  0.00     0.262 C 
HETATM    8  N   UNL     1      43.511 -15.545   7.007  1.00  0.00    -0.061 N 
HETATM    9  H   UNL     1      43.245 -15.158   7.920  1.00  0.00     0.280 HD
HETATM   10  C   UNL     1      42.256 -15.464   6.160  1.00  0.00     0.276 C 
HETATM   11  C   UNL     1      43.068 -17.428   3.005  1.00  0.00     0.038 A 
HETATM   12  C   UNL     1      42.842 -16.484   2.001  1.00  0.00     0.011 A 
ENDROOT
BRANCH   1  13
HETATM   13  C   UNL     1      42.143 -14.150   1.253  1.00  0.00     0.274 C 
BRANCH  13  14
HETATM   14  N   UNL     1      40.918 -14.349   0.401  1.00  0.00    -0.053 N 
HETATM   15  C   UNL     1      41.190 -14.231  -1.131  1.00  0.00     0.279 C 
HETATM   16  C   UNL     1      39.918 -14.566  -1.941  1.00  0.00     0.248 C 
HETATM   17  N   UNL     1      38.719 -14.161  -1.410  1.00  0.00    -0.358 N 
HETATM   18  O   UNL     1      39.965 -15.108  -3.038  1.00  0.00    -0.271 OA
HETATM   19  C   UNL     1      38.484 -13.989   0.013  1.00  0.00     0.150 C 
HETATM   20  H   UNL     1      37.923 -14.406  -1.999  1.00  0.00     0.162 HD
HETATM   21  C   UNL     1      39.711 -13.518   0.806  1.00  0.00     0.256 C 
HETATM   22  H   UNL     1      40.637 -15.330   0.511  1.00  0.00     0.281 HD
BRANCH  15  23
HETATM   23  C   UNL     1      41.713 -12.832  -1.496  1.00  0.00     0.038 C 
HETATM   24  C   UNL     1      42.811 -12.877  -2.554  1.00  0.00     0.007 C 
ENDBRANCH  15  23
ENDBRANCH  13  14
ENDBRANCH   1  13
BRANCH   8  25
HETATM   25  C   UNL     1      44.617 -14.648   6.499  1.00  0.00     0.274 C 
BRANCH  25  26
HETATM   26  C   UNL     1      45.029 -13.564   7.456  1.00  0.00    -0.029 A 
HETATM   27  C   UNL     1      44.185 -13.180   8.510  1.00  0.00     0.054 A 
HETATM   28  C   UNL     1      44.576 -12.165   9.386  1.00  0.00     0.155 A 
HETATM   29  F   UNL     1      43.752 -11.820  10.381  1.00  0.00    -0.203 F 
HETATM   30  C   UNL     1      45.796 -11.526   9.225  1.00  0.00     0.154 A 
HETATM   31  F   UNL     1      46.167 -10.554  10.066  1.00  0.00    -0.203 F 
HETATM   32  C   UNL     1      46.645 -11.892   8.186  1.00  0.00     0.046 A 
HETATM   33  C   UNL     1      46.265 -12.908   7.303  1.00  0.00     0.012 A 
ENDBRANCH  25  26
ENDBRANCH   8  25
TORSDOF 5
ENDMDL
MODEL 10
REMARK VINA RESULT:      -7.8      3.073      5.921
REMARK  5 active torsions:
REMARK  status: ('A' for Active; 'I' for Inactive)
REMARK    1  A    between atoms: C_2  and  C_3 
REMARK    2  A    between atoms: N_4  and  C_6 
REMARK    3  A    between atoms: C_6  and  C_7 
REMARK    4  A    between atoms: N_14  and  C_16 
REMARK    5  A    between atoms: C_16  and  C_17 
ROOT
HETATM    1  C   UNL     1      42.489 -17.363   1.435  1.00  0.00    -0.032 A 
HETATM    2  C   UNL     1      41.851 -17.223   2.688  1.00  0.00     0.020 A 
HETATM    3  C   UNL     1      42.302 -17.921   3.826  1.00  0.00     0.002 A 
HETATM    4  C   UNL     1      43.403 -18.768   3.689  1.00  0.00     0.076 A 
HETATM    5  O   UNL     1      43.851 -19.516   4.738  1.00  0.00    -0.349 OA
HETATM    6  C   UNL     1      44.499 -18.712   5.732  1.00  0.00     0.203 C 
HETATM    7  C   UNL     1      43.501 -18.238   6.792  1.00  0.00     0.262 C 
HETATM    8  N   UNL     1      42.501 -17.216   6.266  1.00  0.00    -0.061 N 
HETATM    9  H   UNL     1      41.867 -17.054   7.058  1.00  0.00     0.280 HD
HETATM   10  C   UNL     1      41.622 -17.775   5.163  1.00  0.00     0.276 C 
HETATM   11  C   UNL     1      44.044 -18.924   2.463  1.00  0.00     0.038 A 
HETATM   12  C   UNL     1      43.608 -18.206   1.348  1.00  0.00     0.011 A 
ENDROOT
BRANCH   1  13
HETATM   13  C   UNL     1      42.007 -16.557   0.245  1.00  0.00     0.274 C 
BRANCH  13  14
HETATM   14  N   UNL     1      41.162 -15.353   0.572  1.00  0.00    -0.053 N 
HETATM   15  C   UNL     1      40.283 -14.859  -0.619  1.00  0.00     0.279 C 
HETATM   16  C   UNL     1      39.359 -13.703  -0.175  1.00  0.00     0.248 C 
HETATM   17  N   UNL     1      39.873 -12.811   0.732  1.00  0.00    -0.358 N 
HETATM   18  O   UNL     1      38.244 -13.538  -0.651  1.00  0.00    -0.271 OA
HETATM   19  C   UNL     1      40.903 -13.148   1.700  1.00  0.00     0.150 C 
HETATM   20  H   UNL     1      39.216 -12.070   0.975  1.00  0.00     0.162 HD
HETATM   21  C   UNL     1      41.913 -14.196   1.212  1.00  0.00     0.256 C 
HETATM   22  H   UNL     1      40.467 -15.658   1.262  1.00  0.00     0.281 HD
BRANCH  15  23
HETATM   23  C   UNL     1      41.154 -14.431  -1.812  1.00  0.00     0.038 C 
HETATM   24  C   UNL     1      40.947 -15.320  -3.034  1.00  0.00     0.007 C 
ENDBRANCH  15  23
ENDBRANCH  13  14
ENDBRANCH   1  13
BRANCH   8  25
HETATM   25  C   UNL     1      43.072 -15.858   5.926  1.00  0.00     0.274 C 
BRANCH  25  26
HETATM   26  C   UNL     1      42.041 -14.783   5.719  1.00  0.00    -0.029 A 
HETATM   27  C   UNL     1      42.425 -13.481   5.360  1.00  0.00     0.054 A 
HETATM   28  C   UNL     1      41.458 -12.490   5.180  1.00  0.00     0.155 A 
HETATM   29  F   UNL     1      41.853 -11.259   4.838  1.00  0.00    -0.203 F 
HETATM   30  C   UNL     1      40.113 -12.778   5.355  1.00  0.00     0.154 A 
HETATM   31  F   UNL     1      39.189 -11.826   5.183  1.00  0.00    -0.203 F 
HETATM   32  C   UNL     1      39.713 -14.061   5.712  1.00  0.00     0.046 A 
HETATM   33  C   UNL     1      40.672 -15.062   5.893  1.00  0.00     0.012 A 
ENDBRANCH  25  26
ENDBRANCH   8  25
TORSDOF 5
ENDMDL
