MODEL 1
REMARK VINA RESULT:      -9.1      0.000      0.000
REMARK  4 active torsions:
REMARK  status: ('A' for Active; 'I' for Inactive)
REMARK    1  A    between atoms: C_4  and  C_5 
REMARK    2  A    between atoms: C_5  and  N_6 
REMARK    3  A    between atoms: C_9  and  C_10 
REMARK    4  A    between atoms: C_22  and  C_23 
ROOT
HETATM    1  N   UNL     1      44.731 -12.982   7.891  1.00  0.00    -0.314 N 
HETATM    2  N   UNL     1      44.490 -14.339   7.777  1.00  0.00    -0.203 NA
HETATM    3  C   UNL     1      43.449 -14.529   6.867  1.00  0.00     0.041 C 
HETATM    4  C   UNL     1      42.980 -15.651   6.302  1.00  0.00     0.044 C 
HETATM    5  C   UNL     1      42.925 -13.169   6.578  1.00  0.00     0.015 C 
HETATM    6  C   UNL     1      43.731 -12.301   7.226  1.00  0.00     0.119 C 
HETATM    7  H   UNL     1      45.318 -14.928   7.643  1.00  0.00     0.153 HD
ENDROOT
BRANCH   4   8
HETATM    8  C   UNL     1      43.400 -17.007   6.546  1.00  0.00     0.046 A 
HETATM    9  C   UNL     1      43.612 -17.643   7.862  1.00  0.00     0.257 A 
HETATM   10  O   UNL     1      43.594 -17.251   9.002  1.00  0.00    -0.267 OA
HETATM   11  N   UNL     1      44.012 -19.088   7.619  1.00  0.00    -0.322 N 
HETATM   12  C   UNL     1      44.063 -19.210   6.351  1.00  0.00     0.046 A 
HETATM   13  H   UNL     1      44.213 -19.753   8.355  1.00  0.00     0.169 HD
HETATM   14  C   UNL     1      43.705 -17.954   5.637  1.00  0.00     0.008 A 
HETATM   15  C   UNL     1      44.426 -20.402   5.571  1.00  0.00     0.032 A 
HETATM   16  C   UNL     1      43.722 -17.943   4.199  1.00  0.00     0.038 A 
HETATM   17  C   UNL     1      44.069 -19.060   3.536  1.00  0.00     0.035 A 
HETATM   18  C   UNL     1      44.419 -20.289   4.231  1.00  0.00     0.026 A 
HETATM   19 CL   UNL     1      44.114 -19.072   1.814  1.00  0.00    -0.084 Cl
ENDBRANCH   4   8
BRANCH   5  20
HETATM   20  C   UNL     1      41.748 -12.758   5.819  1.00  0.00    -0.005 A 
HETATM   21  C   UNL     1      41.873 -12.174   4.561  1.00  0.00     0.128 A 
HETATM   22  N   UNL     1      40.833 -11.740   3.813  1.00  0.00    -0.272 NA
HETATM   23  C   UNL     1      39.598 -11.931   4.325  1.00  0.00     0.116 A 
HETATM   24  C   UNL     1      39.360 -12.519   5.557  1.00  0.00     0.020 A 
HETATM   25  C   UNL     1      40.454 -12.933   6.315  1.00  0.00     0.015 A 
ENDBRANCH   5  20
BRANCH   1  26
HETATM   26  C   UNL     1      45.586 -12.445   8.945  1.00  0.00     0.181 C 
BRANCH  26  27
HETATM   27  C   UNL     1      44.755 -11.865  10.070  1.00  0.00    -0.039 A 
HETATM   28  C   UNL     1      44.228 -12.701  11.070  1.00  0.00     0.009 A 
HETATM   29  C   UNL     1      43.498 -12.167  12.132  1.00  0.00     0.001 A 
HETATM   30  C   UNL     1      43.290 -10.791  12.211  1.00  0.00     0.000 A 
HETATM   31  C   UNL     1      43.810  -9.950  11.228  1.00  0.00     0.001 A 
HETATM   32  C   UNL     1      44.539 -10.484  10.163  1.00  0.00     0.009 A 
ENDBRANCH  26  27
ENDBRANCH   1  26
TORSDOF 4
ENDMDL
MODEL 2
REMARK VINA RESULT:      -9.0      2.703      7.008
REMARK  4 active torsions:
REMARK  status: ('A' for Active; 'I' for Inactive)
REMARK    1  A    between atoms: C_4  and  C_5 
REMARK    2  A    between atoms: C_5  and  N_6 
REMARK    3  A    between atoms: C_9  and  C_10 
REMARK    4  A    between atoms: C_22  and  C_23 
ROOT
HETATM    1  N   UNL     1      43.530 -16.777   6.546  1.00  0.00    -0.314 N 
HETATM    2  N   UNL     1      42.950 -16.002   5.558  1.00  0.00    -0.203 NA
HETATM    3  C   UNL     1      43.505 -14.723   5.616  1.00  0.00     0.041 C 
HETATM    4  C   UNL     1      43.396 -13.687   4.771  1.00  0.00     0.044 C 
HETATM    5  C   UNL     1      44.330 -14.706   6.851  1.00  0.00     0.015 C 
HETATM    6  C   UNL     1      44.293 -15.958   7.355  1.00  0.00     0.119 C 
HETATM    7  H   UNL     1      42.902 -16.430   4.628  1.00  0.00     0.153 HD
ENDROOT
BRANCH   4   8
HETATM    8  C   UNL     1      42.598 -13.601   3.575  1.00  0.00     0.046 A 
HETATM    9  C   UNL     1      41.670 -12.512   3.208  1.00  0.00     0.257 A 
HETATM   10  O   UNL     1      41.267 -11.522   3.766  1.00  0.00    -0.267 OA
HETATM   11  N   UNL     1      41.087 -12.840   1.845  1.00  0.00    -0.322 N 
HETATM   12  C   UNL     1      41.584 -13.972   1.534  1.00  0.00     0.046 A 
HETATM   13  H   UNL     1      40.423 -12.253   1.355  1.00  0.00     0.169 HD
HETATM   14  C   UNL     1      42.516 -14.494   2.569  1.00  0.00     0.008 A 
HETATM   15  C   UNL     1      41.336 -14.767   0.323  1.00  0.00     0.032 A 
HETATM   16  C   UNL     1      43.151 -15.767   2.355  1.00  0.00     0.038 A 
HETATM   17  C   UNL     1      42.881 -16.456   1.232  1.00  0.00     0.035 A 
HETATM   18  C   UNL     1      41.971 -15.947   0.217  1.00  0.00     0.026 A 
HETATM   19 CL   UNL     1      43.615 -17.990   0.954  1.00  0.00    -0.084 Cl
ENDBRANCH   4   8
BRANCH   5  20
HETATM   20  C   UNL     1      45.021 -13.598   7.505  1.00  0.00    -0.005 A 
HETATM   21  C   UNL     1      44.435 -12.915   8.568  1.00  0.00     0.128 A 
HETATM   22  N   UNL     1      45.000 -11.862   9.203  1.00  0.00    -0.272 NA
HETATM   23  C   UNL     1      46.229 -11.492   8.784  1.00  0.00     0.116 A 
HETATM   24  C   UNL     1      46.908 -12.115   7.750  1.00  0.00     0.020 A 
HETATM   25  C   UNL     1      46.290 -13.182   7.099  1.00  0.00     0.015 A 
ENDBRANCH   5  20
BRANCH   1  26
HETATM   26  C   UNL     1      42.989 -18.084   6.907  1.00  0.00     0.181 C 
BRANCH  26  27
HETATM   27  C   UNL     1      43.667 -19.185   6.120  1.00  0.00    -0.039 A 
HETATM   28  C   UNL     1      43.804 -20.471   6.667  1.00  0.00     0.009 A 
HETATM   29  C   UNL     1      44.391 -21.500   5.929  1.00  0.00     0.001 A 
HETATM   30  C   UNL     1      44.841 -21.257   4.633  1.00  0.00     0.000 A 
HETATM   31  C   UNL     1      44.707 -19.987   4.076  1.00  0.00     0.001 A 
HETATM   32  C   UNL     1      44.123 -18.955   4.814  1.00  0.00     0.009 A 
ENDBRANCH  26  27
ENDBRANCH   1  26
TORSDOF 4
ENDMDL
MODEL 3
REMARK VINA RESULT:      -8.8      2.494      7.367
REMARK  4 active torsions:
REMARK  status: ('A' for Active; 'I' for Inactive)
REMARK    1  A    between atoms: C_4  and  C_5 
REMARK    2  A    between atoms: C_5  and  N_6 
REMARK    3  A    between atoms: C_9  and  C_10 
REMARK    4  A    between atoms: C_22  and  C_23 
ROOT
HETATM    1  N   UNL     1      43.372 -16.685   6.088  1.00  0.00    -0.314 N 
HETATM    2  N   UNL     1      42.411 -15.799   5.637  1.00  0.00    -0.203 NA
HETATM    3  C   UNL     1      42.862 -14.499   5.871  1.00  0.00     0.041 C 
HETATM    4  C   UNL     1      42.373 -13.320   5.459  1.00  0.00     0.044 C 
HETATM    5  C   UNL     1      44.092 -14.650   6.690  1.00  0.00     0.015 C 
HETATM    6  C   UNL     1      44.330 -15.976   6.784  1.00  0.00     0.119 C 
HETATM    7  H   UNL     1      42.040 -15.985   4.700  1.00  0.00     0.153 HD
ENDROOT
BRANCH   4   8
HETATM    8  C   UNL     1      41.175 -13.076   4.696  1.00  0.00     0.046 A 
HETATM    9  C   UNL     1      40.024 -12.244   5.100  1.00  0.00     0.257 A 
HETATM   10  O   UNL     1      39.719 -11.656   6.108  1.00  0.00    -0.267 OA
HETATM   11  N   UNL     1      39.022 -12.254   3.959  1.00  0.00    -0.322 N 
HETATM   12  C   UNL     1      39.529 -13.025   3.078  1.00  0.00     0.046 A 
HETATM   13  H   UNL     1      38.141 -11.756   3.973  1.00  0.00     0.169 HD
HETATM   14  C   UNL     1      40.853 -13.568   3.484  1.00  0.00     0.008 A 
HETATM   15  C   UNL     1      38.962 -13.409   1.779  1.00  0.00     0.032 A 
HETATM   16  C   UNL     1      41.543 -14.458   2.589  1.00  0.00     0.038 A 
HETATM   17  C   UNL     1      40.974 -14.782   1.415  1.00  0.00     0.035 A 
HETATM   18  C   UNL     1      39.680 -14.250   1.015  1.00  0.00     0.026 A 
HETATM   19 CL   UNL     1      41.770 -15.856   0.327  1.00  0.00    -0.084 Cl
ENDBRANCH   4   8
BRANCH   5  20
HETATM   20  C   UNL     1      44.906 -13.639   7.357  1.00  0.00    -0.005 A 
HETATM   21  C   UNL     1      46.173 -13.310   6.882  1.00  0.00     0.128 A 
HETATM   22  N   UNL     1      46.998 -12.408   7.463  1.00  0.00    -0.272 NA
HETATM   23  C   UNL     1      46.521 -11.769   8.554  1.00  0.00     0.116 A 
HETATM   24  C   UNL     1      45.269 -12.005   9.097  1.00  0.00     0.020 A 
HETATM   25  C   UNL     1      44.453 -12.959   8.490  1.00  0.00     0.015 A 
ENDBRANCH   5  20
BRANCH   1  26
HETATM   26  C   UNL     1      43.095 -18.113   6.214  1.00  0.00     0.181 C 
BRANCH  26  27
HETATM   27  C   UNL     1      43.582 -18.866   4.995  1.00  0.00    -0.039 A 
HETATM   28  C   UNL     1      44.516 -19.908   5.128  1.00  0.00     0.009 A 
HETATM   29  C   UNL     1      44.936 -20.633   4.013  1.00  0.00     0.001 A 
HETATM   30  C   UNL     1      44.423 -20.332   2.753  1.00  0.00     0.000 A 
HETATM   31  C   UNL     1      43.493 -19.304   2.607  1.00  0.00     0.001 A 
HETATM   32  C   UNL     1      43.074 -18.574   3.722  1.00  0.00     0.009 A 
ENDBRANCH  26  27
ENDBRANCH   1  26
TORSDOF 4
ENDMDL
MODEL 4
REMARK VINA RESULT:      -8.8      2.293      5.833
REMARK  4 active torsions:
REMARK  status: ('A' for Active; 'I' for Inactive)
REMARK    1  A    between atoms: C_4  and  C_5 
REMARK    2  A    between atoms: C_5  and  N_6 
REMARK    3  A    between atoms: C_9  and  C_10 
REMARK    4  A    between atoms: C_22  and  C_23 
ROOT
HETATM    1  N   UNL     1      41.477 -14.151   5.316  1.00  0.00    -0.314 N 
HETATM    2  N   UNL     1      42.160 -15.354   5.287  1.00  0.00    -0.203 NA
HETATM    3  C   UNL     1      43.263 -15.257   6.136  1.00  0.00     0.041 C 
HETATM    4  C   UNL     1      44.114 -16.199   6.570  1.00  0.00     0.044 C 
HETATM    5  C   UNL     1      43.328 -13.829   6.538  1.00  0.00     0.015 C 
HETATM    6  C   UNL     1      42.239 -13.231   6.009  1.00  0.00     0.119 C 
HETATM    7  H   UNL     1      41.583 -16.195   5.392  1.00  0.00     0.153 HD
ENDROOT
BRANCH   4   8
HETATM    8  C   UNL     1      44.149 -17.594   6.208  1.00  0.00     0.046 A 
HETATM    9  C   UNL     1      44.255 -18.743   7.130  1.00  0.00     0.257 A 
HETATM   10  O   UNL     1      44.421 -18.859   8.319  1.00  0.00    -0.267 OA
HETATM   11  N   UNL     1      44.214 -20.011   6.296  1.00  0.00    -0.322 N 
HETATM   12  C   UNL     1      44.148 -19.611   5.087  1.00  0.00     0.046 A 
HETATM   13  H   UNL     1      44.265 -20.946   6.681  1.00  0.00     0.169 HD
HETATM   14  C   UNL     1      44.114 -18.128   4.972  1.00  0.00     0.008 A 
HETATM   15  C   UNL     1      44.108 -20.428   3.866  1.00  0.00     0.032 A 
HETATM   16  C   UNL     1      44.043 -17.534   3.665  1.00  0.00     0.038 A 
HETATM   17  C   UNL     1      44.017 -18.328   2.581  1.00  0.00     0.035 A 
HETATM   18  C   UNL     1      44.048 -19.779   2.690  1.00  0.00     0.026 A 
HETATM   19 CL   UNL     1      43.946 -17.645   1.000  1.00  0.00    -0.084 Cl
ENDBRANCH   4   8
BRANCH   5  20
HETATM   20  C   UNL     1      44.352 -13.110   7.291  1.00  0.00    -0.005 A 
HETATM   21  C   UNL     1      44.004 -12.214   8.299  1.00  0.00     0.128 A 
HETATM   22  N   UNL     1      44.893 -11.489   9.017  1.00  0.00    -0.272 NA
HETATM   23  C   UNL     1      46.200 -11.695   8.746  1.00  0.00     0.116 A 
HETATM   24  C   UNL     1      46.654 -12.577   7.779  1.00  0.00     0.020 A 
HETATM   25  C   UNL     1      45.713 -13.290   7.038  1.00  0.00     0.015 A 
ENDBRANCH   5  20
BRANCH   1  26
HETATM   26  C   UNL     1      40.425 -13.847   4.352  1.00  0.00     0.181 C 
BRANCH  26  27
HETATM   27  C   UNL     1      40.775 -14.388   2.982  1.00  0.00    -0.039 A 
HETATM   28  C   UNL     1      40.339 -15.664   2.586  1.00  0.00     0.009 A 
HETATM   29  C   UNL     1      40.624 -16.149   1.310  1.00  0.00     0.001 A 
HETATM   30  C   UNL     1      41.342 -15.363   0.411  1.00  0.00     0.000 A 
HETATM   31  C   UNL     1      41.778 -14.094   0.789  1.00  0.00     0.001 A 
HETATM   32  C   UNL     1      41.496 -13.608   2.067  1.00  0.00     0.009 A 
ENDBRANCH  26  27
ENDBRANCH   1  26
TORSDOF 4
ENDMDL
MODEL 5
REMARK VINA RESULT:      -8.6      3.045      4.544
REMARK  4 active torsions:
REMARK  status: ('A' for Active; 'I' for Inactive)
REMARK    1  A    between atoms: C_4  and  C_5 
REMARK    2  A    between atoms: C_5  and  N_6 
REMARK    3  A    between atoms: C_9  and  C_10 
REMARK    4  A    between atoms: C_22  and  C_23 
ROOT
HETATM    1  N   UNL     1      40.383 -14.100   4.583  1.00  0.00    -0.314 N 
HETATM    2  N   UNL     1      41.185 -15.213   4.756  1.00  0.00    -0.203 NA
HETATM    3  C   UNL     1      41.806 -15.505   3.541  1.00  0.00     0.041 C 
HETATM    4  C   UNL     1      42.791 -16.368   3.251  1.00  0.00     0.044 C 
HETATM    5  C   UNL     1      41.167 -14.606   2.546  1.00  0.00     0.015 C 
HETATM    6  C   UNL     1      40.328 -13.804   3.235  1.00  0.00     0.119 C 
HETATM    7  H   UNL     1      41.794 -15.198   5.581  1.00  0.00     0.153 HD
ENDROOT
BRANCH   4   8
HETATM    8  C   UNL     1      43.442 -17.298   4.138  1.00  0.00     0.046 A 
HETATM    9  C   UNL     1      43.883 -17.036   5.523  1.00  0.00     0.257 A 
HETATM   10  O   UNL     1      43.919 -16.057   6.228  1.00  0.00    -0.267 OA
HETATM   11  N   UNL     1      44.478 -18.321   6.071  1.00  0.00    -0.322 N 
HETATM   12  C   UNL     1      44.419 -19.153   5.106  1.00  0.00     0.046 A 
HETATM   13  H   UNL     1      44.854 -18.420   7.006  1.00  0.00     0.169 HD
HETATM   14  C   UNL     1      43.798 -18.572   3.885  1.00  0.00     0.008 A 
HETATM   15  C   UNL     1      44.884 -20.546   5.083  1.00  0.00     0.032 A 
HETATM   16  C   UNL     1      43.668 -19.396   2.712  1.00  0.00     0.038 A 
HETATM   17  C   UNL     1      44.117 -20.663   2.745  1.00  0.00     0.035 A 
HETATM   18  C   UNL     1      44.724 -21.233   3.938  1.00  0.00     0.026 A 
HETATM   19 CL   UNL     1      43.988 -21.669   1.352  1.00  0.00    -0.084 Cl
ENDBRANCH   4   8
BRANCH   5  20
HETATM   20  C   UNL     1      41.301 -14.567   1.093  1.00  0.00    -0.005 A 
HETATM   21  C   UNL     1      41.737 -13.414   0.444  1.00  0.00     0.128 A 
HETATM   22  N   UNL     1      41.857 -13.292  -0.899  1.00  0.00    -0.272 NA
HETATM   23  C   UNL     1      41.565 -14.387  -1.634  1.00  0.00     0.116 A 
HETATM   24  C   UNL     1      41.143 -15.588  -1.088  1.00  0.00     0.020 A 
HETATM   25  C   UNL     1      41.006 -15.675   0.296  1.00  0.00     0.015 A 
ENDBRANCH   5  20
BRANCH   1  26
HETATM   26  C   UNL     1      39.413 -13.693   5.595  1.00  0.00     0.181 C 
BRANCH  26  27
HETATM   27  C   UNL     1      39.955 -12.555   6.434  1.00  0.00    -0.039 A 
HETATM   28  C   UNL     1      39.274 -12.136   7.590  1.00  0.00     0.009 A 
HETATM   29  C   UNL     1      39.791 -11.116   8.389  1.00  0.00     0.001 A 
HETATM   30  C   UNL     1      40.997 -10.507   8.047  1.00  0.00     0.000 A 
HETATM   31  C   UNL     1      41.684 -10.915   6.905  1.00  0.00     0.001 A 
HETATM   32  C   UNL     1      41.167 -11.934   6.102  1.00  0.00     0.009 A 
ENDBRANCH  26  27
ENDBRANCH   1  26
TORSDOF 4
ENDMDL
MODEL 6
REMARK VINA RESULT:      -8.5      4.591      8.068
REMARK  4 active torsions:
REMARK  status: ('A' for Active; 'I' for Inactive)
REMARK    1  A    between atoms: C_4  and  C_5 
REMARK    2  A    between atoms: C_5  and  N_6 
REMARK    3  A    between atoms: C_9  and  C_10 
REMARK    4  A    between atoms: C_22  and  C_23 
ROOT
HETATM    1  N   UNL     1      41.552 -14.370   0.423  1.00  0.00    -0.314 N 
HETATM    2  N   UNL     1      42.265 -15.434   0.944  1.00  0.00    -0.203 NA
HETATM    3  C   UNL     1      42.096 -15.444   2.329  1.00  0.00     0.041 C 
HETATM    4  C   UNL     1      42.440 -16.365   3.242  1.00  0.00     0.044 C 
HETATM    5  C   UNL     1      41.385 -14.180   2.650  1.00  0.00     0.015 C 
HETATM    6  C   UNL     1      41.099 -13.591   1.469  1.00  0.00     0.119 C 
HETATM    7  H   UNL     1      42.136 -16.332   0.467  1.00  0.00     0.153 HD
ENDROOT
BRANCH   4   8
HETATM    8  C   UNL     1      43.158 -17.596   3.029  1.00  0.00     0.046 A 
HETATM    9  C   UNL     1      43.605 -18.146   1.733  1.00  0.00     0.257 A 
HETATM   10  O   UNL     1      43.448 -17.826   0.580  1.00  0.00    -0.267 OA
HETATM   11  N   UNL     1      44.351 -19.439   2.011  1.00  0.00    -0.322 N 
HETATM   12  C   UNL     1      44.278 -19.600   3.274  1.00  0.00     0.046 A 
HETATM   13  H   UNL     1      44.769 -20.019   1.294  1.00  0.00     0.169 HD
HETATM   14  C   UNL     1      43.544 -18.498   3.952  1.00  0.00     0.008 A 
HETATM   15  C   UNL     1      44.814 -20.709   4.076  1.00  0.00     0.032 A 
HETATM   16  C   UNL     1      43.379 -18.549   5.380  1.00  0.00     0.038 A 
HETATM   17  C   UNL     1      43.883 -19.591   6.064  1.00  0.00     0.035 A 
HETATM   18  C   UNL     1      44.603 -20.669   5.403  1.00  0.00     0.026 A 
HETATM   19 CL   UNL     1      43.689 -19.687   7.774  1.00  0.00    -0.084 Cl
ENDBRANCH   4   8
BRANCH   5  20
HETATM   20  C   UNL     1      41.073 -13.579   3.943  1.00  0.00    -0.005 A 
HETATM   21  C   UNL     1      39.808 -13.714   4.510  1.00  0.00     0.128 A 
HETATM   22  N   UNL     1      39.436 -13.161   5.688  1.00  0.00    -0.272 NA
HETATM   23  C   UNL     1      40.384 -12.469   6.356  1.00  0.00     0.116 A 
HETATM   24  C   UNL     1      41.677 -12.291   5.892  1.00  0.00     0.020 A 
HETATM   25  C   UNL     1      42.023 -12.852   4.664  1.00  0.00     0.015 A 
ENDBRANCH   5  20
BRANCH   1  26
HETATM   26  C   UNL     1      41.724 -13.940  -0.961  1.00  0.00     0.181 C 
BRANCH  26  27
HETATM   27  C   UNL     1      40.605 -14.465  -1.834  1.00  0.00    -0.039 A 
HETATM   28  C   UNL     1      39.338 -13.856  -1.810  1.00  0.00     0.009 A 
HETATM   29  C   UNL     1      38.315 -14.310  -2.643  1.00  0.00     0.001 A 
HETATM   30  C   UNL     1      38.547 -15.372  -3.514  1.00  0.00     0.000 A 
HETATM   31  C   UNL     1      39.799 -15.982  -3.551  1.00  0.00     0.001 A 
HETATM   32  C   UNL     1      40.824 -15.531  -2.716  1.00  0.00     0.009 A 
ENDBRANCH  26  27
ENDBRANCH   1  26
TORSDOF 4
ENDMDL
MODEL 7
REMARK VINA RESULT:      -8.4      2.408      5.556
REMARK  4 active torsions:
REMARK  status: ('A' for Active; 'I' for Inactive)
REMARK    1  A    between atoms: C_4  and  C_5 
REMARK    2  A    between atoms: C_5  and  N_6 
REMARK    3  A    between atoms: C_9  and  C_10 
REMARK    4  A    between atoms: C_22  and  C_23 
ROOT
HETATM    1  N   UNL     1      44.326 -13.938   7.293  1.00  0.00    -0.314 N 
HETATM    2  N   UNL     1      43.327 -13.762   6.352  1.00  0.00    -0.203 NA
HETATM    3  C   UNL     1      42.830 -15.015   5.994  1.00  0.00     0.041 C 
HETATM    4  C   UNL     1      41.757 -15.350   5.261  1.00  0.00     0.044 C 
HETATM    5  C   UNL     1      43.739 -15.999   6.636  1.00  0.00     0.015 C 
HETATM    6  C   UNL     1      44.607 -15.287   7.387  1.00  0.00     0.119 C 
HETATM    7  H   UNL     1      42.628 -13.046   6.575  1.00  0.00     0.153 HD
ENDROOT
BRANCH   4   8
HETATM    8  C   UNL     1      40.845 -14.470   4.576  1.00  0.00     0.046 A 
HETATM    9  C   UNL     1      39.970 -13.452   5.191  1.00  0.00     0.257 A 
HETATM   10  O   UNL     1      39.705 -13.138   6.326  1.00  0.00    -0.267 OA
HETATM   11  N   UNL     1      39.222 -12.747   4.073  1.00  0.00    -0.322 N 
HETATM   12  C   UNL     1      39.595 -13.333   3.003  1.00  0.00     0.046 A 
HETATM   13  H   UNL     1      38.556 -11.998   4.218  1.00  0.00     0.169 HD
HETATM   14  C   UNL     1      40.589 -14.411   3.255  1.00  0.00     0.008 A 
HETATM   15  C   UNL     1      39.159 -13.064   1.626  1.00  0.00     0.032 A 
HETATM   16  C   UNL     1      41.098 -15.162   2.138  1.00  0.00     0.038 A 
HETATM   17  C   UNL     1      40.658 -14.878   0.899  1.00  0.00     0.035 A 
HETATM   18  C   UNL     1      39.688 -13.824   0.651  1.00  0.00     0.026 A 
HETATM   19 CL   UNL     1      41.239 -15.770  -0.456  1.00  0.00    -0.084 Cl
ENDBRANCH   4   8
BRANCH   5  20
HETATM   20  C   UNL     1      43.804 -17.450   6.494  1.00  0.00    -0.005 A 
HETATM   21  C   UNL     1      43.572 -18.289   7.581  1.00  0.00     0.128 A 
HETATM   22  N   UNL     1      43.645 -19.639   7.534  1.00  0.00    -0.272 NA
HETATM   23  C   UNL     1      43.926 -20.187   6.332  1.00  0.00     0.116 A 
HETATM   24  C   UNL     1      44.154 -19.447   5.184  1.00  0.00     0.020 A 
HETATM   25  C   UNL     1      44.097 -18.057   5.270  1.00  0.00     0.015 A 
ENDBRANCH   5  20
BRANCH   1  26
HETATM   26  C   UNL     1      45.211 -12.844   7.682  1.00  0.00     0.181 C 
BRANCH  26  27
HETATM   27  C   UNL     1      44.640 -12.081   8.858  1.00  0.00    -0.039 A 
HETATM   28  C   UNL     1      45.356 -11.994  10.065  1.00  0.00     0.009 A 
HETATM   29  C   UNL     1      44.854 -11.257  11.137  1.00  0.00     0.001 A 
HETATM   30  C   UNL     1      43.635 -10.592  11.015  1.00  0.00     0.000 A 
HETATM   31  C   UNL     1      42.917 -10.667   9.823  1.00  0.00     0.001 A 
HETATM   32  C   UNL     1      43.417 -11.407   8.749  1.00  0.00     0.009 A 
ENDBRANCH  26  27
ENDBRANCH   1  26
TORSDOF 4
ENDMDL
MODEL 8
REMARK VINA RESULT:      -8.3      7.254     10.629
REMARK  4 active torsions:
REMARK  status: ('A' for Active; 'I' for Inactive)
REMARK    1  A    between atoms: C_4  and  C_5 
REMARK    2  A    between atoms: C_5  and  N_6 
REMARK    3  A    between atoms: C_9  and  C_10 
REMARK    4  A    between atoms: C_22  and  C_23 
ROOT
HETATM    1  N   UNL     1      41.006 -14.937   0.849  1.00  0.00    -0.314 N 
HETATM    2  N   UNL     1      40.165 -14.861  -0.246  1.00  0.00    -0.203 NA
HETATM    3  C   UNL     1      40.497 -13.723  -0.982  1.00  0.00     0.041 C 
HETATM    4  C   UNL     1      40.091 -13.322  -2.197  1.00  0.00     0.044 C 
HETATM    5  C   UNL     1      41.478 -12.985  -0.147  1.00  0.00     0.015 C 
HETATM    6  C   UNL     1      41.728 -13.763   0.928  1.00  0.00     0.119 C 
HETATM    7  H   UNL     1      40.054 -15.728  -0.782  1.00  0.00     0.153 HD
ENDROOT
BRANCH   4   8
HETATM    8  C   UNL     1      39.123 -13.951  -3.058  1.00  0.00     0.046 A 
HETATM    9  C   UNL     1      39.254 -15.263  -3.725  1.00  0.00     0.257 A 
HETATM   10  O   UNL     1      40.140 -16.076  -3.823  1.00  0.00    -0.267 OA
HETATM   11  N   UNL     1      37.971 -15.522  -4.494  1.00  0.00    -0.322 N 
HETATM   12  C   UNL     1      37.261 -14.478  -4.317  1.00  0.00     0.046 A 
HETATM   13  H   UNL     1      37.794 -16.356  -5.039  1.00  0.00     0.169 HD
HETATM   14  C   UNL     1      37.926 -13.471  -3.446  1.00  0.00     0.008 A 
HETATM   15  C   UNL     1      35.927 -14.188  -4.861  1.00  0.00     0.032 A 
HETATM   16  C   UNL     1      37.242 -12.238  -3.161  1.00  0.00     0.038 A 
HETATM   17  C   UNL     1      36.026 -12.022  -3.693  1.00  0.00     0.035 A 
HETATM   18  C   UNL     1      35.373 -13.006  -4.543  1.00  0.00     0.026 A 
HETATM   19 CL   UNL     1      35.188 -10.549  -3.381  1.00  0.00    -0.084 Cl
ENDBRANCH   4   8
BRANCH   5  20
HETATM   20  C   UNL     1      42.059 -11.659  -0.331  1.00  0.00    -0.005 A 
HETATM   21  C   UNL     1      41.622 -10.573   0.425  1.00  0.00     0.128 A 
HETATM   22  N   UNL     1      42.090  -9.311   0.290  1.00  0.00    -0.272 NA
HETATM   23  C   UNL     1      43.073  -9.124  -0.617  1.00  0.00     0.116 A 
HETATM   24  C   UNL     1      43.594 -10.137  -1.405  1.00  0.00     0.020 A 
HETATM   25  C   UNL     1      43.074 -11.422  -1.261  1.00  0.00     0.015 A 
ENDBRANCH   5  20
BRANCH   1  26
HETATM   26  C   UNL     1      40.754 -15.869   1.943  1.00  0.00     0.181 C 
BRANCH  26  27
HETATM   27  C   UNL     1      41.887 -16.863   2.076  1.00  0.00    -0.039 A 
HETATM   28  C   UNL     1      42.084 -17.561   3.280  1.00  0.00     0.009 A 
HETATM   29  C   UNL     1      43.102 -18.509   3.394  1.00  0.00     0.001 A 
HETATM   30  C   UNL     1      43.929 -18.777   2.306  1.00  0.00     0.000 A 
HETATM   31  C   UNL     1      43.742 -18.095   1.105  1.00  0.00     0.001 A 
HETATM   32  C   UNL     1      42.726 -17.143   0.989  1.00  0.00     0.009 A 
ENDBRANCH  26  27
ENDBRANCH   1  26
TORSDOF 4
ENDMDL
MODEL 9
REMARK VINA RESULT:      -8.3      4.381      7.996
REMARK  4 active torsions:
REMARK  status: ('A' for Active; 'I' for Inactive)
REMARK    1  A    between atoms: C_4  and  C_5 
REMARK    2  A    between atoms: C_5  and  N_6 
REMARK    3  A    between atoms: C_9  and  C_10 
REMARK    4  A    between atoms: C_22  and  C_23 
ROOT
HETATM    1  N   UNL     1      41.456 -16.371   4.461  1.00  0.00    -0.314 N 
HETATM    2  N   UNL     1      41.395 -15.871   3.173  1.00  0.00    -0.203 NA
HETATM    3  C   UNL     1      41.242 -14.486   3.242  1.00  0.00     0.041 C 
HETATM    4  C   UNL     1      41.308 -13.553   2.280  1.00  0.00     0.044 C 
HETATM    5  C   UNL     1      41.009 -14.185   4.678  1.00  0.00     0.015 C 
HETATM    6  C   UNL     1      41.144 -15.354   5.342  1.00  0.00     0.119 C 
HETATM    7  H   UNL     1      42.115 -16.214   2.529  1.00  0.00     0.153 HD
ENDROOT
BRANCH   4   8
HETATM    8  C   UNL     1      41.495 -13.753   0.866  1.00  0.00     0.046 A 
HETATM    9  C   UNL     1      41.226 -14.990   0.105  1.00  0.00     0.257 A 
HETATM   10  O   UNL     1      40.897 -16.112   0.405  1.00  0.00    -0.267 OA
HETATM   11  N   UNL     1      41.534 -14.713  -1.355  1.00  0.00    -0.322 N 
HETATM   12  C   UNL     1      41.960 -13.511  -1.382  1.00  0.00     0.046 A 
HETATM   13  H   UNL     1      41.430 -15.393  -2.098  1.00  0.00     0.169 HD
HETATM   14  C   UNL     1      41.967 -12.873  -0.038  1.00  0.00     0.008 A 
HETATM   15  C   UNL     1      42.423 -12.742  -2.545  1.00  0.00     0.032 A 
HETATM   16  C   UNL     1      42.427 -11.516   0.085  1.00  0.00     0.038 A 
HETATM   17  C   UNL     1      42.848 -10.862  -1.012  1.00  0.00     0.035 A 
HETATM   18  C   UNL     1      42.841 -11.483  -2.327  1.00  0.00     0.026 A 
HETATM   19 CL   UNL     1      43.418  -9.240  -0.893  1.00  0.00    -0.084 Cl
ENDBRANCH   4   8
BRANCH   5  20
HETATM   20  C   UNL     1      40.636 -12.932   5.328  1.00  0.00    -0.005 A 
HETATM   21  C   UNL     1      39.324 -12.467   5.290  1.00  0.00     0.128 A 
HETATM   22  N   UNL     1      38.911 -11.302   5.841  1.00  0.00    -0.272 NA
HETATM   23  C   UNL     1      39.843 -10.580   6.499  1.00  0.00     0.116 A 
HETATM   24  C   UNL     1      41.169 -10.961   6.614  1.00  0.00     0.020 A 
HETATM   25  C   UNL     1      41.571 -12.154   6.014  1.00  0.00     0.015 A 
ENDBRANCH   5  20
BRANCH   1  26
HETATM   26  C   UNL     1      41.364 -17.802   4.731  1.00  0.00     0.181 C 
BRANCH  26  27
HETATM   27  C   UNL     1      42.634 -18.513   4.314  1.00  0.00    -0.039 A 
HETATM   28  C   UNL     1      43.566 -18.929   5.279  1.00  0.00     0.009 A 
HETATM   29  C   UNL     1      44.718 -19.622   4.904  1.00  0.00     0.001 A 
HETATM   30  C   UNL     1      44.948 -19.912   3.561  1.00  0.00     0.000 A 
HETATM   31  C   UNL     1      44.030 -19.509   2.593  1.00  0.00     0.001 A 
HETATM   32  C   UNL     1      42.878 -18.813   2.967  1.00  0.00     0.009 A 
ENDBRANCH  26  27
ENDBRANCH   1  26
TORSDOF 4
ENDMDL
MODEL 10
REMARK VINA RESULT:      -8.2      4.540      8.293
REMARK  4 active torsions:
REMARK  status: ('A' for Active; 'I' for Inactive)
REMARK    1  A    between atoms: C_4  and  C_5 
REMARK    2  A    between atoms: C_5  and  N_6 
REMARK    3  A    between atoms: C_9  and  C_10 
REMARK    4  A    between atoms: C_22  and  C_23 
ROOT
HETATM    1  N   UNL     1      40.940 -16.053   4.053  1.00  0.00    -0.314 N 
HETATM    2  N   UNL     1      40.259 -15.653   2.918  1.00  0.00    -0.203 NA
HETATM    3  C   UNL     1      40.089 -14.269   2.968  1.00  0.00     0.041 C 
HETATM    4  C   UNL     1      39.651 -13.411   2.035  1.00  0.00     0.044 C 
HETATM    5  C   UNL     1      40.539 -13.865   4.325  1.00  0.00     0.015 C 
HETATM    6  C   UNL     1      41.026 -14.977   4.915  1.00  0.00     0.119 C 
HETATM    7  H   UNL     1      40.611 -16.032   2.033  1.00  0.00     0.153 HD
ENDROOT
BRANCH   4   8
HETATM    8  C   UNL     1      39.165 -13.714   0.713  1.00  0.00     0.046 A 
HETATM    9  C   UNL     1      37.816 -14.197   0.357  1.00  0.00     0.257 A 
HETATM   10  O   UNL     1      36.846 -14.538   0.989  1.00  0.00    -0.267 OA
HETATM   11  N   UNL     1      37.757 -14.337  -1.154  1.00  0.00    -0.322 N 
HETATM   12  C   UNL     1      38.924 -14.025  -1.562  1.00  0.00     0.046 A 
HETATM   13  H   UNL     1      36.940 -14.648  -1.665  1.00  0.00     0.169 HD
HETATM   14  C   UNL     1      39.838 -13.642  -0.452  1.00  0.00     0.008 A 
HETATM   15  C   UNL     1      39.426 -14.014  -2.943  1.00  0.00     0.032 A 
HETATM   16  C   UNL     1      41.192 -13.269  -0.764  1.00  0.00     0.038 A 
HETATM   17  C   UNL     1      41.600 -13.284  -2.045  1.00  0.00     0.035 A 
HETATM   18  C   UNL     1      40.709 -13.657  -3.132  1.00  0.00     0.026 A 
HETATM   19 CL   UNL     1      43.220 -12.856  -2.447  1.00  0.00    -0.084 Cl
ENDBRANCH   4   8
BRANCH   5  20
HETATM   20  C   UNL     1      40.452 -12.572   4.997  1.00  0.00    -0.005 A 
HETATM   21  C   UNL     1      39.261 -12.145   5.580  1.00  0.00     0.128 A 
HETATM   22  N   UNL     1      39.096 -10.950   6.193  1.00  0.00    -0.272 NA
HETATM   23  C   UNL     1      40.183 -10.152   6.265  1.00  0.00     0.116 A 
HETATM   24  C   UNL     1      41.419 -10.488   5.737  1.00  0.00     0.020 A 
HETATM   25  C   UNL     1      41.551 -11.716   5.089  1.00  0.00     0.015 A 
ENDBRANCH   5  20
BRANCH   1  26
HETATM   26  C   UNL     1      41.054 -17.462   4.419  1.00  0.00     0.181 C 
BRANCH  26  27
HETATM   27  C   UNL     1      42.252 -18.098   3.747  1.00  0.00    -0.039 A 
HETATM   28  C   UNL     1      43.216 -18.780   4.507  1.00  0.00     0.009 A 
HETATM   29  C   UNL     1      44.299 -19.405   3.888  1.00  0.00     0.001 A 
HETATM   30  C   UNL     1      44.428 -19.361   2.501  1.00  0.00     0.000 A 
HETATM   31  C   UNL     1      43.476 -18.691   1.734  1.00  0.00     0.001 A 
HETATM   32  C   UNL     1      42.393 -18.063   2.353  1.00  0.00     0.009 A 
ENDBRANCH  26  27
ENDBRANCH   1  26
TORSDOF 4
ENDMDL
