MODEL 1
REMARK VINA RESULT:      -8.5      0.000      0.000
REMARK  8 active torsions:
REMARK  status: ('A' for Active; 'I' for Inactive)
REMARK    1  A    between atoms: C_2  and  N_3 
REMARK       I    between atoms: N_3  and  C_4 
REMARK    2  A    between atoms: C_4  and  C_5 
REMARK    3  A    between atoms: C_5  and  O_6 
REMARK    4  A    between atoms: O_6  and  C_7 
REMARK    5  A    between atoms: C_8  and  O_9 
REMARK    6  A    between atoms: C_12  and  C_13 
REMARK    7  A    between atoms: C_13  and  N_14 
REMARK    8  A    between atoms: N_14  and  C_15 
ROOT
HETATM    1  C   UNL     1      44.144 -14.371   7.297  1.00  0.00     0.102 A 
HETATM    2  C   UNL     1      43.648 -15.686   7.296  1.00  0.00     0.102 A 
HETATM    3  C   UNL     1      43.066 -16.204   6.128  1.00  0.00     0.048 A 
HETATM    4  C   UNL     1      43.008 -15.457   4.946  1.00  0.00    -0.042 A 
HETATM    5  C   UNL     1      43.506 -14.152   4.956  1.00  0.00     0.011 A 
HETATM    6  C   UNL     1      44.074 -13.618   6.116  1.00  0.00     0.040 A 
ENDROOT
BRANCH   4   7
HETATM    7  C   UNL     1      42.414 -16.041   3.687  1.00  0.00     0.131 C 
BRANCH   7   8
HETATM    8  N   UNL     1      43.482 -16.538   2.830  1.00  0.00    -0.289 NA
HETATM    9  H   UNL     1      43.402 -16.172   1.884  1.00  0.00     0.128 HD
BRANCH   8  10
HETATM   10  C   UNL     1      43.767 -17.912   2.840  1.00  0.00     0.010 A 
HETATM   11  C   UNL     1      44.230 -18.488   4.037  1.00  0.00     0.055 A 
HETATM   12  C   UNL     1      44.448 -19.847   4.057  1.00  0.00     0.065 A 
HETATM   13  C   UNL     1      44.191 -20.656   2.956  1.00  0.00     0.063 A 
HETATM   14  N   UNL     1      44.921 -20.661   5.082  1.00  0.00    -0.306 N 
HETATM   15  N   UNL     1      44.506 -21.964   3.298  1.00  0.00    -0.307 N 
HETATM   16  C   UNL     1      43.698 -20.148   1.782  1.00  0.00     0.034 A 
HETATM   17  C   UNL     1      44.964 -21.985   4.623  1.00  0.00     0.325 A 
HETATM   18  H   UNL     1      44.424 -22.785   2.721  1.00  0.00     0.170 HD
HETATM   19  O   UNL     1      45.328 -22.963   5.252  1.00  0.00    -0.247 OA
HETATM   20  C   UNL     1      43.475 -18.763   1.740  1.00  0.00     0.026 A 
HETATM   21  H   UNL     1      45.193 -20.379   6.010  1.00  0.00     0.170 HD
ENDBRANCH   8  10
ENDBRANCH   7   8
ENDBRANCH   4   7
BRANCH   2  22
HETATM   22  O   UNL     1      43.618 -16.586   8.330  1.00  0.00    -0.353 OA
HETATM   23  C   UNL     1      43.686 -17.972   8.030  1.00  0.00     0.210 C 
ENDBRANCH   2  22
BRANCH   1  24
HETATM   24  O   UNL     1      44.735 -13.891   8.437  1.00  0.00    -0.339 OA
BRANCH  24  25
HETATM   25  C   UNL     1      45.499 -12.692   8.345  1.00  0.00     0.278 C 
BRANCH  25  26
HETATM   26  C   UNL     1      45.004 -11.545   9.237  1.00  0.00     0.242 C 
HETATM   27  N   UNL     1      43.806 -11.795   9.870  1.00  0.00    -0.351 N 
HETATM   28  H   UNL     1      43.326 -12.642   9.579  1.00  0.00     0.163 HD
HETATM   29  O   UNL     1      45.649 -10.508   9.361  1.00  0.00    -0.271 OA
BRANCH  27  30
HETATM   30  C   UNL     1      43.082 -10.858  10.738  1.00  0.00     0.022 C 
HETATM   31  C   UNL     1      42.075 -11.610  11.619  1.00  0.00     0.037 C 
HETATM   32  C   UNL     1      42.361  -9.776   9.918  1.00  0.00     0.037 C 
HETATM   33  C   UNL     1      44.111 -10.163  11.648  1.00  0.00     0.037 C 
ENDBRANCH  27  30
ENDBRANCH  25  26
ENDBRANCH  24  25
ENDBRANCH   1  24
TORSDOF 8
ENDMDL
MODEL 2
REMARK VINA RESULT:      -8.3      3.629      5.108
REMARK  8 active torsions:
REMARK  status: ('A' for Active; 'I' for Inactive)
REMARK    1  A    between atoms: C_2  and  N_3 
REMARK       I    between atoms: N_3  and  C_4 
REMARK    2  A    between atoms: C_4  and  C_5 
REMARK    3  A    between atoms: C_5  and  O_6 
REMARK    4  A    between atoms: O_6  and  C_7 
REMARK    5  A    between atoms: C_8  and  O_9 
REMARK    6  A    between atoms: C_12  and  C_13 
REMARK    7  A    between atoms: C_13  and  N_14 
REMARK    8  A    between atoms: N_14  and  C_15 
ROOT
HETATM    1  C   UNL     1      43.727 -15.351   6.713  1.00  0.00     0.102 A 
HETATM    2  C   UNL     1      43.164 -16.626   6.891  1.00  0.00     0.102 A 
HETATM    3  C   UNL     1      42.484 -17.236   5.824  1.00  0.00     0.048 A 
HETATM    4  C   UNL     1      42.390 -16.623   4.569  1.00  0.00    -0.042 A 
HETATM    5  C   UNL     1      42.955 -15.356   4.402  1.00  0.00     0.011 A 
HETATM    6  C   UNL     1      43.621 -14.731   5.459  1.00  0.00     0.040 A 
ENDROOT
BRANCH   4   7
HETATM    7  C   UNL     1      41.689 -17.307   3.422  1.00  0.00     0.131 C 
BRANCH   7   8
HETATM    8  N   UNL     1      40.429 -16.628   3.146  1.00  0.00    -0.289 NA
HETATM    9  H   UNL     1      39.634 -17.248   3.279  1.00  0.00     0.128 HD
BRANCH   8  10
HETATM   10  C   UNL     1      40.317 -15.871   1.969  1.00  0.00     0.010 A 
HETATM   11  C   UNL     1      41.124 -16.222   0.872  1.00  0.00     0.055 A 
HETATM   12  C   UNL     1      40.962 -15.516  -0.299  1.00  0.00     0.065 A 
HETATM   13  C   UNL     1      40.014 -14.509  -0.433  1.00  0.00     0.063 A 
HETATM   14  N   UNL     1      41.634 -15.633  -1.512  1.00  0.00    -0.306 N 
HETATM   15  N   UNL     1      40.100 -14.003  -1.723  1.00  0.00    -0.307 N 
HETATM   16  C   UNL     1      39.175 -14.161   0.594  1.00  0.00     0.034 A 
HETATM   17  C   UNL     1      41.108 -14.694  -2.411  1.00  0.00     0.325 A 
HETATM   18  H   UNL     1      39.544 -13.270  -2.133  1.00  0.00     0.170 HD
HETATM   19  O   UNL     1      41.458 -14.514  -3.564  1.00  0.00    -0.247 OA
HETATM   20  C   UNL     1      39.328 -14.865   1.798  1.00  0.00     0.026 A 
HETATM   21  H   UNL     1      42.376 -16.274  -1.741  1.00  0.00     0.170 HD
ENDBRANCH   8  10
ENDBRANCH   7   8
ENDBRANCH   4   7
BRANCH   2  22
HETATM   22  O   UNL     1      43.153 -17.403   8.020  1.00  0.00    -0.353 OA
HETATM   23  C   UNL     1      43.984 -18.553   8.067  1.00  0.00     0.210 C 
ENDBRANCH   2  22
BRANCH   1  24
HETATM   24  O   UNL     1      44.412 -14.783   7.755  1.00  0.00    -0.339 OA
BRANCH  24  25
HETATM   25  C   UNL     1      44.689 -13.386   7.697  1.00  0.00     0.278 C 
BRANCH  25  26
HETATM   26  C   UNL     1      44.759 -12.688   9.061  1.00  0.00     0.242 C 
HETATM   27  N   UNL     1      43.561 -12.155   9.488  1.00  0.00    -0.351 N 
HETATM   28  H   UNL     1      42.809 -12.168   8.805  1.00  0.00     0.163 HD
HETATM   29  O   UNL     1      45.807 -12.631   9.698  1.00  0.00    -0.271 OA
BRANCH  27  30
HETATM   30  C   UNL     1      43.353 -11.394  10.726  1.00  0.00     0.022 C 
HETATM   31  C   UNL     1      43.697 -12.255  11.950  1.00  0.00     0.037 C 
HETATM   32  C   UNL     1      41.909 -10.878  10.832  1.00  0.00     0.037 C 
HETATM   33  C   UNL     1      44.295 -10.176  10.698  1.00  0.00     0.037 C 
ENDBRANCH  27  30
ENDBRANCH  25  26
ENDBRANCH  24  25
ENDBRANCH   1  24
TORSDOF 8
ENDMDL
MODEL 3
REMARK VINA RESULT:      -8.1      2.623      3.516
REMARK  8 active torsions:
REMARK  status: ('A' for Active; 'I' for Inactive)
REMARK    1  A    between atoms: C_2  and  N_3 
REMARK       I    between atoms: N_3  and  C_4 
REMARK    2  A    between atoms: C_4  and  C_5 
REMARK    3  A    between atoms: C_5  and  O_6 
REMARK    4  A    between atoms: O_6  and  C_7 
REMARK    5  A    between atoms: C_8  and  O_9 
REMARK    6  A    between atoms: C_12  and  C_13 
REMARK    7  A    between atoms: C_13  and  N_14 
REMARK    8  A    between atoms: N_14  and  C_15 
ROOT
HETATM    1  C   UNL     1      41.454 -12.009   6.162  1.00  0.00     0.102 A 
HETATM    2  C   UNL     1      40.192 -12.416   5.698  1.00  0.00     0.102 A 
HETATM    3  C   UNL     1      40.042 -13.693   5.134  1.00  0.00     0.048 A 
HETATM    4  C   UNL     1      41.112 -14.592   5.061  1.00  0.00    -0.042 A 
HETATM    5  C   UNL     1      42.363 -14.179   5.526  1.00  0.00     0.011 A 
HETATM    6  C   UNL     1      42.530 -12.905   6.077  1.00  0.00     0.040 A 
ENDROOT
BRANCH   4   7
HETATM    7  C   UNL     1      40.927 -15.975   4.486  1.00  0.00     0.131 C 
BRANCH   7   8
HETATM    8  N   UNL     1      41.982 -16.245   3.517  1.00  0.00    -0.289 NA
HETATM    9  H   UNL     1      41.665 -16.081   2.564  1.00  0.00     0.128 HD
BRANCH   8  10
HETATM   10  C   UNL     1      42.710 -17.440   3.632  1.00  0.00     0.010 A 
HETATM   11  C   UNL     1      42.593 -18.393   2.604  1.00  0.00     0.055 A 
HETATM   12  C   UNL     1      43.358 -19.533   2.693  1.00  0.00     0.065 A 
HETATM   13  C   UNL     1      44.255 -19.747   3.734  1.00  0.00     0.063 A 
HETATM   14  N   UNL     1      43.421 -20.635   1.844  1.00  0.00    -0.306 N 
HETATM   15  N   UNL     1      44.868 -20.976   3.531  1.00  0.00    -0.307 N 
HETATM   16  C   UNL     1      44.436 -18.828   4.735  1.00  0.00     0.034 A 
HETATM   17  C   UNL     1      44.359 -21.544   2.354  1.00  0.00     0.325 A 
HETATM   18  H   UNL     1      45.570 -21.413   4.106  1.00  0.00     0.170 HD
HETATM   19  O   UNL     1      44.669 -22.618   1.871  1.00  0.00    -0.247 OA
HETATM   20  C   UNL     1      43.660 -17.661   4.666  1.00  0.00     0.026 A 
HETATM   21  H   UNL     1      42.898 -20.784   0.997  1.00  0.00     0.170 HD
ENDBRANCH   8  10
ENDBRANCH   7   8
ENDBRANCH   4   7
BRANCH   2  22
HETATM   22  O   UNL     1      39.019 -11.707   5.687  1.00  0.00    -0.353 OA
HETATM   23  C   UNL     1      38.724 -10.892   4.562  1.00  0.00     0.210 C 
ENDBRANCH   2  22
BRANCH   1  24
HETATM   24  O   UNL     1      41.577 -10.771   6.736  1.00  0.00    -0.339 OA
BRANCH  24  25
HETATM   25  C   UNL     1      41.222 -10.627   8.108  1.00  0.00     0.278 C 
BRANCH  25  26
HETATM   26  C   UNL     1      42.397 -10.723   9.090  1.00  0.00     0.242 C 
HETATM   27  N   UNL     1      42.033 -11.032  10.383  1.00  0.00    -0.351 N 
HETATM   28  H   UNL     1      41.034 -11.032  10.567  1.00  0.00     0.163 HD
HETATM   29  O   UNL     1      43.554 -10.542   8.722  1.00  0.00    -0.271 OA
BRANCH  27  30
HETATM   30  C   UNL     1      42.944 -11.137  11.529  1.00  0.00     0.022 C 
HETATM   31  C   UNL     1      43.663  -9.802  11.768  1.00  0.00     0.037 C 
HETATM   32  C   UNL     1      43.972 -12.262  11.328  1.00  0.00     0.037 C 
HETATM   33  C   UNL     1      42.103 -11.476  12.774  1.00  0.00     0.037 C 
ENDBRANCH  27  30
ENDBRANCH  25  26
ENDBRANCH  24  25
ENDBRANCH   1  24
TORSDOF 8
ENDMDL
MODEL 4
REMARK VINA RESULT:      -8.1      3.153      4.772
REMARK  8 active torsions:
REMARK  status: ('A' for Active; 'I' for Inactive)
REMARK    1  A    between atoms: C_2  and  N_3 
REMARK       I    between atoms: N_3  and  C_4 
REMARK    2  A    between atoms: C_4  and  C_5 
REMARK    3  A    between atoms: C_5  and  O_6 
REMARK    4  A    between atoms: O_6  and  C_7 
REMARK    5  A    between atoms: C_8  and  O_9 
REMARK    6  A    between atoms: C_12  and  C_13 
REMARK    7  A    between atoms: C_13  and  N_14 
REMARK    8  A    between atoms: N_14  and  C_15 
ROOT
HETATM    1  C   UNL     1      43.947 -14.150   6.770  1.00  0.00     0.102 A 
HETATM    2  C   UNL     1      42.757 -14.006   6.038  1.00  0.00     0.102 A 
HETATM    3  C   UNL     1      42.148 -15.141   5.479  1.00  0.00     0.048 A 
HETATM    4  C   UNL     1      42.676 -16.424   5.669  1.00  0.00    -0.042 A 
HETATM    5  C   UNL     1      43.859 -16.557   6.400  1.00  0.00     0.011 A 
HETATM    6  C   UNL     1      44.483 -15.433   6.950  1.00  0.00     0.040 A 
ENDROOT
BRANCH   4   7
HETATM    7  C   UNL     1      41.990 -17.638   5.093  1.00  0.00     0.131 C 
BRANCH   7   8
HETATM    8  N   UNL     1      40.871 -17.217   4.261  1.00  0.00    -0.289 NA
HETATM    9  H   UNL     1      40.056 -17.811   4.403  1.00  0.00     0.128 HD
BRANCH   8  10
HETATM   10  C   UNL     1      41.104 -16.959   2.901  1.00  0.00     0.010 A 
HETATM   11  C   UNL     1      40.306 -15.994   2.259  1.00  0.00     0.055 A 
HETATM   12  C   UNL     1      40.583 -15.702   0.943  1.00  0.00     0.065 A 
HETATM   13  C   UNL     1      41.634 -16.297   0.256  1.00  0.00     0.063 A 
HETATM   14  N   UNL     1      39.948 -14.822   0.072  1.00  0.00    -0.306 N 
HETATM   15  N   UNL     1      41.648 -15.789  -1.037  1.00  0.00    -0.307 N 
HETATM   16  C   UNL     1      42.466 -17.210   0.851  1.00  0.00     0.034 A 
HETATM   17  C   UNL     1      40.600 -14.866  -1.169  1.00  0.00     0.325 A 
HETATM   18  H   UNL     1      42.291 -16.016  -1.778  1.00  0.00     0.170 HD
HETATM   19  O   UNL     1      40.314 -14.228  -2.166  1.00  0.00    -0.247 OA
HETATM   20  C   UNL     1      42.196 -17.527   2.191  1.00  0.00     0.026 A 
HETATM   21  H   UNL     1      39.153 -14.236   0.267  1.00  0.00     0.170 HD
ENDBRANCH   8  10
ENDBRANCH   7   8
ENDBRANCH   4   7
BRANCH   2  22
HETATM   22  O   UNL     1      42.069 -12.856   5.746  1.00  0.00    -0.353 OA
HETATM   23  C   UNL     1      42.007 -12.422   4.396  1.00  0.00     0.210 C 
ENDBRANCH   2  22
BRANCH   1  24
HETATM   24  O   UNL     1      44.512 -13.036   7.333  1.00  0.00    -0.339 OA
BRANCH  24  25
HETATM   25  C   UNL     1      44.757 -13.042   8.737  1.00  0.00     0.278 C 
BRANCH  25  26
HETATM   26  C   UNL     1      44.376 -11.744   9.461  1.00  0.00     0.242 C 
HETATM   27  N   UNL     1      43.326 -11.875  10.346  1.00  0.00    -0.351 N 
HETATM   28  H   UNL     1      42.846 -12.770  10.323  1.00  0.00     0.163 HD
HETATM   29  O   UNL     1      44.978 -10.695   9.254  1.00  0.00    -0.271 OA
BRANCH  27  30
HETATM   30  C   UNL     1      42.726 -10.790  11.131  1.00  0.00     0.022 C 
HETATM   31  C   UNL     1      42.074  -9.754  10.206  1.00  0.00     0.037 C 
HETATM   32  C   UNL     1      43.766 -10.110  12.036  1.00  0.00     0.037 C 
HETATM   33  C   UNL     1      41.637 -11.403  12.031  1.00  0.00     0.037 C 
ENDBRANCH  27  30
ENDBRANCH  25  26
ENDBRANCH  24  25
ENDBRANCH   1  24
TORSDOF 8
ENDMDL
MODEL 5
REMARK VINA RESULT:      -8.1      1.787      2.428
REMARK  8 active torsions:
REMARK  status: ('A' for Active; 'I' for Inactive)
REMARK    1  A    between atoms: C_2  and  N_3 
REMARK       I    between atoms: N_3  and  C_4 
REMARK    2  A    between atoms: C_4  and  C_5 
REMARK    3  A    between atoms: C_5  and  O_6 
REMARK    4  A    between atoms: O_6  and  C_7 
REMARK    5  A    between atoms: C_8  and  O_9 
REMARK    6  A    between atoms: C_12  and  C_13 
REMARK    7  A    between atoms: C_13  and  N_14 
REMARK    8  A    between atoms: N_14  and  C_15 
ROOT
HETATM    1  C   UNL     1      41.579 -12.329   5.962  1.00  0.00     0.102 A 
HETATM    2  C   UNL     1      42.595 -13.278   6.167  1.00  0.00     0.102 A 
HETATM    3  C   UNL     1      42.519 -14.522   5.520  1.00  0.00     0.048 A 
HETATM    4  C   UNL     1      41.476 -14.826   4.638  1.00  0.00    -0.042 A 
HETATM    5  C   UNL     1      40.472 -13.876   4.439  1.00  0.00     0.011 A 
HETATM    6  C   UNL     1      40.527 -12.639   5.088  1.00  0.00     0.040 A 
ENDROOT
BRANCH   4   7
HETATM    7  C   UNL     1      41.427 -16.153   3.922  1.00  0.00     0.131 C 
BRANCH   7   8
HETATM    8  N   UNL     1      42.674 -16.362   3.198  1.00  0.00    -0.289 NA
HETATM    9  H   UNL     1      42.654 -15.916   2.283  1.00  0.00     0.128 HD
BRANCH   8  10
HETATM   10  C   UNL     1      43.209 -17.658   3.139  1.00  0.00     0.010 A 
HETATM   11  C   UNL     1      43.644 -18.255   4.336  1.00  0.00     0.055 A 
HETATM   12  C   UNL     1      44.109 -19.549   4.280  1.00  0.00     0.065 A 
HETATM   13  C   UNL     1      44.123 -20.282   3.098  1.00  0.00     0.063 A 
HETATM   14  N   UNL     1      44.616 -20.361   5.290  1.00  0.00    -0.306 N 
HETATM   15  N   UNL     1      44.640 -21.541   3.376  1.00  0.00    -0.307 N 
HETATM   16  C   UNL     1      43.669 -19.759   1.915  1.00  0.00     0.034 A 
HETATM   17  C   UNL     1      44.953 -21.607   4.741  1.00  0.00     0.325 A 
HETATM   18  H   UNL     1      44.773 -22.304   2.733  1.00  0.00     0.170 HD
HETATM   19  O   UNL     1      45.426 -22.560   5.334  1.00  0.00    -0.247 OA
HETATM   20  C   UNL     1      43.197 -18.438   1.951  1.00  0.00     0.026 A 
HETATM   21  H   UNL     1      44.733 -20.126   6.262  1.00  0.00     0.170 HD
ENDBRANCH   8  10
ENDBRANCH   7   8
ENDBRANCH   4   7
BRANCH   2  22
HETATM   22  O   UNL     1      43.703 -13.180   6.969  1.00  0.00    -0.353 OA
HETATM   23  C   UNL     1      44.745 -14.131   6.812  1.00  0.00     0.210 C 
ENDBRANCH   2  22
BRANCH   1  24
HETATM   24  O   UNL     1      41.684 -11.109   6.577  1.00  0.00    -0.339 OA
BRANCH  24  25
HETATM   25  C   UNL     1      41.233 -10.993   7.924  1.00  0.00     0.278 C 
BRANCH  25  26
HETATM   26  C   UNL     1      42.293 -10.496   8.916  1.00  0.00     0.242 C 
HETATM   27  N   UNL     1      43.024 -11.500   9.515  1.00  0.00    -0.351 N 
HETATM   28  H   UNL     1      42.697 -12.445   9.335  1.00  0.00     0.163 HD
HETATM   29  O   UNL     1      42.456  -9.299   9.131  1.00  0.00    -0.271 OA
BRANCH  27  30
HETATM   30  C   UNL     1      44.063 -11.312  10.535  1.00  0.00     0.022 C 
HETATM   31  C   UNL     1      43.569 -10.363  11.636  1.00  0.00     0.037 C 
HETATM   32  C   UNL     1      45.365 -10.775   9.919  1.00  0.00     0.037 C 
HETATM   33  C   UNL     1      44.363 -12.685  11.164  1.00  0.00     0.037 C 
ENDBRANCH  27  30
ENDBRANCH  25  26
ENDBRANCH  24  25
ENDBRANCH   1  24
TORSDOF 8
ENDMDL
MODEL 6
REMARK VINA RESULT:      -8.0      5.113      8.397
REMARK  8 active torsions:
REMARK  status: ('A' for Active; 'I' for Inactive)
REMARK    1  A    between atoms: C_2  and  N_3 
REMARK       I    between atoms: N_3  and  C_4 
REMARK    2  A    between atoms: C_4  and  C_5 
REMARK    3  A    between atoms: C_5  and  O_6 
REMARK    4  A    between atoms: O_6  and  C_7 
REMARK    5  A    between atoms: C_8  and  O_9 
REMARK    6  A    between atoms: C_12  and  C_13 
REMARK    7  A    between atoms: C_13  and  N_14 
REMARK    8  A    between atoms: N_14  and  C_15 
ROOT
HETATM    1  C   UNL     1      39.630 -13.864   2.102  1.00  0.00     0.102 A 
HETATM    2  C   UNL     1      40.070 -13.193   3.255  1.00  0.00     0.102 A 
HETATM    3  C   UNL     1      40.747 -13.910   4.254  1.00  0.00     0.048 A 
HETATM    4  C   UNL     1      41.035 -15.272   4.112  1.00  0.00    -0.042 A 
HETATM    5  C   UNL     1      40.595 -15.930   2.961  1.00  0.00     0.011 A 
HETATM    6  C   UNL     1      39.907 -15.232   1.965  1.00  0.00     0.040 A 
ENDROOT
BRANCH   4   7
HETATM    7  C   UNL     1      41.797 -16.020   5.179  1.00  0.00     0.131 C 
BRANCH   7   8
HETATM    8  N   UNL     1      43.158 -16.267   4.722  1.00  0.00    -0.289 NA
HETATM    9  H   UNL     1      43.410 -15.654   3.950  1.00  0.00     0.128 HD
BRANCH   8  10
HETATM   10  C   UNL     1      43.561 -17.592   4.494  1.00  0.00     0.010 A 
HETATM   11  C   UNL     1      43.257 -18.178   3.252  1.00  0.00     0.055 A 
HETATM   12  C   UNL     1      43.710 -19.455   3.014  1.00  0.00     0.065 A 
HETATM   13  C   UNL     1      44.479 -20.155   3.937  1.00  0.00     0.063 A 
HETATM   14  N   UNL     1      43.535 -20.271   1.900  1.00  0.00    -0.306 N 
HETATM   15  N   UNL     1      44.777 -21.399   3.397  1.00  0.00    -0.307 N 
HETATM   16  C   UNL     1      44.838 -19.610   5.143  1.00  0.00     0.034 A 
HETATM   17  C   UNL     1      44.194 -21.489   2.125  1.00  0.00     0.325 A 
HETATM   18  H   UNL     1      45.322 -22.135   3.817  1.00  0.00     0.170 HD
HETATM   19  O   UNL     1      44.250 -22.438   1.364  1.00  0.00    -0.247 OA
HETATM   20  C   UNL     1      44.380 -18.310   5.407  1.00  0.00     0.026 A 
HETATM   21  H   UNL     1      43.029 -20.055   1.057  1.00  0.00     0.170 HD
ENDBRANCH   8  10
ENDBRANCH   7   8
ENDBRANCH   4   7
BRANCH   2  22
HETATM   22  O   UNL     1      39.909 -11.873   3.586  1.00  0.00    -0.353 OA
HETATM   23  C   UNL     1      38.695 -11.466   4.200  1.00  0.00     0.210 C 
ENDBRANCH   2  22
BRANCH   1  24
HETATM   24  O   UNL     1      38.996 -13.145   1.123  1.00  0.00    -0.339 OA
BRANCH  24  25
HETATM   25  C   UNL     1      37.967 -13.786   0.374  1.00  0.00     0.278 C 
BRANCH  25  26
HETATM   26  C   UNL     1      38.179 -13.780  -1.145  1.00  0.00     0.242 C 
HETATM   27  N   UNL     1      39.182 -14.619  -1.582  1.00  0.00    -0.351 N 
HETATM   28  H   UNL     1      39.747 -15.041  -0.851  1.00  0.00     0.163 HD
HETATM   29  O   UNL     1      37.491 -13.082  -1.884  1.00  0.00    -0.271 OA
BRANCH  27  30
HETATM   30  C   UNL     1      39.628 -14.772  -2.972  1.00  0.00     0.022 C 
HETATM   31  C   UNL     1      40.147 -13.435  -3.520  1.00  0.00     0.037 C 
HETATM   32  C   UNL     1      38.500 -15.309  -3.868  1.00  0.00     0.037 C 
HETATM   33  C   UNL     1      40.780 -15.794  -2.991  1.00  0.00     0.037 C 
ENDBRANCH  27  30
ENDBRANCH  25  26
ENDBRANCH  24  25
ENDBRANCH   1  24
TORSDOF 8
ENDMDL
MODEL 7
REMARK VINA RESULT:      -8.0      5.195      8.404
REMARK  8 active torsions:
REMARK  status: ('A' for Active; 'I' for Inactive)
REMARK    1  A    between atoms: C_2  and  N_3 
REMARK       I    between atoms: N_3  and  C_4 
REMARK    2  A    between atoms: C_4  and  C_5 
REMARK    3  A    between atoms: C_5  and  O_6 
REMARK    4  A    between atoms: O_6  and  C_7 
REMARK    5  A    between atoms: C_8  and  O_9 
REMARK    6  A    between atoms: C_12  and  C_13 
REMARK    7  A    between atoms: C_13  and  N_14 
REMARK    8  A    between atoms: N_14  and  C_15 
ROOT
HETATM    1  C   UNL     1      39.685 -13.638   2.122  1.00  0.00     0.102 A 
HETATM    2  C   UNL     1      40.497 -14.713   1.724  1.00  0.00     0.102 A 
HETATM    3  C   UNL     1      41.206 -15.439   2.695  1.00  0.00     0.048 A 
HETATM    4  C   UNL     1      41.090 -15.146   4.059  1.00  0.00    -0.042 A 
HETATM    5  C   UNL     1      40.278 -14.077   4.444  1.00  0.00     0.011 A 
HETATM    6  C   UNL     1      39.578 -13.336   3.488  1.00  0.00     0.040 A 
ENDROOT
BRANCH   4   7
HETATM    7  C   UNL     1      41.829 -15.959   5.093  1.00  0.00     0.131 C 
BRANCH   7   8
HETATM    8  N   UNL     1      43.179 -16.237   4.621  1.00  0.00    -0.289 NA
HETATM    9  H   UNL     1      43.418 -15.663   3.815  1.00  0.00     0.128 HD
BRANCH   8  10
HETATM   10  C   UNL     1      43.569 -17.575   4.448  1.00  0.00     0.010 A 
HETATM   11  C   UNL     1      43.338 -18.181   3.200  1.00  0.00     0.055 A 
HETATM   12  C   UNL     1      43.780 -19.471   3.019  1.00  0.00     0.065 A 
HETATM   13  C   UNL     1      44.469 -20.165   4.007  1.00  0.00     0.063 A 
HETATM   14  N   UNL     1      43.665 -20.308   1.912  1.00  0.00    -0.306 N 
HETATM   15  N   UNL     1      44.777 -21.427   3.514  1.00  0.00    -0.307 N 
HETATM   16  C   UNL     1      44.756 -19.602   5.223  1.00  0.00     0.034 A 
HETATM   17  C   UNL     1      44.281 -21.532   2.206  1.00  0.00     0.325 A 
HETATM   18  H   UNL     1      45.277 -22.164   3.985  1.00  0.00     0.170 HD
HETATM   19  O   UNL     1      44.369 -22.499   1.471  1.00  0.00    -0.247 OA
HETATM   20  C   UNL     1      44.308 -18.289   5.429  1.00  0.00     0.026 A 
HETATM   21  H   UNL     1      43.222 -20.099   1.032  1.00  0.00     0.170 HD
ENDBRANCH   8  10
ENDBRANCH   7   8
ENDBRANCH   4   7
BRANCH   2  22
HETATM   22  O   UNL     1      40.739 -15.175   0.456  1.00  0.00    -0.353 OA
HETATM   23  C   UNL     1      41.545 -16.332   0.293  1.00  0.00     0.210 C 
ENDBRANCH   2  22
BRANCH   1  24
HETATM   24  O   UNL     1      38.977 -12.958   1.166  1.00  0.00    -0.339 OA
BRANCH  24  25
HETATM   25  C   UNL     1      37.946 -13.653   0.470  1.00  0.00     0.278 C 
BRANCH  25  26
HETATM   26  C   UNL     1      38.064 -13.615  -1.060  1.00  0.00     0.242 C 
HETATM   27  N   UNL     1      38.851 -14.614  -1.593  1.00  0.00    -0.351 N 
HETATM   28  H   UNL     1      39.361 -15.175  -0.918  1.00  0.00     0.163 HD
HETATM   29  O   UNL     1      37.489 -12.759  -1.724  1.00  0.00    -0.271 OA
BRANCH  27  30
HETATM   30  C   UNL     1      39.174 -14.785  -3.015  1.00  0.00     0.022 C 
HETATM   31  C   UNL     1      37.897 -15.038  -3.829  1.00  0.00     0.037 C 
HETATM   32  C   UNL     1      40.174 -15.932  -3.230  1.00  0.00     0.037 C 
HETATM   33  C   UNL     1      39.826 -13.482  -3.513  1.00  0.00     0.037 C 
ENDBRANCH  27  30
ENDBRANCH  25  26
ENDBRANCH  24  25
ENDBRANCH   1  24
TORSDOF 8
ENDMDL
MODEL 8
REMARK VINA RESULT:      -8.0      3.790      7.568
REMARK  8 active torsions:
REMARK  status: ('A' for Active; 'I' for Inactive)
REMARK    1  A    between atoms: C_2  and  N_3 
REMARK       I    between atoms: N_3  and  C_4 
REMARK    2  A    between atoms: C_4  and  C_5 
REMARK    3  A    between atoms: C_5  and  O_6 
REMARK    4  A    between atoms: O_6  and  C_7 
REMARK    5  A    between atoms: C_8  and  O_9 
REMARK    6  A    between atoms: C_12  and  C_13 
REMARK    7  A    between atoms: C_13  and  N_14 
REMARK    8  A    between atoms: N_14  and  C_15 
ROOT
HETATM    1  C   UNL     1      43.102 -16.522   6.766  1.00  0.00     0.102 A 
HETATM    2  C   UNL     1      43.459 -15.233   6.336  1.00  0.00     0.102 A 
HETATM    3  C   UNL     1      42.512 -14.442   5.667  1.00  0.00     0.048 A 
HETATM    4  C   UNL     1      41.203 -14.888   5.455  1.00  0.00    -0.042 A 
HETATM    5  C   UNL     1      40.857 -16.170   5.888  1.00  0.00     0.011 A 
HETATM    6  C   UNL     1      41.794 -16.975   6.542  1.00  0.00     0.040 A 
ENDROOT
BRANCH   4   7
HETATM    7  C   UNL     1      40.185 -14.011   4.767  1.00  0.00     0.131 C 
BRANCH   7   8
HETATM    8  N   UNL     1      39.494 -14.780   3.741  1.00  0.00    -0.289 NA
HETATM    9  H   UNL     1      39.553 -15.780   3.921  1.00  0.00     0.128 HD
BRANCH   8  10
HETATM   10  C   UNL     1      39.735 -14.472   2.393  1.00  0.00     0.010 A 
HETATM   11  C   UNL     1      40.263 -15.478   1.563  1.00  0.00     0.055 A 
HETATM   12  C   UNL     1      40.437 -15.188   0.230  1.00  0.00     0.065 A 
HETATM   13  C   UNL     1      40.077 -13.961  -0.316  1.00  0.00     0.063 A 
HETATM   14  N   UNL     1      40.955 -15.974  -0.795  1.00  0.00    -0.306 N 
HETATM   15  N   UNL     1      40.372 -13.988  -1.673  1.00  0.00    -0.307 N 
HETATM   16  C   UNL     1      39.518 -12.965   0.443  1.00  0.00     0.034 A 
HETATM   17  C   UNL     1      40.923 -15.239  -1.989  1.00  0.00     0.325 A 
HETATM   18  H   UNL     1      40.224 -13.255  -2.347  1.00  0.00     0.170 HD
HETATM   19  O   UNL     1      41.299 -15.612  -3.085  1.00  0.00    -0.247 OA
HETATM   20  C   UNL     1      39.338 -13.240   1.807  1.00  0.00     0.026 A 
HETATM   21  H   UNL     1      41.302 -16.917  -0.727  1.00  0.00     0.170 HD
ENDBRANCH   8  10
ENDBRANCH   7   8
ENDBRANCH   4   7
BRANCH   2  22
HETATM   22  O   UNL     1      44.670 -14.601   6.454  1.00  0.00    -0.353 OA
HETATM   23  C   UNL     1      44.856 -13.674   7.513  1.00  0.00     0.210 C 
ENDBRANCH   2  22
BRANCH   1  24
HETATM   24  O   UNL     1      44.029 -17.271   7.444  1.00  0.00    -0.339 OA
BRANCH  24  25
HETATM   25  C   UNL     1      44.973 -18.022   6.685  1.00  0.00     0.278 C 
BRANCH  25  26
HETATM   26  C   UNL     1      44.382 -18.770   5.483  1.00  0.00     0.242 C 
HETATM   27  N   UNL     1      44.391 -18.051   4.307  1.00  0.00    -0.351 N 
HETATM   28  H   UNL     1      44.662 -17.076   4.393  1.00  0.00     0.163 HD
HETATM   29  O   UNL     1      43.952 -19.914   5.591  1.00  0.00    -0.271 OA
BRANCH  27  30
HETATM   30  C   UNL     1      43.845 -18.503   3.021  1.00  0.00     0.022 C 
HETATM   31  C   UNL     1      44.331 -19.924   2.701  1.00  0.00     0.037 C 
HETATM   32  C   UNL     1      44.227 -17.545   1.881  1.00  0.00     0.037 C 
HETATM   33  C   UNL     1      42.310 -18.520   3.137  1.00  0.00     0.037 C 
ENDBRANCH  27  30
ENDBRANCH  25  26
ENDBRANCH  24  25
ENDBRANCH   1  24
TORSDOF 8
ENDMDL
MODEL 9
REMARK VINA RESULT:      -8.0      5.985      8.913
REMARK  8 active torsions:
REMARK  status: ('A' for Active; 'I' for Inactive)
REMARK    1  A    between atoms: C_2  and  N_3 
REMARK       I    between atoms: N_3  and  C_4 
REMARK    2  A    between atoms: C_4  and  C_5 
REMARK    3  A    between atoms: C_5  and  O_6 
REMARK    4  A    between atoms: O_6  and  C_7 
REMARK    5  A    between atoms: C_8  and  O_9 
REMARK    6  A    between atoms: C_12  and  C_13 
REMARK    7  A    between atoms: C_13  and  N_14 
REMARK    8  A    between atoms: N_14  and  C_15 
ROOT
HETATM    1  C   UNL     1      41.007 -16.502   3.065  1.00  0.00     0.102 A 
HETATM    2  C   UNL     1      42.127 -16.698   2.240  1.00  0.00     0.102 A 
HETATM    3  C   UNL     1      42.329 -15.850   1.139  1.00  0.00     0.048 A 
HETATM    4  C   UNL     1      41.464 -14.785   0.865  1.00  0.00    -0.042 A 
HETATM    5  C   UNL     1      40.354 -14.598   1.692  1.00  0.00     0.011 A 
HETATM    6  C   UNL     1      40.132 -15.443   2.784  1.00  0.00     0.040 A 
ENDROOT
BRANCH   4   7
HETATM    7  C   UNL     1      41.715 -13.861  -0.301  1.00  0.00     0.131 C 
BRANCH   7   8
HETATM    8  N   UNL     1      41.788 -14.637  -1.531  1.00  0.00    -0.289 NA
HETATM    9  H   UNL     1      42.577 -14.351  -2.107  1.00  0.00     0.128 HD
BRANCH   8  10
HETATM   10  C   UNL     1      40.618 -14.809  -2.288  1.00  0.00     0.010 A 
HETATM   11  C   UNL     1      39.686 -13.756  -2.324  1.00  0.00     0.055 A 
HETATM   12  C   UNL     1      38.573 -13.908  -3.118  1.00  0.00     0.065 A 
HETATM   13  C   UNL     1      38.368 -15.038  -3.901  1.00  0.00     0.063 A 
HETATM   14  N   UNL     1      37.495 -13.050  -3.318  1.00  0.00    -0.306 N 
HETATM   15  N   UNL     1      37.167 -14.881  -4.581  1.00  0.00    -0.307 N 
HETATM   16  C   UNL     1      39.268 -16.071  -3.934  1.00  0.00     0.034 A 
HETATM   17  C   UNL     1      36.608 -13.644  -4.228  1.00  0.00     0.325 A 
HETATM   18  H   UNL     1      36.742 -15.522  -5.231  1.00  0.00     0.170 HD
HETATM   19  O   UNL     1      35.559 -13.178  -4.632  1.00  0.00    -0.247 OA
HETATM   20  C   UNL     1      40.407 -15.938  -3.125  1.00  0.00     0.026 A 
HETATM   21  H   UNL     1      37.347 -12.147  -2.899  1.00  0.00     0.170 HD
ENDBRANCH   8  10
ENDBRANCH   7   8
ENDBRANCH   4   7
BRANCH   2  22
HETATM   22  O   UNL     1      43.098 -17.661   2.335  1.00  0.00    -0.353 OA
HETATM   23  C   UNL     1      44.235 -17.570   1.490  1.00  0.00     0.210 C 
ENDBRANCH   2  22
BRANCH   1  24
HETATM   24  O   UNL     1      40.840 -17.319   4.153  1.00  0.00    -0.339 OA
BRANCH  24  25
HETATM   25  C   UNL     1      41.116 -16.786   5.445  1.00  0.00     0.278 C 
BRANCH  25  26
HETATM   26  C   UNL     1      42.250 -17.489   6.202  1.00  0.00     0.242 C 
HETATM   27  N   UNL     1      43.057 -18.278   5.410  1.00  0.00    -0.351 N 
HETATM   28  H   UNL     1      42.738 -18.408   4.454  1.00  0.00     0.163 HD
HETATM   29  O   UNL     1      42.404 -17.336   7.410  1.00  0.00    -0.271 OA
BRANCH  27  30
HETATM   30  C   UNL     1      44.181 -19.098   5.878  1.00  0.00     0.022 C 
HETATM   31  C   UNL     1      44.807 -19.870   4.708  1.00  0.00     0.037 C 
HETATM   32  C   UNL     1      43.741 -20.075   6.981  1.00  0.00     0.037 C 
HETATM   33  C   UNL     1      45.243 -18.154   6.472  1.00  0.00     0.037 C 
ENDBRANCH  27  30
ENDBRANCH  25  26
ENDBRANCH  24  25
ENDBRANCH   1  24
TORSDOF 8
ENDMDL
MODEL 10
REMARK VINA RESULT:      -7.8      4.766      7.713
REMARK  8 active torsions:
REMARK  status: ('A' for Active; 'I' for Inactive)
REMARK    1  A    between atoms: C_2  and  N_3 
REMARK       I    between atoms: N_3  and  C_4 
REMARK    2  A    between atoms: C_4  and  C_5 
REMARK    3  A    between atoms: C_5  and  O_6 
REMARK    4  A    between atoms: O_6  and  C_7 
REMARK    5  A    between atoms: C_8  and  O_9 
REMARK    6  A    between atoms: C_12  and  C_13 
REMARK    7  A    between atoms: C_13  and  N_14 
REMARK    8  A    between atoms: N_14  and  C_15 
ROOT
HETATM    1  C   UNL     1      40.939 -14.537   5.337  1.00  0.00     0.102 A 
HETATM    2  C   UNL     1      41.996 -13.611   5.331  1.00  0.00     0.102 A 
HETATM    3  C   UNL     1      42.118 -12.710   4.262  1.00  0.00     0.048 A 
HETATM    4  C   UNL     1      41.185 -12.681   3.218  1.00  0.00    -0.042 A 
HETATM    5  C   UNL     1      40.137 -13.604   3.234  1.00  0.00     0.011 A 
HETATM    6  C   UNL     1      40.012 -14.517   4.285  1.00  0.00     0.040 A 
ENDROOT
BRANCH   4   7
HETATM    7  C   UNL     1      41.309 -11.681   2.095  1.00  0.00     0.131 C 
BRANCH   7   8
HETATM    8  N   UNL     1      42.434 -12.043   1.243  1.00  0.00    -0.289 NA
HETATM    9  H   UNL     1      43.147 -11.317   1.238  1.00  0.00     0.128 HD
BRANCH   8  10
HETATM   10  C   UNL     1      42.172 -12.531  -0.047  1.00  0.00     0.010 A 
HETATM   11  C   UNL     1      41.422 -13.715  -0.172  1.00  0.00     0.055 A 
HETATM   12  C   UNL     1      41.115 -14.152  -1.440  1.00  0.00     0.065 A 
HETATM   13  C   UNL     1      41.489 -13.448  -2.579  1.00  0.00     0.063 A 
HETATM   14  N   UNL     1      40.420 -15.286  -1.849  1.00  0.00    -0.306 N 
HETATM   15  N   UNL     1      41.028 -14.145  -3.688  1.00  0.00    -0.307 N 
HETATM   16  C   UNL     1      42.182 -12.268  -2.507  1.00  0.00     0.034 A 
HETATM   17  C   UNL     1      40.357 -15.296  -3.250  1.00  0.00     0.325 A 
HETATM   18  H   UNL     1      41.131 -13.892  -4.658  1.00  0.00     0.170 HD
HETATM   19  O   UNL     1      39.826 -16.139  -3.950  1.00  0.00    -0.247 OA
HETATM   20  C   UNL     1      42.510 -11.808  -1.223  1.00  0.00     0.026 A 
HETATM   21  H   UNL     1      40.014 -15.999  -1.265  1.00  0.00     0.170 HD
ENDBRANCH   8  10
ENDBRANCH   7   8
ENDBRANCH   4   7
BRANCH   2  22
HETATM   22  O   UNL     1      43.001 -13.459   6.251  1.00  0.00    -0.353 OA
HETATM   23  C   UNL     1      44.150 -14.286   6.150  1.00  0.00     0.210 C 
ENDBRANCH   2  22
BRANCH   1  24
HETATM   24  O   UNL     1      40.817 -15.390   6.403  1.00  0.00    -0.339 OA
BRANCH  24  25
HETATM   25  C   UNL     1      40.888 -16.792   6.155  1.00  0.00     0.278 C 
BRANCH  25  26
HETATM   26  C   UNL     1      42.188 -17.462   6.618  1.00  0.00     0.242 C 
HETATM   27  N   UNL     1      42.810 -18.222   5.651  1.00  0.00    -0.351 N 
HETATM   28  H   UNL     1      42.280 -18.359   4.795  1.00  0.00     0.163 HD
HETATM   29  O   UNL     1      42.616 -17.308   7.758  1.00  0.00    -0.271 OA
BRANCH  27  30
HETATM   30  C   UNL     1      44.036 -19.008   5.835  1.00  0.00     0.022 C 
HETATM   31  C   UNL     1      43.785 -20.176   6.800  1.00  0.00     0.037 C 
HETATM   32  C   UNL     1      45.191 -18.135   6.350  1.00  0.00     0.037 C 
HETATM   33  C   UNL     1      44.443 -19.580   4.464  1.00  0.00     0.037 C 
ENDBRANCH  27  30
ENDBRANCH  25  26
ENDBRANCH  24  25
ENDBRANCH   1  24
TORSDOF 8
ENDMDL
