MODEL 1
REMARK VINA RESULT:      -7.2      0.000      0.000
REMARK  4 active torsions:
REMARK  status: ('A' for Active; 'I' for Inactive)
REMARK    1  A    between atoms: C_2  and  C_3 
REMARK    2  A    between atoms: C_5  and  N_6 
REMARK       I    between atoms: N_6  and  C_7 
REMARK    3  A    between atoms: C_7  and  C_8 
REMARK    4  A    between atoms: C_16  and  O_17 
ROOT
HETATM    1  C   UNL     1      40.567 -14.648  -0.893  1.00  0.00    -0.048 A 
HETATM    2  C   UNL     1      41.337 -15.629  -0.240  1.00  0.00     0.040 A 
HETATM    3  C   UNL     1      41.155 -15.921   1.117  1.00  0.00     0.069 A 
HETATM    4  C   UNL     1      40.178 -15.229   1.859  1.00  0.00     0.095 A 
HETATM    5  C   UNL     1      39.424 -14.238   1.236  1.00  0.00     0.039 A 
HETATM    6  C   UNL     1      39.624 -13.949  -0.119  1.00  0.00     0.011 A 
ENDROOT
BRANCH   3   7
HETATM    7  N   UNL     1      41.901 -16.902   1.813  1.00  0.00    -0.320 N 
HETATM    8  C   UNL     1      43.103 -16.749   2.468  1.00  0.00     0.257 C 
HETATM    9  O   UNL     1      43.733 -15.713   2.637  1.00  0.00    -0.267 OA
HETATM   10  H   UNL     1      41.402 -17.783   1.899  1.00  0.00     0.169 HD
BRANCH   8  11
HETATM   11  C   UNL     1      43.640 -17.989   3.068  1.00  0.00     0.051 A 
HETATM   12  C   UNL     1      44.053 -18.033   4.395  1.00  0.00     0.133 A 
HETATM   13  N   UNL     1      44.555 -19.142   4.988  1.00  0.00    -0.271 NA
HETATM   14  C   UNL     1      44.625 -20.259   4.222  1.00  0.00     0.135 A 
HETATM   15  C   UNL     1      44.216 -20.310   2.895  1.00  0.00     0.029 A 
HETATM   16 BR   UNL     1      44.355 -21.909   1.907  1.00  0.00    -0.050 Br
HETATM   17  C   UNL     1      43.707 -19.157   2.308  1.00  0.00     0.039 A 
ENDBRANCH   8  11
ENDBRANCH   3   7
BRANCH   4  18
HETATM   18  O   UNL     1      40.064 -15.600   3.179  1.00  0.00    -0.354 OA
HETATM   19  C   UNL     1      40.250 -14.580   4.153  1.00  0.00     0.210 C 
ENDBRANCH   4  18
BRANCH   1  20
HETATM   20  C   UNL     1      40.755 -14.311  -2.384  1.00  0.00    -0.024 C 
HETATM   21  C   UNL     1      39.557 -13.559  -3.009  1.00  0.00     0.019 C 
HETATM   22  C   UNL     1      40.947 -15.626  -3.167  1.00  0.00     0.019 C 
HETATM   23  C   UNL     1      41.997 -13.413  -2.593  1.00  0.00     0.019 C 
ENDBRANCH   1  20
TORSDOF 4
ENDMDL
MODEL 2
REMARK VINA RESULT:      -7.0      3.630      7.609
REMARK  4 active torsions:
REMARK  status: ('A' for Active; 'I' for Inactive)
REMARK    1  A    between atoms: C_2  and  C_3 
REMARK    2  A    between atoms: C_5  and  N_6 
REMARK       I    between atoms: N_6  and  C_7 
REMARK    3  A    between atoms: C_7  and  C_8 
REMARK    4  A    between atoms: C_16  and  O_17 
ROOT
HETATM    1  C   UNL     1      43.536 -18.659   4.278  1.00  0.00    -0.048 A 
HETATM    2  C   UNL     1      42.854 -17.454   4.532  1.00  0.00     0.040 A 
HETATM    3  C   UNL     1      42.044 -16.851   3.562  1.00  0.00     0.069 A 
HETATM    4  C   UNL     1      41.893 -17.456   2.299  1.00  0.00     0.095 A 
HETATM    5  C   UNL     1      42.578 -18.636   2.022  1.00  0.00     0.039 A 
HETATM    6  C   UNL     1      43.393 -19.221   2.997  1.00  0.00     0.011 A 
ENDROOT
BRANCH   3   7
HETATM    7  N   UNL     1      41.336 -15.644   3.774  1.00  0.00    -0.320 N 
HETATM    8  C   UNL     1      40.604 -15.272   4.880  1.00  0.00     0.257 C 
HETATM    9  O   UNL     1      40.478 -15.886   5.931  1.00  0.00    -0.267 OA
HETATM   10  H   UNL     1      41.499 -14.961   3.040  1.00  0.00     0.169 HD
BRANCH   8  11
HETATM   11  C   UNL     1      39.951 -13.950   4.771  1.00  0.00     0.051 A 
HETATM   12  C   UNL     1      39.545 -13.246   5.899  1.00  0.00     0.133 A 
HETATM   13  N   UNL     1      38.939 -12.035   5.850  1.00  0.00    -0.271 NA
HETATM   14  C   UNL     1      38.753 -11.502   4.618  1.00  0.00     0.135 A 
HETATM   15  C   UNL     1      39.145 -12.125   3.440  1.00  0.00     0.029 A 
HETATM   16 BR   UNL     1      38.841 -11.306   1.770  1.00  0.00    -0.050 Br
HETATM   17  C   UNL     1      39.762 -13.369   3.516  1.00  0.00     0.039 A 
ENDBRANCH   8  11
ENDBRANCH   3   7
BRANCH   4  18
HETATM   18  O   UNL     1      41.062 -16.796   1.423  1.00  0.00    -0.354 OA
HETATM   19  C   UNL     1      41.615 -16.428   0.165  1.00  0.00     0.210 C 
ENDBRANCH   4  18
BRANCH   1  20
HETATM   20  C   UNL     1      44.433 -19.335   5.331  1.00  0.00    -0.024 C 
HETATM   21  C   UNL     1      43.646 -20.068   6.442  1.00  0.00     0.019 C 
HETATM   22  C   UNL     1      45.305 -18.255   6.004  1.00  0.00     0.019 C 
HETATM   23  C   UNL     1      45.354 -20.390   4.674  1.00  0.00     0.019 C 
ENDBRANCH   1  20
TORSDOF 4
ENDMDL
MODEL 3
REMARK VINA RESULT:      -6.9      5.924      7.706
REMARK  4 active torsions:
REMARK  status: ('A' for Active; 'I' for Inactive)
REMARK    1  A    between atoms: C_2  and  C_3 
REMARK    2  A    between atoms: C_5  and  N_6 
REMARK       I    between atoms: N_6  and  C_7 
REMARK    3  A    between atoms: C_7  and  C_8 
REMARK    4  A    between atoms: C_16  and  O_17 
ROOT
HETATM    1  C   UNL     1      42.616 -16.246   4.218  1.00  0.00    -0.048 A 
HETATM    2  C   UNL     1      43.047 -15.197   5.053  1.00  0.00     0.040 A 
HETATM    3  C   UNL     1      43.309 -15.402   6.413  1.00  0.00     0.069 A 
HETATM    4  C   UNL     1      43.149 -16.684   6.973  1.00  0.00     0.095 A 
HETATM    5  C   UNL     1      42.701 -17.729   6.168  1.00  0.00     0.039 A 
HETATM    6  C   UNL     1      42.431 -17.506   4.813  1.00  0.00     0.011 A 
ENDROOT
BRANCH   3   7
HETATM    7  N   UNL     1      43.750 -14.380   7.288  1.00  0.00    -0.320 N 
HETATM    8  C   UNL     1      44.953 -13.709   7.272  1.00  0.00     0.257 C 
HETATM    9  O   UNL     1      45.855 -13.816   6.453  1.00  0.00    -0.267 OA
HETATM   10  H   UNL     1      43.021 -14.068   7.923  1.00  0.00     0.169 HD
BRANCH   8  11
HETATM   11  C   UNL     1      45.118 -12.716   8.355  1.00  0.00     0.051 A 
HETATM   12  C   UNL     1      46.148 -11.783   8.332  1.00  0.00     0.133 A 
HETATM   13  N   UNL     1      46.343 -10.857   9.302  1.00  0.00    -0.271 NA
HETATM   14  C   UNL     1      45.454 -10.856  10.325  1.00  0.00     0.135 A 
HETATM   15  C   UNL     1      44.384 -11.737  10.418  1.00  0.00     0.029 A 
HETATM   16 BR   UNL     1      43.200 -11.662  11.882  1.00  0.00    -0.050 Br
HETATM   17  C   UNL     1      44.207 -12.680   9.412  1.00  0.00     0.039 A 
ENDBRANCH   8  11
ENDBRANCH   3   7
BRANCH   4  18
HETATM   18  O   UNL     1      43.449 -16.788   8.312  1.00  0.00    -0.354 OA
HETATM   19  C   UNL     1      43.957 -18.038   8.763  1.00  0.00     0.210 C 
ENDBRANCH   4  18
BRANCH   1  20
HETATM   20  C   UNL     1      42.320 -16.038   2.721  1.00  0.00    -0.024 C 
HETATM   21  C   UNL     1      42.392 -14.560   2.272  1.00  0.00     0.019 C 
HETATM   22  C   UNL     1      40.899 -16.554   2.423  1.00  0.00     0.019 C 
HETATM   23  C   UNL     1      43.333 -16.814   1.848  1.00  0.00     0.019 C 
ENDBRANCH   1  20
TORSDOF 4
ENDMDL
MODEL 4
REMARK VINA RESULT:      -6.9      1.863      4.160
REMARK  4 active torsions:
REMARK  status: ('A' for Active; 'I' for Inactive)
REMARK    1  A    between atoms: C_2  and  C_3 
REMARK    2  A    between atoms: C_5  and  N_6 
REMARK       I    between atoms: N_6  and  C_7 
REMARK    3  A    between atoms: C_7  and  C_8 
REMARK    4  A    between atoms: C_16  and  O_17 
ROOT
HETATM    1  C   UNL     1      40.019 -13.430   3.853  1.00  0.00    -0.048 A 
HETATM    2  C   UNL     1      40.854 -14.522   4.155  1.00  0.00     0.040 A 
HETATM    3  C   UNL     1      41.047 -15.571   3.248  1.00  0.00     0.069 A 
HETATM    4  C   UNL     1      40.403 -15.543   1.996  1.00  0.00     0.095 A 
HETATM    5  C   UNL     1      39.555 -14.483   1.689  1.00  0.00     0.039 A 
HETATM    6  C   UNL     1      39.362 -13.447   2.610  1.00  0.00     0.011 A 
ENDROOT
BRANCH   3   7
HETATM    7  N   UNL     1      41.881 -16.685   3.506  1.00  0.00    -0.320 N 
HETATM    8  C   UNL     1      43.200 -16.860   3.149  1.00  0.00     0.257 C 
HETATM    9  O   UNL     1      43.935 -16.053   2.595  1.00  0.00    -0.267 OA
HETATM   10  H   UNL     1      41.442 -17.369   4.116  1.00  0.00     0.169 HD
BRANCH   8  11
HETATM   11  C   UNL     1      43.777 -18.163   3.540  1.00  0.00     0.051 A 
HETATM   12  C   UNL     1      44.323 -18.365   4.802  1.00  0.00     0.133 A 
HETATM   13  N   UNL     1      44.866 -19.539   5.206  1.00  0.00    -0.271 NA
HETATM   14  C   UNL     1      44.842 -20.556   4.310  1.00  0.00     0.135 A 
HETATM   15  C   UNL     1      44.300 -20.449   3.036  1.00  0.00     0.029 A 
HETATM   16 BR   UNL     1      44.314 -21.919   1.857  1.00  0.00    -0.050 Br
HETATM   17  C   UNL     1      43.750 -19.233   2.644  1.00  0.00     0.039 A 
ENDBRANCH   8  11
ENDBRANCH   3   7
BRANCH   4  18
HETATM   18  O   UNL     1      40.671 -16.609   1.168  1.00  0.00    -0.354 OA
HETATM   19  C   UNL     1      41.367 -16.327  -0.040  1.00  0.00     0.210 C 
ENDBRANCH   4  18
BRANCH   1  20
HETATM   20  C   UNL     1      39.792 -12.269   4.839  1.00  0.00    -0.024 C 
HETATM   21  C   UNL     1      41.037 -11.376   5.046  1.00  0.00     0.019 C 
HETATM   22  C   UNL     1      39.399 -12.856   6.210  1.00  0.00     0.019 C 
HETATM   23  C   UNL     1      38.660 -11.340   4.344  1.00  0.00     0.019 C 
ENDBRANCH   1  20
TORSDOF 4
ENDMDL
MODEL 5
REMARK VINA RESULT:      -6.9      2.875      7.058
REMARK  4 active torsions:
REMARK  status: ('A' for Active; 'I' for Inactive)
REMARK    1  A    between atoms: C_2  and  C_3 
REMARK    2  A    between atoms: C_5  and  N_6 
REMARK       I    between atoms: N_6  and  C_7 
REMARK    3  A    between atoms: C_7  and  C_8 
REMARK    4  A    between atoms: C_16  and  O_17 
ROOT
HETATM    1  C   UNL     1      43.027 -17.725   5.421  1.00  0.00    -0.048 A 
HETATM    2  C   UNL     1      42.887 -17.085   4.175  1.00  0.00     0.040 A 
HETATM    3  C   UNL     1      41.888 -16.130   3.950  1.00  0.00     0.069 A 
HETATM    4  C   UNL     1      40.999 -15.786   4.986  1.00  0.00     0.095 A 
HETATM    5  C   UNL     1      41.107 -16.426   6.218  1.00  0.00     0.039 A 
HETATM    6  C   UNL     1      42.103 -17.387   6.426  1.00  0.00     0.011 A 
ENDROOT
BRANCH   3   7
HETATM    7  N   UNL     1      41.714 -15.457   2.717  1.00  0.00    -0.320 N 
HETATM    8  C   UNL     1      42.380 -14.343   2.255  1.00  0.00     0.257 C 
HETATM    9  O   UNL     1      43.307 -13.753   2.794  1.00  0.00    -0.267 OA
HETATM   10  H   UNL     1      41.084 -15.948   2.089  1.00  0.00     0.169 HD
BRANCH   8  11
HETATM   11  C   UNL     1      41.932 -13.862   0.931  1.00  0.00     0.051 A 
HETATM   12  C   UNL     1      41.809 -12.505   0.656  1.00  0.00     0.133 A 
HETATM   13  N   UNL     1      41.399 -12.016  -0.539  1.00  0.00    -0.271 NA
HETATM   14  C   UNL     1      41.121 -12.928  -1.503  1.00  0.00     0.135 A 
HETATM   15  C   UNL     1      41.237 -14.300  -1.322  1.00  0.00     0.029 A 
HETATM   16 BR   UNL     1      40.825 -15.494  -2.721  1.00  0.00    -0.050 Br
HETATM   17  C   UNL     1      41.656 -14.778  -0.085  1.00  0.00     0.039 A 
ENDBRANCH   8  11
ENDBRANCH   3   7
BRANCH   4  18
HETATM   18  O   UNL     1      40.066 -14.825   4.671  1.00  0.00    -0.354 OA
HETATM   19  C   UNL     1      40.005 -13.685   5.520  1.00  0.00     0.210 C 
ENDBRANCH   4  18
BRANCH   1  20
HETATM   20  C   UNL     1      44.118 -18.780   5.687  1.00  0.00    -0.024 C 
HETATM   21  C   UNL     1      43.674 -19.905   6.650  1.00  0.00     0.019 C 
HETATM   22  C   UNL     1      45.341 -18.079   6.312  1.00  0.00     0.019 C 
HETATM   23  C   UNL     1      44.548 -19.469   4.371  1.00  0.00     0.019 C 
ENDBRANCH   1  20
TORSDOF 4
ENDMDL
MODEL 6
REMARK VINA RESULT:      -6.8      3.846      7.783
REMARK  4 active torsions:
REMARK  status: ('A' for Active; 'I' for Inactive)
REMARK    1  A    between atoms: C_2  and  C_3 
REMARK    2  A    between atoms: C_5  and  N_6 
REMARK       I    between atoms: N_6  and  C_7 
REMARK    3  A    between atoms: C_7  and  C_8 
REMARK    4  A    between atoms: C_16  and  O_17 
ROOT
HETATM    1  C   UNL     1      43.572 -18.685   4.282  1.00  0.00    -0.048 A 
HETATM    2  C   UNL     1      42.956 -17.458   4.594  1.00  0.00     0.040 A 
HETATM    3  C   UNL     1      42.152 -16.784   3.666  1.00  0.00     0.069 A 
HETATM    4  C   UNL     1      41.940 -17.338   2.389  1.00  0.00     0.095 A 
HETATM    5  C   UNL     1      42.560 -18.540   2.055  1.00  0.00     0.039 A 
HETATM    6  C   UNL     1      43.370 -19.196   2.988  1.00  0.00     0.011 A 
ENDROOT
BRANCH   3   7
HETATM    7  N   UNL     1      41.509 -15.553   3.937  1.00  0.00    -0.320 N 
HETATM    8  C   UNL     1      40.696 -15.236   5.002  1.00  0.00     0.257 C 
HETATM    9  O   UNL     1      40.423 -15.939   5.967  1.00  0.00    -0.267 OA
HETATM   10  H   UNL     1      41.791 -14.816   3.297  1.00  0.00     0.169 HD
BRANCH   8  11
HETATM   11  C   UNL     1      40.148 -13.864   4.972  1.00  0.00     0.051 A 
HETATM   12  C   UNL     1      39.606 -13.324   3.811  1.00  0.00     0.133 A 
HETATM   13  N   UNL     1      39.096 -12.072   3.732  1.00  0.00    -0.271 NA
HETATM   14  C   UNL     1      39.113 -11.339   4.872  1.00  0.00     0.135 A 
HETATM   15  C   UNL     1      39.616 -11.804   6.081  1.00  0.00     0.029 A 
HETATM   16 BR   UNL     1      39.599 -10.710   7.615  1.00  0.00    -0.050 Br
HETATM   17  C   UNL     1      40.136 -13.093   6.135  1.00  0.00     0.039 A 
ENDBRANCH   8  11
ENDBRANCH   3   7
BRANCH   4  18
HETATM   18  O   UNL     1      41.121 -16.611   1.557  1.00  0.00    -0.354 OA
HETATM   19  C   UNL     1      41.647 -16.259   0.282  1.00  0.00     0.210 C 
ENDBRANCH   4  18
BRANCH   1  20
HETATM   20  C   UNL     1      44.461 -19.439   5.289  1.00  0.00    -0.024 C 
HETATM   21  C   UNL     1      43.667 -20.188   6.384  1.00  0.00     0.019 C 
HETATM   22  C   UNL     1      45.386 -18.423   5.988  1.00  0.00     0.019 C 
HETATM   23  C   UNL     1      45.328 -20.500   4.570  1.00  0.00     0.019 C 
ENDBRANCH   1  20
TORSDOF 4
ENDMDL
MODEL 7
REMARK VINA RESULT:      -6.7      3.076      7.156
REMARK  4 active torsions:
REMARK  status: ('A' for Active; 'I' for Inactive)
REMARK    1  A    between atoms: C_2  and  C_3 
REMARK    2  A    between atoms: C_5  and  N_6 
REMARK       I    between atoms: N_6  and  C_7 
REMARK    3  A    between atoms: C_7  and  C_8 
REMARK    4  A    between atoms: C_16  and  O_17 
ROOT
HETATM    1  C   UNL     1      43.100 -17.803   5.350  1.00  0.00    -0.048 A 
HETATM    2  C   UNL     1      42.997 -17.232   4.068  1.00  0.00     0.040 A 
HETATM    3  C   UNL     1      42.000 -16.298   3.759  1.00  0.00     0.069 A 
HETATM    4  C   UNL     1      41.075 -15.907   4.746  1.00  0.00     0.095 A 
HETATM    5  C   UNL     1      41.147 -16.480   6.013  1.00  0.00     0.039 A 
HETATM    6  C   UNL     1      42.141 -17.420   6.305  1.00  0.00     0.011 A 
ENDROOT
BRANCH   3   7
HETATM    7  N   UNL     1      41.862 -15.693   2.487  1.00  0.00    -0.320 N 
HETATM    8  C   UNL     1      41.445 -16.275   1.310  1.00  0.00     0.257 C 
HETATM    9  O   UNL     1      41.043 -17.420   1.147  1.00  0.00    -0.267 OA
HETATM   10  H   UNL     1      42.001 -14.687   2.515  1.00  0.00     0.169 HD
BRANCH   8  11
HETATM   11  C   UNL     1      41.446 -15.371   0.141  1.00  0.00     0.051 A 
HETATM   12  C   UNL     1      41.060 -15.813  -1.119  1.00  0.00     0.133 A 
HETATM   13  N   UNL     1      41.048 -15.025  -2.221  1.00  0.00    -0.271 NA
HETATM   14  C   UNL     1      41.421 -13.733  -2.044  1.00  0.00     0.135 A 
HETATM   15  C   UNL     1      41.801 -13.201  -0.818  1.00  0.00     0.029 A 
HETATM   16 BR   UNL     1      42.306 -11.392  -0.669  1.00  0.00    -0.050 Br
HETATM   17  C   UNL     1      41.808 -14.032   0.297  1.00  0.00     0.039 A 
ENDBRANCH   8  11
ENDBRANCH   3   7
BRANCH   4  18
HETATM   18  O   UNL     1      40.147 -14.972   4.350  1.00  0.00    -0.354 OA
HETATM   19  C   UNL     1      39.850 -13.929   5.271  1.00  0.00     0.210 C 
ENDBRANCH   4  18
BRANCH   1  20
HETATM   20  C   UNL     1      44.188 -18.833   5.707  1.00  0.00    -0.024 C 
HETATM   21  C   UNL     1      44.744 -19.601   4.486  1.00  0.00     0.019 C 
HETATM   22  C   UNL     1      43.588 -19.867   6.682  1.00  0.00     0.019 C 
HETATM   23  C   UNL     1      45.397 -18.145   6.383  1.00  0.00     0.019 C 
ENDBRANCH   1  20
TORSDOF 4
ENDMDL
MODEL 8
REMARK VINA RESULT:      -6.6      3.877      7.705
REMARK  4 active torsions:
REMARK  status: ('A' for Active; 'I' for Inactive)
REMARK    1  A    between atoms: C_2  and  C_3 
REMARK    2  A    between atoms: C_5  and  N_6 
REMARK       I    between atoms: N_6  and  C_7 
REMARK    3  A    between atoms: C_7  and  C_8 
REMARK    4  A    between atoms: C_16  and  O_17 
ROOT
HETATM    1  C   UNL     1      43.941 -18.304   4.094  1.00  0.00    -0.048 A 
HETATM    2  C   UNL     1      43.372 -17.026   4.254  1.00  0.00     0.040 A 
HETATM    3  C   UNL     1      42.917 -16.283   3.157  1.00  0.00     0.069 A 
HETATM    4  C   UNL     1      43.020 -16.816   1.857  1.00  0.00     0.095 A 
HETATM    5  C   UNL     1      43.602 -18.069   1.678  1.00  0.00     0.039 A 
HETATM    6  C   UNL     1      44.062 -18.795   2.782  1.00  0.00     0.011 A 
ENDROOT
BRANCH   3   7
HETATM    7  N   UNL     1      42.334 -14.999   3.270  1.00  0.00    -0.320 N 
HETATM    8  C   UNL     1      42.967 -13.793   3.476  1.00  0.00     0.257 C 
HETATM    9  O   UNL     1      44.171 -13.585   3.535  1.00  0.00    -0.267 OA
HETATM   10  H   UNL     1      41.338 -15.003   3.067  1.00  0.00     0.169 HD
BRANCH   8  11
HETATM   11  C   UNL     1      42.059 -12.632   3.584  1.00  0.00     0.051 A 
HETATM   12  C   UNL     1      41.434 -12.093   2.465  1.00  0.00     0.133 A 
HETATM   13  N   UNL     1      40.599 -11.027   2.512  1.00  0.00    -0.271 NA
HETATM   14  C   UNL     1      40.366 -10.495   3.737  1.00  0.00     0.135 A 
HETATM   15  C   UNL     1      40.931 -10.981   4.909  1.00  0.00     0.029 A 
HETATM   16 BR   UNL     1      40.551 -10.173   6.568  1.00  0.00    -0.050 Br
HETATM   17  C   UNL     1      41.788 -12.074   4.834  1.00  0.00     0.039 A 
ENDBRANCH   8  11
ENDBRANCH   3   7
BRANCH   4  18
HETATM   18  O   UNL     1      42.529 -16.018   0.850  1.00  0.00    -0.354 OA
HETATM   19  C   UNL     1      41.448 -16.539   0.086  1.00  0.00     0.210 C 
ENDBRANCH   4  18
BRANCH   1  20
HETATM   20  C   UNL     1      44.449 -19.134   5.288  1.00  0.00    -0.024 C 
HETATM   21  C   UNL     1      43.324 -19.625   6.228  1.00  0.00     0.019 C 
HETATM   22  C   UNL     1      45.413 -18.264   6.119  1.00  0.00     0.019 C 
HETATM   23  C   UNL     1      45.199 -20.396   4.801  1.00  0.00     0.019 C 
ENDBRANCH   1  20
TORSDOF 4
ENDMDL
MODEL 9
REMARK VINA RESULT:      -6.6      2.798      7.065
REMARK  4 active torsions:
REMARK  status: ('A' for Active; 'I' for Inactive)
REMARK    1  A    between atoms: C_2  and  C_3 
REMARK    2  A    between atoms: C_5  and  N_6 
REMARK       I    between atoms: N_6  and  C_7 
REMARK    3  A    between atoms: C_7  and  C_8 
REMARK    4  A    between atoms: C_16  and  O_17 
ROOT
HETATM    1  C   UNL     1      44.027 -19.957   3.052  1.00  0.00    -0.048 A 
HETATM    2  C   UNL     1      43.578 -18.930   2.200  1.00  0.00     0.040 A 
HETATM    3  C   UNL     1      43.350 -17.631   2.672  1.00  0.00     0.069 A 
HETATM    4  C   UNL     1      43.577 -17.328   4.028  1.00  0.00     0.095 A 
HETATM    5  C   UNL     1      43.999 -18.337   4.891  1.00  0.00     0.039 A 
HETATM    6  C   UNL     1      44.211 -19.633   4.408  1.00  0.00     0.011 A 
ENDROOT
BRANCH   3   7
HETATM    7  N   UNL     1      42.906 -16.568   1.852  1.00  0.00    -0.320 N 
HETATM    8  C   UNL     1      41.643 -16.357   1.343  1.00  0.00     0.257 C 
HETATM    9  O   UNL     1      40.634 -17.016   1.558  1.00  0.00    -0.267 OA
HETATM   10  H   UNL     1      43.610 -15.844   1.734  1.00  0.00     0.169 HD
BRANCH   8  11
HETATM   11  C   UNL     1      41.515 -15.161   0.485  1.00  0.00     0.051 A 
HETATM   12  C   UNL     1      41.795 -13.888   0.968  1.00  0.00     0.133 A 
HETATM   13  N   UNL     1      41.689 -12.762   0.222  1.00  0.00    -0.271 NA
HETATM   14  C   UNL     1      41.306 -12.925  -1.068  1.00  0.00     0.135 A 
HETATM   15  C   UNL     1      41.026 -14.160  -1.639  1.00  0.00     0.029 A 
HETATM   16 BR   UNL     1      40.496 -14.288  -3.443  1.00  0.00    -0.050 Br
HETATM   17  C   UNL     1      41.139 -15.301  -0.852  1.00  0.00     0.039 A 
ENDBRANCH   8  11
ENDBRANCH   3   7
BRANCH   4  18
HETATM   18  O   UNL     1      43.343 -16.022   4.390  1.00  0.00    -0.354 OA
HETATM   19  C   UNL     1      43.084 -15.771   5.766  1.00  0.00     0.210 C 
ENDBRANCH   4  18
BRANCH   1  20
HETATM   20  C   UNL     1      44.280 -21.391   2.551  1.00  0.00    -0.024 C 
HETATM   21  C   UNL     1      44.466 -22.423   3.687  1.00  0.00     0.019 C 
HETATM   22  C   UNL     1      45.561 -21.396   1.694  1.00  0.00     0.019 C 
HETATM   23  C   UNL     1      43.094 -21.890   1.692  1.00  0.00     0.019 C 
ENDBRANCH   1  20
TORSDOF 4
ENDMDL
MODEL 10
REMARK VINA RESULT:      -6.5      3.676      7.532
REMARK  4 active torsions:
REMARK  status: ('A' for Active; 'I' for Inactive)
REMARK    1  A    between atoms: C_2  and  C_3 
REMARK    2  A    between atoms: C_5  and  N_6 
REMARK       I    between atoms: N_6  and  C_7 
REMARK    3  A    between atoms: C_7  and  C_8 
REMARK    4  A    between atoms: C_16  and  O_17 
ROOT
HETATM    1  C   UNL     1      43.593 -18.536   4.238  1.00  0.00    -0.048 A 
HETATM    2  C   UNL     1      43.077 -17.241   4.436  1.00  0.00     0.040 A 
HETATM    3  C   UNL     1      42.293 -16.607   3.464  1.00  0.00     0.069 A 
HETATM    4  C   UNL     1      42.000 -17.270   2.257  1.00  0.00     0.095 A 
HETATM    5  C   UNL     1      42.521 -18.542   2.033  1.00  0.00     0.039 A 
HETATM    6  C   UNL     1      43.313 -19.159   3.009  1.00  0.00     0.011 A 
ENDROOT
BRANCH   3   7
HETATM    7  N   UNL     1      41.749 -15.310   3.622  1.00  0.00    -0.320 N 
HETATM    8  C   UNL     1      42.366 -14.097   3.403  1.00  0.00     0.257 C 
HETATM    9  O   UNL     1      43.490 -13.902   2.961  1.00  0.00    -0.267 OA
HETATM   10  H   UNL     1      40.754 -15.326   3.824  1.00  0.00     0.169 HD
BRANCH   8  11
HETATM   11  C   UNL     1      41.526 -12.917   3.698  1.00  0.00     0.051 A 
HETATM   12  C   UNL     1      41.859 -12.025   4.712  1.00  0.00     0.133 A 
HETATM   13  N   UNL     1      41.120 -10.933   5.023  1.00  0.00    -0.271 NA
HETATM   14  C   UNL     1      40.013 -10.718   4.271  1.00  0.00     0.135 A 
HETATM   15  C   UNL     1      39.616 -11.545   3.227  1.00  0.00     0.029 A 
HETATM   16 BR   UNL     1      38.058 -11.166   2.238  1.00  0.00    -0.050 Br
HETATM   17  C   UNL     1      40.390 -12.661   2.929  1.00  0.00     0.039 A 
ENDBRANCH   8  11
ENDBRANCH   3   7
BRANCH   4  18
HETATM   18  O   UNL     1      41.208 -16.571   1.375  1.00  0.00    -0.354 OA
HETATM   19  C   UNL     1      41.750 -16.319   0.084  1.00  0.00     0.210 C 
ENDBRANCH   4  18
BRANCH   1  20
HETATM   20  C   UNL     1      44.459 -19.247   5.294  1.00  0.00    -0.024 C 
HETATM   21  C   UNL     1      45.360 -20.361   4.713  1.00  0.00     0.019 C 
HETATM   22  C   UNL     1      43.529 -19.891   6.342  1.00  0.00     0.019 C 
HETATM   23  C   UNL     1      45.399 -18.244   6.001  1.00  0.00     0.019 C 
ENDBRANCH   1  20
TORSDOF 4
ENDMDL
