MODEL 1
REMARK VINA RESULT:      -8.0      0.000      0.000
REMARK  4 active torsions:
REMARK  status: ('A' for Active; 'I' for Inactive)
REMARK    1  A    between atoms: C_2  and  C_3 
REMARK    2  A    between atoms: C_6  and  C_7 
REMARK       I    between atoms: C_7  and  N_8 
REMARK    3  A    between atoms: N_8  and  C_9 
REMARK    4  A    between atoms: C_11  and  C_12 
ROOT
HETATM    1  C   UNL     1      44.747 -13.183   7.736  1.00  0.00     0.257 C 
HETATM    2  N   UNL     1      43.649 -13.918   7.320  1.00  0.00    -0.323 N 
HETATM    3  O   UNL     1      45.898 -13.295   7.333  1.00  0.00    -0.267 OA
HETATM    4  H   UNL     1      42.799 -13.823   7.858  1.00  0.00     0.169 HD
ENDROOT
BRANCH   2   5
HETATM    5  C   UNL     1      43.602 -14.872   6.280  1.00  0.00     0.035 A 
HETATM    6  C   UNL     1      43.822 -16.241   6.464  1.00  0.00     0.042 A 
HETATM    7  C   UNL     1      43.763 -17.142   5.385  1.00  0.00    -0.021 A 
HETATM    8  C   UNL     1      43.488 -16.639   4.106  1.00  0.00     0.012 A 
HETATM    9  C   UNL     1      43.277 -15.275   3.910  1.00  0.00     0.003 A 
HETATM   10  C   UNL     1      43.334 -14.397   4.991  1.00  0.00     0.029 A 
BRANCH   7  11
HETATM   11  C   UNL     1      43.989 -18.569   5.576  1.00  0.00     0.010 A 
HETATM   12  C   UNL     1      44.602 -19.533   4.737  1.00  0.00     0.152 A 
HETATM   13  N   UNL     1      44.611 -20.759   5.268  1.00  0.00    -0.187 NA
HETATM   14  N   UNL     1      44.004 -20.588   6.453  1.00  0.00    -0.289 N 
HETATM   15  H   UNL     1      43.889 -21.395   7.056  1.00  0.00     0.188 HD
HETATM   16  C   UNL     1      43.610 -19.302   6.683  1.00  0.00     0.123 A 
ENDBRANCH   7  11
ENDBRANCH   2   5
BRANCH   1  17
HETATM   17  C   UNL     1      44.476 -12.193   8.807  1.00  0.00     0.049 A 
HETATM   18  C   UNL     1      43.327 -11.419   8.730  1.00  0.00     0.134 A 
HETATM   19  N   UNL     1      42.979 -10.487   9.653  1.00  0.00    -0.264 NA
HETATM   20  C   UNL     1      43.801 -10.315  10.717  1.00  0.00     0.037 A 
HETATM   21  C   UNL     1      44.960 -11.073  10.885  1.00  0.00     0.028 A 
HETATM   22  C   UNL     1      45.300 -12.023   9.921  1.00  0.00     0.020 A 
BRANCH  20  23
HETATM   23  C   UNL     1      43.392  -9.306  11.774  1.00  0.00     0.029 C 
HETATM   24  C   UNL     1      43.327  -9.978  13.146  1.00  0.00     0.016 C 
HETATM   25  C   UNL     1      42.058  -8.636  11.435  1.00  0.00     0.016 C 
ENDBRANCH  20  23
ENDBRANCH   1  17
TORSDOF 4
ENDMDL
MODEL 2
REMARK VINA RESULT:      -8.0      2.010      8.793
REMARK  4 active torsions:
REMARK  status: ('A' for Active; 'I' for Inactive)
REMARK    1  A    between atoms: C_2  and  C_3 
REMARK    2  A    between atoms: C_6  and  C_7 
REMARK       I    between atoms: C_7  and  N_8 
REMARK    3  A    between atoms: N_8  and  C_9 
REMARK    4  A    between atoms: C_11  and  C_12 
ROOT
HETATM    1  C   UNL     1      43.753 -14.228   6.407  1.00  0.00     0.257 C 
HETATM    2  N   UNL     1      44.742 -14.195   7.376  1.00  0.00    -0.323 N 
HETATM    3  O   UNL     1      42.945 -13.342   6.156  1.00  0.00    -0.267 OA
HETATM    4  H   UNL     1      45.224 -15.061   7.572  1.00  0.00     0.169 HD
ENDROOT
BRANCH   2   5
HETATM    5  C   UNL     1      45.095 -13.106   8.203  1.00  0.00     0.035 A 
HETATM    6  C   UNL     1      44.325 -12.664   9.284  1.00  0.00     0.042 A 
HETATM    7  C   UNL     1      44.730 -11.569  10.070  1.00  0.00    -0.021 A 
HETATM    8  C   UNL     1      45.925 -10.915   9.743  1.00  0.00     0.012 A 
HETATM    9  C   UNL     1      46.695 -11.341   8.661  1.00  0.00     0.003 A 
HETATM   10  C   UNL     1      46.281 -12.430   7.895  1.00  0.00     0.029 A 
BRANCH   7  11
HETATM   11  C   UNL     1      43.931 -11.110  11.199  1.00  0.00     0.010 A 
HETATM   12  C   UNL     1      43.286 -11.832  12.234  1.00  0.00     0.152 A 
HETATM   13  N   UNL     1      42.631 -11.044  13.092  1.00  0.00    -0.187 NA
HETATM   14  N   UNL     1      42.854  -9.810  12.613  1.00  0.00    -0.289 N 
HETATM   15  H   UNL     1      42.451  -9.021  13.106  1.00  0.00     0.188 HD
HETATM   16  C   UNL     1      43.619  -9.796  11.483  1.00  0.00     0.123 A 
ENDBRANCH   7  11
ENDBRANCH   2   5
BRANCH   1  17
HETATM   17  C   UNL     1      43.663 -15.493   5.638  1.00  0.00     0.049 A 
HETATM   18  C   UNL     1      43.276 -15.442   4.307  1.00  0.00     0.134 A 
HETATM   19  N   UNL     1      43.163 -16.535   3.509  1.00  0.00    -0.264 NA
HETATM   20  C   UNL     1      43.457 -17.742   4.049  1.00  0.00     0.037 A 
HETATM   21  C   UNL     1      43.881 -17.877   5.371  1.00  0.00     0.028 A 
HETATM   22  C   UNL     1      43.987 -16.741   6.173  1.00  0.00     0.020 A 
BRANCH  20  23
HETATM   23  C   UNL     1      43.375 -18.961   3.148  1.00  0.00     0.029 C 
HETATM   24  C   UNL     1      44.413 -20.000   3.572  1.00  0.00     0.016 C 
HETATM   25  C   UNL     1      43.551 -18.591   1.673  1.00  0.00     0.016 C 
ENDBRANCH  20  23
ENDBRANCH   1  17
TORSDOF 4
ENDMDL
MODEL 3
REMARK VINA RESULT:      -7.9      2.093      2.859
REMARK  4 active torsions:
REMARK  status: ('A' for Active; 'I' for Inactive)
REMARK    1  A    between atoms: C_2  and  C_3 
REMARK    2  A    between atoms: C_6  and  C_7 
REMARK       I    between atoms: C_7  and  N_8 
REMARK    3  A    between atoms: N_8  and  C_9 
REMARK    4  A    between atoms: C_11  and  C_12 
ROOT
HETATM    1  C   UNL     1      44.909 -13.648   7.496  1.00  0.00     0.257 C 
HETATM    2  N   UNL     1      44.018 -14.708   7.466  1.00  0.00    -0.323 N 
HETATM    3  O   UNL     1      45.914 -13.516   6.808  1.00  0.00    -0.267 OA
HETATM    4  H   UNL     1      43.329 -14.753   8.204  1.00  0.00     0.169 HD
ENDROOT
BRANCH   2   5
HETATM    5  C   UNL     1      44.020 -15.803   6.573  1.00  0.00     0.035 A 
HETATM    6  C   UNL     1      43.569 -15.735   5.251  1.00  0.00     0.042 A 
HETATM    7  C   UNL     1      43.594 -16.864   4.411  1.00  0.00    -0.021 A 
HETATM    8  C   UNL     1      44.075 -18.073   4.930  1.00  0.00     0.012 A 
HETATM    9  C   UNL     1      44.518 -18.155   6.250  1.00  0.00     0.003 A 
HETATM   10  C   UNL     1      44.490 -17.025   7.066  1.00  0.00     0.029 A 
BRANCH   7  11
HETATM   11  C   UNL     1      43.127 -16.793   3.033  1.00  0.00     0.010 A 
HETATM   12  C   UNL     1      41.831 -16.579   2.502  1.00  0.00     0.152 A 
HETATM   13  N   UNL     1      41.803 -16.591   1.166  1.00  0.00    -0.187 NA
HETATM   14  N   UNL     1      43.084 -16.813   0.832  1.00  0.00    -0.289 N 
HETATM   15  H   UNL     1      43.324 -16.865  -0.152  1.00  0.00     0.188 HD
HETATM   16  C   UNL     1      43.913 -16.944   1.908  1.00  0.00     0.123 A 
ENDBRANCH   7  11
ENDBRANCH   2   5
BRANCH   1  17
HETATM   17  C   UNL     1      44.610 -12.600   8.502  1.00  0.00     0.049 A 
HETATM   18  C   UNL     1      43.516 -11.771   8.301  1.00  0.00     0.134 A 
HETATM   19  N   UNL     1      43.149 -10.782   9.155  1.00  0.00    -0.264 NA
HETATM   20  C   UNL     1      43.893 -10.607  10.274  1.00  0.00     0.037 A 
HETATM   21  C   UNL     1      44.990 -11.416  10.565  1.00  0.00     0.028 A 
HETATM   22  C   UNL     1      45.352 -12.424   9.671  1.00  0.00     0.020 A 
BRANCH  20  23
HETATM   23  C   UNL     1      43.458  -9.532  11.254  1.00  0.00     0.029 C 
HETATM   24  C   UNL     1      43.641 -10.024  12.690  1.00  0.00     0.016 C 
HETATM   25  C   UNL     1      42.012  -9.092  11.011  1.00  0.00     0.016 C 
ENDBRANCH  20  23
ENDBRANCH   1  17
TORSDOF 4
ENDMDL
MODEL 4
REMARK VINA RESULT:      -7.9      6.698      9.584
REMARK  4 active torsions:
REMARK  status: ('A' for Active; 'I' for Inactive)
REMARK    1  A    between atoms: C_2  and  C_3 
REMARK    2  A    between atoms: C_6  and  C_7 
REMARK       I    between atoms: C_7  and  N_8 
REMARK    3  A    between atoms: N_8  and  C_9 
REMARK    4  A    between atoms: C_11  and  C_12 
ROOT
HETATM    1  C   UNL     1      41.444 -15.833   0.363  1.00  0.00     0.257 C 
HETATM    2  N   UNL     1      42.733 -16.233   0.671  1.00  0.00    -0.323 N 
HETATM    3  O   UNL     1      40.419 -16.143   0.958  1.00  0.00    -0.267 OA
HETATM    4  H   UNL     1      43.455 -16.026  -0.006  1.00  0.00     0.169 HD
ENDROOT
BRANCH   2   5
HETATM    5  C   UNL     1      43.151 -16.994   1.785  1.00  0.00     0.035 A 
HETATM    6  C   UNL     1      43.451 -18.359   1.732  1.00  0.00     0.042 A 
HETATM    7  C   UNL     1      43.860 -19.063   2.880  1.00  0.00    -0.021 A 
HETATM    8  C   UNL     1      43.953 -18.368   4.093  1.00  0.00     0.012 A 
HETATM    9  C   UNL     1      43.646 -17.009   4.160  1.00  0.00     0.003 A 
HETATM   10  C   UNL     1      43.247 -16.327   3.011  1.00  0.00     0.029 A 
BRANCH   7  11
HETATM   11  C   UNL     1      44.176 -20.484   2.825  1.00  0.00     0.010 A 
HETATM   12  C   UNL     1      44.099 -21.411   1.756  1.00  0.00     0.152 A 
HETATM   13  N   UNL     1      44.472 -22.646   2.106  1.00  0.00    -0.187 NA
HETATM   14  N   UNL     1      44.792 -22.517   3.403  1.00  0.00    -0.289 N 
HETATM   15  H   UNL     1      45.114 -23.338   3.904  1.00  0.00     0.188 HD
HETATM   16  C   UNL     1      44.629 -21.249   3.880  1.00  0.00     0.123 A 
ENDBRANCH   7  11
ENDBRANCH   2   5
BRANCH   1  17
HETATM   17  C   UNL     1      41.319 -14.971  -0.838  1.00  0.00     0.049 A 
HETATM   18  C   UNL     1      41.590 -13.615  -0.721  1.00  0.00     0.134 A 
HETATM   19  N   UNL     1      41.510 -12.736  -1.752  1.00  0.00    -0.264 NA
HETATM   20  C   UNL     1      41.155 -13.220  -2.967  1.00  0.00     0.037 A 
HETATM   21  C   UNL     1      40.894 -14.574  -3.176  1.00  0.00     0.028 A 
HETATM   22  C   UNL     1      40.979 -15.459  -2.100  1.00  0.00     0.020 A 
BRANCH  20  23
HETATM   23  C   UNL     1      41.110 -12.247  -4.132  1.00  0.00     0.029 C 
HETATM   24  C   UNL     1      42.381 -11.399  -4.159  1.00  0.00     0.016 C 
HETATM   25  C   UNL     1      39.865 -11.358  -4.082  1.00  0.00     0.016 C 
ENDBRANCH  20  23
ENDBRANCH   1  17
TORSDOF 4
ENDMDL
MODEL 5
REMARK VINA RESULT:      -7.8      5.471      9.114
REMARK  4 active torsions:
REMARK  status: ('A' for Active; 'I' for Inactive)
REMARK    1  A    between atoms: C_2  and  C_3 
REMARK    2  A    between atoms: C_6  and  C_7 
REMARK       I    between atoms: C_7  and  N_8 
REMARK    3  A    between atoms: N_8  and  C_9 
REMARK    4  A    between atoms: C_11  and  C_12 
ROOT
HETATM    1  C   UNL     1      41.660 -16.745   0.963  1.00  0.00     0.257 C 
HETATM    2  N   UNL     1      42.933 -16.862   1.497  1.00  0.00    -0.323 N 
HETATM    3  O   UNL     1      40.699 -17.466   1.198  1.00  0.00    -0.267 OA
HETATM    4  H   UNL     1      43.660 -16.293   1.085  1.00  0.00     0.169 HD
ENDROOT
BRANCH   2   5
HETATM    5  C   UNL     1      43.363 -17.764   2.494  1.00  0.00     0.035 A 
HETATM    6  C   UNL     1      43.283 -17.509   3.867  1.00  0.00     0.042 A 
HETATM    7  C   UNL     1      43.733 -18.450   4.812  1.00  0.00    -0.021 A 
HETATM    8  C   UNL     1      44.276 -19.656   4.351  1.00  0.00     0.012 A 
HETATM    9  C   UNL     1      44.370 -19.917   2.984  1.00  0.00     0.003 A 
HETATM   10  C   UNL     1      43.916 -18.975   2.061  1.00  0.00     0.029 A 
BRANCH   7  11
HETATM   11  C   UNL     1      43.647 -18.187   6.243  1.00  0.00     0.010 A 
HETATM   12  C   UNL     1      43.214 -17.038   6.951  1.00  0.00     0.152 A 
HETATM   13  N   UNL     1      43.293 -17.179   8.277  1.00  0.00    -0.187 NA
HETATM   14  N   UNL     1      43.778 -18.422   8.428  1.00  0.00    -0.289 N 
HETATM   15  H   UNL     1      43.929 -18.770   9.369  1.00  0.00     0.188 HD
HETATM   16  C   UNL     1      44.009 -19.063   7.246  1.00  0.00     0.123 A 
ENDBRANCH   7  11
ENDBRANCH   2   5
BRANCH   1  17
HETATM   17  C   UNL     1      41.486 -15.648  -0.020  1.00  0.00     0.049 A 
HETATM   18  C   UNL     1      41.712 -14.341   0.387  1.00  0.00     0.134 A 
HETATM   19  N   UNL     1      41.584 -13.262  -0.427  1.00  0.00    -0.264 NA
HETATM   20  C   UNL     1      41.226 -13.483  -1.715  1.00  0.00     0.037 A 
HETATM   21  C   UNL     1      41.008 -14.768  -2.212  1.00  0.00     0.028 A 
HETATM   22  C   UNL     1      41.142 -15.862  -1.356  1.00  0.00     0.020 A 
BRANCH  20  23
HETATM   23  C   UNL     1      41.127 -12.283  -2.639  1.00  0.00     0.029 C 
HETATM   24  C   UNL     1      39.949 -12.453  -3.600  1.00  0.00     0.016 C 
HETATM   25  C   UNL     1      42.427 -12.051  -3.412  1.00  0.00     0.016 C 
ENDBRANCH  20  23
ENDBRANCH   1  17
TORSDOF 4
ENDMDL
MODEL 6
REMARK VINA RESULT:      -7.8      6.359      8.987
REMARK  4 active torsions:
REMARK  status: ('A' for Active; 'I' for Inactive)
REMARK    1  A    between atoms: C_2  and  C_3 
REMARK    2  A    between atoms: C_6  and  C_7 
REMARK       I    between atoms: C_7  and  N_8 
REMARK    3  A    between atoms: N_8  and  C_9 
REMARK    4  A    between atoms: C_11  and  C_12 
ROOT
HETATM    1  C   UNL     1      41.660 -16.493   1.198  1.00  0.00     0.257 C 
HETATM    2  N   UNL     1      42.908 -16.510   1.798  1.00  0.00    -0.323 N 
HETATM    3  O   UNL     1      40.728 -17.254   1.426  1.00  0.00    -0.267 OA
HETATM    4  H   UNL     1      43.624 -15.924   1.392  1.00  0.00     0.169 HD
ENDROOT
BRANCH   2   5
HETATM    5  C   UNL     1      43.335 -17.333   2.864  1.00  0.00     0.035 A 
HETATM    6  C   UNL     1      43.652 -18.688   2.726  1.00  0.00     0.042 A 
HETATM    7  C   UNL     1      44.069 -19.456   3.829  1.00  0.00    -0.021 A 
HETATM    8  C   UNL     1      44.153 -18.837   5.083  1.00  0.00     0.012 A 
HETATM    9  C   UNL     1      43.830 -17.489   5.234  1.00  0.00     0.003 A 
HETATM   10  C   UNL     1      43.422 -16.742   4.129  1.00  0.00     0.029 A 
BRANCH   7  11
HETATM   11  C   UNL     1      44.403 -20.867   3.686  1.00  0.00     0.010 A 
HETATM   12  C   UNL     1      44.385 -21.715   2.551  1.00  0.00     0.152 A 
HETATM   13  N   UNL     1      44.755 -22.969   2.827  1.00  0.00    -0.187 NA
HETATM   14  N   UNL     1      45.013 -22.933   4.144  1.00  0.00    -0.289 N 
HETATM   15  H   UNL     1      45.320 -23.786   4.599  1.00  0.00     0.188 HD
HETATM   16  C   UNL     1      44.815 -21.704   4.704  1.00  0.00     0.123 A 
ENDBRANCH   7  11
ENDBRANCH   2   5
BRANCH   1  17
HETATM   17  C   UNL     1      41.478 -15.460   0.148  1.00  0.00     0.049 A 
HETATM   18  C   UNL     1      41.774 -14.139   0.449  1.00  0.00     0.134 A 
HETATM   19  N   UNL     1      41.646 -13.115  -0.433  1.00  0.00    -0.264 NA
HETATM   20  C   UNL     1      41.214 -13.410  -1.683  1.00  0.00     0.037 A 
HETATM   21  C   UNL     1      40.923 -14.717  -2.075  1.00  0.00     0.028 A 
HETATM   22  C   UNL     1      41.058 -15.753  -1.150  1.00  0.00     0.020 A 
BRANCH  20  23
HETATM   23  C   UNL     1      41.115 -12.275  -2.685  1.00  0.00     0.029 C 
HETATM   24  C   UNL     1      39.999 -12.558  -3.692  1.00  0.00     0.016 C 
HETATM   25  C   UNL     1      42.444 -12.030  -3.403  1.00  0.00     0.016 C 
ENDBRANCH  20  23
ENDBRANCH   1  17
TORSDOF 4
ENDMDL
MODEL 7
REMARK VINA RESULT:      -7.7      6.835     10.046
REMARK  4 active torsions:
REMARK  status: ('A' for Active; 'I' for Inactive)
REMARK    1  A    between atoms: C_2  and  C_3 
REMARK    2  A    between atoms: C_6  and  C_7 
REMARK       I    between atoms: C_7  and  N_8 
REMARK    3  A    between atoms: N_8  and  C_9 
REMARK    4  A    between atoms: C_11  and  C_12 
ROOT
HETATM    1  C   UNL     1      42.777 -16.718   2.313  1.00  0.00     0.257 C 
HETATM    2  N   UNL     1      41.548 -16.887   1.697  1.00  0.00    -0.323 N 
HETATM    3  O   UNL     1      43.419 -15.678   2.392  1.00  0.00    -0.267 OA
HETATM    4  H   UNL     1      41.221 -17.835   1.573  1.00  0.00     0.169 HD
ENDROOT
BRANCH   2   5
HETATM    5  C   UNL     1      40.733 -15.886   1.125  1.00  0.00     0.035 A 
HETATM    6  C   UNL     1      40.966 -15.308  -0.128  1.00  0.00     0.042 A 
HETATM    7  C   UNL     1      40.116 -14.312  -0.643  1.00  0.00    -0.021 A 
HETATM    8  C   UNL     1      39.026 -13.895   0.132  1.00  0.00     0.012 A 
HETATM    9  C   UNL     1      38.789 -14.458   1.387  1.00  0.00     0.003 A 
HETATM   10  C   UNL     1      39.640 -15.447   1.880  1.00  0.00     0.029 A 
BRANCH   7  11
HETATM   11  C   UNL     1      40.357 -13.712  -1.948  1.00  0.00     0.010 A 
HETATM   12  C   UNL     1      41.559 -13.520  -2.675  1.00  0.00     0.152 A 
HETATM   13  N   UNL     1      41.369 -12.915  -3.851  1.00  0.00    -0.187 NA
HETATM   14  N   UNL     1      40.042 -12.715  -3.886  1.00  0.00    -0.289 N 
HETATM   15  H   UNL     1      39.644 -12.260  -4.701  1.00  0.00     0.188 HD
HETATM   16  C   UNL     1      39.394 -13.168  -2.774  1.00  0.00     0.123 A 
ENDBRANCH   7  11
ENDBRANCH   2   5
BRANCH   1  17
HETATM   17  C   UNL     1      43.368 -17.949   2.893  1.00  0.00     0.049 A 
HETATM   18  C   UNL     1      43.451 -18.067   4.272  1.00  0.00     0.134 A 
HETATM   19  N   UNL     1      43.970 -19.147   4.910  1.00  0.00    -0.264 NA
HETATM   20  C   UNL     1      44.422 -20.172   4.147  1.00  0.00     0.037 A 
HETATM   21  C   UNL     1      44.349 -20.145   2.755  1.00  0.00     0.028 A 
HETATM   22  C   UNL     1      43.815 -19.022   2.121  1.00  0.00     0.020 A 
BRANCH  20  23
HETATM   23  C   UNL     1      44.961 -21.400   4.857  1.00  0.00     0.029 C 
HETATM   24  C   UNL     1      44.724 -22.647   4.005  1.00  0.00     0.016 C 
HETATM   25  C   UNL     1      44.346 -21.570   6.248  1.00  0.00     0.016 C 
ENDBRANCH  20  23
ENDBRANCH   1  17
TORSDOF 4
ENDMDL
MODEL 8
REMARK VINA RESULT:      -7.3      7.358     10.752
REMARK  4 active torsions:
REMARK  status: ('A' for Active; 'I' for Inactive)
REMARK    1  A    between atoms: C_2  and  C_3 
REMARK    2  A    between atoms: C_6  and  C_7 
REMARK       I    between atoms: C_7  and  N_8 
REMARK    3  A    between atoms: N_8  and  C_9 
REMARK    4  A    between atoms: C_11  and  C_12 
ROOT
HETATM    1  C   UNL     1      41.166 -16.048   1.666  1.00  0.00     0.257 C 
HETATM    2  N   UNL     1      41.430 -15.388   0.478  1.00  0.00    -0.323 N 
HETATM    3  O   UNL     1      40.245 -15.819   2.442  1.00  0.00    -0.267 OA
HETATM    4  H   UNL     1      42.315 -15.581   0.030  1.00  0.00     0.169 HD
ENDROOT
BRANCH   2   5
HETATM    5  C   UNL     1      40.644 -14.391  -0.141  1.00  0.00     0.035 A 
HETATM    6  C   UNL     1      39.778 -14.631  -1.213  1.00  0.00     0.042 A 
HETATM    7  C   UNL     1      39.022 -13.593  -1.789  1.00  0.00    -0.021 A 
HETATM    8  C   UNL     1      39.160 -12.298  -1.272  1.00  0.00     0.012 A 
HETATM    9  C   UNL     1      40.028 -12.046  -0.209  1.00  0.00     0.003 A 
HETATM   10  C   UNL     1      40.766 -13.088   0.351  1.00  0.00     0.029 A 
BRANCH   7  11
HETATM   11  C   UNL     1      38.118 -13.843  -2.903  1.00  0.00     0.010 A 
HETATM   12  C   UNL     1      37.629 -15.056  -3.448  1.00  0.00     0.152 A 
HETATM   13  N   UNL     1      36.813 -14.872  -4.491  1.00  0.00    -0.187 NA
HETATM   14  N   UNL     1      36.774 -13.536  -4.620  1.00  0.00    -0.289 N 
HETATM   15  H   UNL     1      36.205 -13.140  -5.361  1.00  0.00     0.188 HD
HETATM   16  C   UNL     1      37.537 -12.877  -3.701  1.00  0.00     0.123 A 
ENDBRANCH   7  11
ENDBRANCH   2   5
BRANCH   1  17
HETATM   17  C   UNL     1      42.138 -17.108   2.030  1.00  0.00     0.049 A 
HETATM   18  C   UNL     1      42.048 -17.698   3.282  1.00  0.00     0.134 A 
HETATM   19  N   UNL     1      42.882 -18.676   3.719  1.00  0.00    -0.264 NA
HETATM   20  C   UNL     1      43.849 -19.105   2.873  1.00  0.00     0.037 A 
HETATM   21  C   UNL     1      43.989 -18.585   1.586  1.00  0.00     0.028 A 
HETATM   22  C   UNL     1      43.123 -17.577   1.160  1.00  0.00     0.020 A 
BRANCH  20  23
HETATM   23  C   UNL     1      44.753 -20.231   3.341  1.00  0.00     0.029 C 
HETATM   24  C   UNL     1      44.392 -21.530   2.621  1.00  0.00     0.016 C 
HETATM   25  C   UNL     1      44.691 -20.417   4.859  1.00  0.00     0.016 C 
ENDBRANCH  20  23
ENDBRANCH   1  17
TORSDOF 4
ENDMDL
MODEL 9
REMARK VINA RESULT:      -7.3      3.758      4.577
REMARK  4 active torsions:
REMARK  status: ('A' for Active; 'I' for Inactive)
REMARK    1  A    between atoms: C_2  and  C_3 
REMARK    2  A    between atoms: C_6  and  C_7 
REMARK       I    between atoms: C_7  and  N_8 
REMARK    3  A    between atoms: N_8  and  C_9 
REMARK    4  A    between atoms: C_11  and  C_12 
ROOT
HETATM    1  C   UNL     1      41.197 -15.141   4.072  1.00  0.00     0.257 C 
HETATM    2  N   UNL     1      42.527 -15.528   4.053  1.00  0.00    -0.323 N 
HETATM    3  O   UNL     1      40.284 -15.629   3.416  1.00  0.00    -0.267 OA
HETATM    4  H   UNL     1      43.189 -14.927   4.525  1.00  0.00     0.169 HD
ENDROOT
BRANCH   2   5
HETATM    5  C   UNL     1      43.091 -16.622   3.361  1.00  0.00     0.035 A 
HETATM    6  C   UNL     1      43.422 -17.841   3.962  1.00  0.00     0.042 A 
HETATM    7  C   UNL     1      43.985 -18.894   3.217  1.00  0.00    -0.021 A 
HETATM    8  C   UNL     1      44.221 -18.696   1.850  1.00  0.00     0.012 A 
HETATM    9  C   UNL     1      43.904 -17.481   1.243  1.00  0.00     0.003 A 
HETATM   10  C   UNL     1      43.343 -16.450   1.996  1.00  0.00     0.029 A 
BRANCH   7  11
HETATM   11  C   UNL     1      44.327 -20.165   3.841  1.00  0.00     0.010 A 
HETATM   12  C   UNL     1      44.494 -21.457   3.285  1.00  0.00     0.152 A 
HETATM   13  N   UNL     1      44.802 -22.384   4.197  1.00  0.00    -0.187 NA
HETATM   14  N   UNL     1      44.837 -21.690   5.345  1.00  0.00    -0.289 N 
HETATM   15  H   UNL     1      45.057 -22.186   6.202  1.00  0.00     0.188 HD
HETATM   16  C   UNL     1      44.556 -20.364   5.188  1.00  0.00     0.123 A 
ENDBRANCH   7  11
ENDBRANCH   2   5
BRANCH   1  17
HETATM   17  C   UNL     1      40.886 -13.991   4.955  1.00  0.00     0.049 A 
HETATM   18  C   UNL     1      41.927 -13.203   5.422  1.00  0.00     0.134 A 
HETATM   19  N   UNL     1      41.758 -12.128   6.233  1.00  0.00    -0.264 NA
HETATM   20  C   UNL     1      40.492 -11.804   6.595  1.00  0.00     0.037 A 
HETATM   21  C   UNL     1      39.388 -12.527   6.146  1.00  0.00     0.028 A 
HETATM   22  C   UNL     1      39.586 -13.631   5.316  1.00  0.00     0.020 A 
BRANCH  20  23
HETATM   23  C   UNL     1      40.296 -10.575   7.464  1.00  0.00     0.029 C 
HETATM   24  C   UNL     1      39.580 -10.956   8.760  1.00  0.00     0.016 C 
HETATM   25  C   UNL     1      39.532  -9.473   6.726  1.00  0.00     0.016 C 
ENDBRANCH  20  23
ENDBRANCH   1  17
TORSDOF 4
ENDMDL
MODEL 10
REMARK VINA RESULT:      -7.1      6.972     10.714
REMARK  4 active torsions:
REMARK  status: ('A' for Active; 'I' for Inactive)
REMARK    1  A    between atoms: C_2  and  C_3 
REMARK    2  A    between atoms: C_6  and  C_7 
REMARK       I    between atoms: C_7  and  N_8 
REMARK    3  A    between atoms: N_8  and  C_9 
REMARK    4  A    between atoms: C_11  and  C_12 
ROOT
HETATM    1  C   UNL     1      41.387 -16.092   0.778  1.00  0.00     0.257 C 
HETATM    2  N   UNL     1      42.024 -15.747  -0.402  1.00  0.00    -0.323 N 
HETATM    3  O   UNL     1      40.292 -15.699   1.160  1.00  0.00    -0.267 OA
HETATM    4  H   UNL     1      42.991 -16.024  -0.502  1.00  0.00     0.169 HD
ENDROOT
BRANCH   2   5
HETATM    5  C   UNL     1      41.509 -14.960  -1.455  1.00  0.00     0.035 A 
HETATM    6  C   UNL     1      41.756 -13.591  -1.601  1.00  0.00     0.042 A 
HETATM    7  C   UNL     1      41.210 -12.861  -2.673  1.00  0.00    -0.021 A 
HETATM    8  C   UNL     1      40.398 -13.532  -3.597  1.00  0.00     0.012 A 
HETATM    9  C   UNL     1      40.138 -14.895  -3.456  1.00  0.00     0.003 A 
HETATM   10  C   UNL     1      40.690 -15.604  -2.390  1.00  0.00     0.029 A 
BRANCH   7  11
HETATM   11  C   UNL     1      41.468 -11.435  -2.828  1.00  0.00     0.010 A 
HETATM   12  C   UNL     1      42.674 -10.695  -2.736  1.00  0.00     0.152 A 
HETATM   13  N   UNL     1      42.500  -9.385  -2.933  1.00  0.00    -0.187 NA
HETATM   14  N   UNL     1      41.180  -9.277  -3.155  1.00  0.00    -0.289 N 
HETATM   15  H   UNL     1      40.796  -8.356  -3.337  1.00  0.00     0.188 HD
HETATM   16  C   UNL     1      40.520 -10.470  -3.099  1.00  0.00     0.123 A 
ENDBRANCH   7  11
ENDBRANCH   2   5
BRANCH   1  17
HETATM   17  C   UNL     1      42.152 -16.999   1.668  1.00  0.00     0.049 A 
HETATM   18  C   UNL     1      41.725 -17.173   2.976  1.00  0.00     0.134 A 
HETATM   19  N   UNL     1      42.345 -17.979   3.874  1.00  0.00    -0.264 NA
HETATM   20  C   UNL     1      43.441 -18.660   3.459  1.00  0.00     0.037 A 
HETATM   21  C   UNL     1      43.919 -18.564   2.152  1.00  0.00     0.028 A 
HETATM   22  C   UNL     1      43.267 -17.727   1.247  1.00  0.00     0.020 A 
BRANCH  20  23
HETATM   23  C   UNL     1      44.110 -19.597   4.447  1.00  0.00     0.029 C 
HETATM   24  C   UNL     1      44.918 -18.796   5.469  1.00  0.00     0.016 C 
HETATM   25  C   UNL     1      44.997 -20.628   3.744  1.00  0.00     0.016 C 
ENDBRANCH  20  23
ENDBRANCH   1  17
TORSDOF 4
ENDMDL
