MODEL 1
REMARK VINA RESULT:      -7.4      0.000      0.000
REMARK  4 active torsions:
REMARK  status: ('A' for Active; 'I' for Inactive)
REMARK    1  A    between atoms: C_2  and  N_3 
REMARK       I    between atoms: N_3  and  C_4 
REMARK    2  A    between atoms: C_4  and  C_5 
REMARK    3  A    between atoms: C_5  and  N_6 
REMARK    4  A    between atoms: N_6  and  C_7 
ROOT
HETATM    1  C   UNL     1      43.141 -16.798   2.316  1.00  0.00     0.022 A 
HETATM    2  C   UNL     1      43.649 -18.005   2.888  1.00  0.00     0.012 A 
HETATM    3  C   UNL     1      43.856 -18.062   4.293  1.00  0.00     0.045 A 
HETATM    4  C   UNL     1      44.308 -19.232   4.921  1.00  0.00     0.054 A 
HETATM    5  C   UNL     1      44.576 -20.365   4.161  1.00  0.00     0.036 A 
HETATM    6 CL   UNL     1      45.121 -21.797   4.936  1.00  0.00    -0.084 Cl
HETATM    7  C   UNL     1      44.411 -20.340   2.782  1.00  0.00     0.025 A 
HETATM    8  C   UNL     1      43.958 -19.176   2.153  1.00  0.00     0.017 A 
HETATM    9  N   UNL     1      43.616 -16.967   5.038  1.00  0.00    -0.365 N 
HETATM   10  H   UNL     1      43.773 -17.015   6.046  1.00  0.00     0.165 HD
HETATM   11  C   UNL     1      43.202 -15.807   4.520  1.00  0.00     0.090 A 
HETATM   12  C   UNL     1      42.968 -15.695   3.160  1.00  0.00     0.041 A 
ENDROOT
BRANCH   1  13
HETATM   13  N   UNL     1      42.956 -16.685   0.923  1.00  0.00    -0.283 NA
HETATM   14  H   UNL     1      43.521 -17.355   0.403  1.00  0.00     0.128 HD
BRANCH  13  15
HETATM   15  C   UNL     1      41.574 -16.715   0.376  1.00  0.00     0.195 C 
BRANCH  15  16
HETATM   16  C   UNL     1      41.289 -15.567  -0.596  1.00  0.00     0.231 C 
HETATM   17  N   UNL     1      40.596 -15.948  -1.724  1.00  0.00    -0.352 N 
HETATM   18  H   UNL     1      40.455 -16.948  -1.834  1.00  0.00     0.163 HD
HETATM   19  O   UNL     1      41.642 -14.418  -0.348  1.00  0.00    -0.272 OA
BRANCH  17  20
HETATM   20  C   UNL     1      40.088 -15.038  -2.761  1.00  0.00     0.022 C 
HETATM   21  C   UNL     1      41.226 -14.217  -3.386  1.00  0.00     0.037 C 
HETATM   22  C   UNL     1      39.020 -14.099  -2.176  1.00  0.00     0.037 C 
HETATM   23  C   UNL     1      39.437 -15.887  -3.867  1.00  0.00     0.037 C 
ENDBRANCH  17  20
ENDBRANCH  15  16
ENDBRANCH  13  15
ENDBRANCH   1  13
TORSDOF 4
ENDMDL
MODEL 2
REMARK VINA RESULT:      -7.3      5.041      8.415
REMARK  4 active torsions:
REMARK  status: ('A' for Active; 'I' for Inactive)
REMARK    1  A    between atoms: C_2  and  N_3 
REMARK       I    between atoms: N_3  and  C_4 
REMARK    2  A    between atoms: C_4  and  C_5 
REMARK    3  A    between atoms: C_5  and  N_6 
REMARK    4  A    between atoms: N_6  and  C_7 
ROOT
HETATM    1  C   UNL     1      43.160 -15.562   6.345  1.00  0.00     0.022 A 
HETATM    2  C   UNL     1      43.614 -16.825   5.854  1.00  0.00     0.012 A 
HETATM    3  C   UNL     1      42.893 -17.449   4.800  1.00  0.00     0.045 A 
HETATM    4  C   UNL     1      43.315 -18.666   4.244  1.00  0.00     0.054 A 
HETATM    5  C   UNL     1      44.455 -19.293   4.735  1.00  0.00     0.036 A 
HETATM    6 CL   UNL     1      44.970 -20.778   4.044  1.00  0.00    -0.084 Cl
HETATM    7  C   UNL     1      45.171 -18.727   5.781  1.00  0.00     0.025 A 
HETATM    8  C   UNL     1      44.755 -17.512   6.337  1.00  0.00     0.017 A 
HETATM    9  N   UNL     1      41.779 -16.861   4.327  1.00  0.00    -0.365 N 
HETATM   10  H   UNL     1      41.265 -17.319   3.574  1.00  0.00     0.165 HD
HETATM   11  C   UNL     1      41.298 -15.713   4.811  1.00  0.00     0.090 A 
HETATM   12  C   UNL     1      41.964 -15.050   5.828  1.00  0.00     0.041 A 
ENDROOT
BRANCH   1  13
HETATM   13  N   UNL     1      43.823 -14.926   7.414  1.00  0.00    -0.283 NA
HETATM   14  H   UNL     1      44.487 -15.542   7.879  1.00  0.00     0.128 HD
BRANCH  13  15
HETATM   15  C   UNL     1      44.490 -13.619   7.171  1.00  0.00     0.195 C 
BRANCH  15  16
HETATM   16  C   UNL     1      44.845 -12.878   8.463  1.00  0.00     0.231 C 
HETATM   17  N   UNL     1      43.772 -12.262   9.067  1.00  0.00    -0.352 N 
HETATM   18  H   UNL     1      42.905 -12.274   8.539  1.00  0.00     0.163 HD
HETATM   19  O   UNL     1      45.991 -12.874   8.901  1.00  0.00    -0.272 OA
BRANCH  17  20
HETATM   20  C   UNL     1      43.801 -11.585  10.372  1.00  0.00     0.022 C 
HETATM   21  C   UNL     1      44.813 -10.428  10.375  1.00  0.00     0.037 C 
HETATM   22  C   UNL     1      44.140 -12.584  11.490  1.00  0.00     0.037 C 
HETATM   23  C   UNL     1      42.401 -11.006  10.643  1.00  0.00     0.037 C 
ENDBRANCH  17  20
ENDBRANCH  15  16
ENDBRANCH  13  15
ENDBRANCH   1  13
TORSDOF 4
ENDMDL
MODEL 3
REMARK VINA RESULT:      -7.3      2.525      3.461
REMARK  4 active torsions:
REMARK  status: ('A' for Active; 'I' for Inactive)
REMARK    1  A    between atoms: C_2  and  N_3 
REMARK       I    between atoms: N_3  and  C_4 
REMARK    2  A    between atoms: C_4  and  C_5 
REMARK    3  A    between atoms: C_5  and  N_6 
REMARK    4  A    between atoms: N_6  and  C_7 
ROOT
HETATM    1  C   UNL     1      43.420 -17.090   5.022  1.00  0.00     0.022 A 
HETATM    2  C   UNL     1      43.576 -18.190   4.124  1.00  0.00     0.012 A 
HETATM    3  C   UNL     1      44.435 -19.260   4.495  1.00  0.00     0.045 A 
HETATM    4  C   UNL     1      44.594 -20.389   3.677  1.00  0.00     0.054 A 
HETATM    5  C   UNL     1      43.912 -20.469   2.467  1.00  0.00     0.036 A 
HETATM    6 CL   UNL     1      44.105 -21.857   1.475  1.00  0.00    -0.084 Cl
HETATM    7  C   UNL     1      43.084 -19.432   2.059  1.00  0.00     0.025 A 
HETATM    8  C   UNL     1      42.921 -18.306   2.873  1.00  0.00     0.017 A 
HETATM    9  N   UNL     1      45.113 -19.187   5.655  1.00  0.00    -0.365 N 
HETATM   10  H   UNL     1      45.732 -19.957   5.909  1.00  0.00     0.165 HD
HETATM   11  C   UNL     1      45.034 -18.142   6.482  1.00  0.00     0.090 A 
HETATM   12  C   UNL     1      44.203 -17.076   6.183  1.00  0.00     0.041 A 
ENDROOT
BRANCH   1  13
HETATM   13  N   UNL     1      42.607 -15.990   4.679  1.00  0.00    -0.283 NA
HETATM   14  H   UNL     1      41.977 -15.725   5.433  1.00  0.00     0.128 HD
BRANCH  13  15
HETATM   15  C   UNL     1      43.250 -14.758   4.151  1.00  0.00     0.195 C 
BRANCH  15  16
HETATM   16  C   UNL     1      42.499 -14.151   2.963  1.00  0.00     0.231 C 
HETATM   17  N   UNL     1      41.279 -14.739   2.713  1.00  0.00    -0.352 N 
HETATM   18  H   UNL     1      41.070 -15.567   3.263  1.00  0.00     0.163 HD
HETATM   19  O   UNL     1      42.965 -13.210   2.327  1.00  0.00    -0.272 OA
BRANCH  17  20
HETATM   20  C   UNL     1      40.300 -14.282   1.715  1.00  0.00     0.022 C 
HETATM   21  C   UNL     1      40.838 -14.462   0.287  1.00  0.00     0.037 C 
HETATM   22  C   UNL     1      39.931 -12.810   1.958  1.00  0.00     0.037 C 
HETATM   23  C   UNL     1      39.028 -15.135   1.865  1.00  0.00     0.037 C 
ENDBRANCH  17  20
ENDBRANCH  15  16
ENDBRANCH  13  15
ENDBRANCH   1  13
TORSDOF 4
ENDMDL
MODEL 4
REMARK VINA RESULT:      -7.1      1.353      1.802
REMARK  4 active torsions:
REMARK  status: ('A' for Active; 'I' for Inactive)
REMARK    1  A    between atoms: C_2  and  N_3 
REMARK       I    between atoms: N_3  and  C_4 
REMARK    2  A    between atoms: C_4  and  C_5 
REMARK    3  A    between atoms: C_5  and  N_6 
REMARK    4  A    between atoms: N_6  and  C_7 
ROOT
HETATM    1  C   UNL     1      43.184 -16.767   2.332  1.00  0.00     0.022 A 
HETATM    2  C   UNL     1      43.685 -17.977   2.903  1.00  0.00     0.012 A 
HETATM    3  C   UNL     1      43.862 -18.047   4.312  1.00  0.00     0.045 A 
HETATM    4  C   UNL     1      44.306 -19.222   4.937  1.00  0.00     0.054 A 
HETATM    5  C   UNL     1      44.593 -20.347   4.171  1.00  0.00     0.036 A 
HETATM    6 CL   UNL     1      45.128 -21.785   4.943  1.00  0.00    -0.084 Cl
HETATM    7  C   UNL     1      44.457 -20.309   2.790  1.00  0.00     0.025 A 
HETATM    8  C   UNL     1      44.012 -19.140   2.163  1.00  0.00     0.017 A 
HETATM    9  N   UNL     1      43.604 -16.960   5.062  1.00  0.00    -0.365 N 
HETATM   10  H   UNL     1      43.740 -17.018   6.072  1.00  0.00     0.165 HD
HETATM   11  C   UNL     1      43.196 -15.797   4.547  1.00  0.00     0.090 A 
HETATM   12  C   UNL     1      42.990 -15.672   3.184  1.00  0.00     0.041 A 
ENDROOT
BRANCH   1  13
HETATM   13  N   UNL     1      43.028 -16.641   0.937  1.00  0.00    -0.283 NA
HETATM   14  H   UNL     1      43.635 -17.275   0.421  1.00  0.00     0.128 HD
BRANCH  13  15
HETATM   15  C   UNL     1      41.662 -16.725   0.356  1.00  0.00     0.195 C 
BRANCH  15  16
HETATM   16  C   UNL     1      41.075 -15.357   0.000  1.00  0.00     0.231 C 
HETATM   17  N   UNL     1      39.758 -15.199   0.371  1.00  0.00    -0.352 N 
HETATM   18  H   UNL     1      39.301 -16.033   0.729  1.00  0.00     0.163 HD
HETATM   19  O   UNL     1      41.756 -14.494  -0.546  1.00  0.00    -0.272 OA
BRANCH  17  20
HETATM   20  C   UNL     1      38.984 -13.954   0.260  1.00  0.00     0.022 C 
HETATM   21  C   UNL     1      39.683 -12.799   0.995  1.00  0.00     0.037 C 
HETATM   22  C   UNL     1      37.565 -14.152   0.818  1.00  0.00     0.037 C 
HETATM   23  C   UNL     1      38.875 -13.587  -1.230  1.00  0.00     0.037 C 
ENDBRANCH  17  20
ENDBRANCH  15  16
ENDBRANCH  13  15
ENDBRANCH   1  13
TORSDOF 4
ENDMDL
MODEL 5
REMARK VINA RESULT:      -7.0      1.705      2.748
REMARK  4 active torsions:
REMARK  status: ('A' for Active; 'I' for Inactive)
REMARK    1  A    between atoms: C_2  and  N_3 
REMARK       I    between atoms: N_3  and  C_4 
REMARK    2  A    between atoms: C_4  and  C_5 
REMARK    3  A    between atoms: C_5  and  N_6 
REMARK    4  A    between atoms: N_6  and  C_7 
ROOT
HETATM    1  C   UNL     1      43.428 -17.659   1.800  1.00  0.00     0.022 A 
HETATM    2  C   UNL     1      43.459 -17.225   3.162  1.00  0.00     0.012 A 
HETATM    3  C   UNL     1      43.822 -18.159   4.170  1.00  0.00     0.045 A 
HETATM    4  C   UNL     1      43.915 -17.782   5.518  1.00  0.00     0.054 A 
HETATM    5  C   UNL     1      43.636 -16.472   5.891  1.00  0.00     0.036 A 
HETATM    6 CL   UNL     1      43.761 -16.016   7.542  1.00  0.00    -0.084 Cl
HETATM    7  C   UNL     1      43.253 -15.538   4.939  1.00  0.00     0.025 A 
HETATM    8  C   UNL     1      43.161 -15.909   3.593  1.00  0.00     0.017 A 
HETATM    9  N   UNL     1      44.078 -19.434   3.824  1.00  0.00    -0.365 N 
HETATM   10  H   UNL     1      44.332 -20.099   4.555  1.00  0.00     0.165 HD
HETATM   11  C   UNL     1      43.995 -19.881   2.568  1.00  0.00     0.090 A 
HETATM   12  C   UNL     1      43.661 -19.015   1.540  1.00  0.00     0.041 A 
ENDROOT
BRANCH   1  13
HETATM   13  N   UNL     1      43.037 -16.776   0.773  1.00  0.00    -0.283 NA
HETATM   14  H   UNL     1      43.596 -16.895  -0.071  1.00  0.00     0.128 HD
BRANCH  13  15
HETATM   15  C   UNL     1      41.605 -16.718   0.381  1.00  0.00     0.195 C 
BRANCH  15  16
HETATM   16  C   UNL     1      41.292 -15.567  -0.580  1.00  0.00     0.231 C 
HETATM   17  N   UNL     1      40.623 -15.956  -1.718  1.00  0.00    -0.352 N 
HETATM   18  H   UNL     1      40.515 -16.958  -1.843  1.00  0.00     0.163 HD
HETATM   19  O   UNL     1      41.606 -14.411  -0.313  1.00  0.00    -0.272 OA
BRANCH  17  20
HETATM   20  C   UNL     1      40.095 -15.049  -2.749  1.00  0.00     0.022 C 
HETATM   21  C   UNL     1      41.219 -14.212  -3.380  1.00  0.00     0.037 C 
HETATM   22  C   UNL     1      39.021 -14.125  -2.154  1.00  0.00     0.037 C 
HETATM   23  C   UNL     1      39.447 -15.903  -3.853  1.00  0.00     0.037 C 
ENDBRANCH  17  20
ENDBRANCH  15  16
ENDBRANCH  13  15
ENDBRANCH   1  13
TORSDOF 4
ENDMDL
MODEL 6
REMARK VINA RESULT:      -7.0      1.375      1.427
REMARK  4 active torsions:
REMARK  status: ('A' for Active; 'I' for Inactive)
REMARK    1  A    between atoms: C_2  and  N_3 
REMARK       I    between atoms: N_3  and  C_4 
REMARK    2  A    between atoms: C_4  and  C_5 
REMARK    3  A    between atoms: C_5  and  N_6 
REMARK    4  A    between atoms: N_6  and  C_7 
ROOT
HETATM    1  C   UNL     1      41.181 -16.967   2.065  1.00  0.00     0.022 A 
HETATM    2  C   UNL     1      42.174 -17.842   2.604  1.00  0.00     0.012 A 
HETATM    3  C   UNL     1      42.502 -17.739   3.982  1.00  0.00     0.045 A 
HETATM    4  C   UNL     1      43.434 -18.600   4.580  1.00  0.00     0.054 A 
HETATM    5  C   UNL     1      44.068 -19.573   3.814  1.00  0.00     0.036 A 
HETATM    6 CL   UNL     1      45.202 -20.630   4.554  1.00  0.00    -0.084 Cl
HETATM    7  C   UNL     1      43.792 -19.688   2.459  1.00  0.00     0.025 A 
HETATM    8  C   UNL     1      42.861 -18.833   1.859  1.00  0.00     0.017 A 
HETATM    9  N   UNL     1      41.909 -16.791   4.731  1.00  0.00    -0.365 N 
HETATM   10  H   UNL     1      42.156 -16.720   5.718  1.00  0.00     0.165 HD
HETATM   11  C   UNL     1      41.025 -15.919   4.238  1.00  0.00     0.090 A 
HETATM   12  C   UNL     1      40.653 -15.980   2.906  1.00  0.00     0.041 A 
ENDROOT
BRANCH   1  13
HETATM   13  N   UNL     1      40.851 -17.010   0.695  1.00  0.00    -0.283 NA
HETATM   14  H   UNL     1      39.862 -16.828   0.530  1.00  0.00     0.128 HD
BRANCH  13  15
HETATM   15  C   UNL     1      41.643 -16.194  -0.262  1.00  0.00     0.195 C 
BRANCH  15  16
HETATM   16  C   UNL     1      40.839 -15.048  -0.882  1.00  0.00     0.231 C 
HETATM   17  N   UNL     1      40.127 -15.408  -2.004  1.00  0.00    -0.352 N 
HETATM   18  H   UNL     1      40.302 -16.347  -2.352  1.00  0.00     0.163 HD
HETATM   19  O   UNL     1      40.836 -13.927  -0.382  1.00  0.00    -0.272 OA
BRANCH  17  20
HETATM   20  C   UNL     1      39.181 -14.545  -2.728  1.00  0.00     0.022 C 
HETATM   21  C   UNL     1      39.909 -13.382  -3.420  1.00  0.00     0.037 C 
HETATM   22  C   UNL     1      38.108 -14.001  -1.771  1.00  0.00     0.037 C 
HETATM   23  C   UNL     1      38.487 -15.394  -3.808  1.00  0.00     0.037 C 
ENDBRANCH  17  20
ENDBRANCH  15  16
ENDBRANCH  13  15
ENDBRANCH   1  13
TORSDOF 4
ENDMDL
MODEL 7
REMARK VINA RESULT:      -6.9      2.696      6.260
REMARK  4 active torsions:
REMARK  status: ('A' for Active; 'I' for Inactive)
REMARK    1  A    between atoms: C_2  and  N_3 
REMARK       I    between atoms: N_3  and  C_4 
REMARK    2  A    between atoms: C_4  and  C_5 
REMARK    3  A    between atoms: C_5  and  N_6 
REMARK    4  A    between atoms: N_6  and  C_7 
ROOT
HETATM    1  C   UNL     1      41.146 -15.992   2.801  1.00  0.00     0.022 A 
HETATM    2  C   UNL     1      42.005 -17.133   2.747  1.00  0.00     0.012 A 
HETATM    3  C   UNL     1      42.728 -17.389   1.550  1.00  0.00     0.045 A 
HETATM    4  C   UNL     1      43.621 -18.466   1.451  1.00  0.00     0.054 A 
HETATM    5  C   UNL     1      43.803 -19.318   2.535  1.00  0.00     0.036 A 
HETATM    6 CL   UNL     1      44.904 -20.629   2.409  1.00  0.00    -0.084 Cl
HETATM    7  C   UNL     1      43.095 -19.115   3.712  1.00  0.00     0.025 A 
HETATM    8  C   UNL     1      42.205 -18.041   3.816  1.00  0.00     0.017 A 
HETATM    9  N   UNL     1      42.549 -16.583   0.488  1.00  0.00    -0.365 N 
HETATM   10  H   UNL     1      43.068 -16.778  -0.369  1.00  0.00     0.165 HD
HETATM   11  C   UNL     1      41.705 -15.547   0.491  1.00  0.00     0.090 A 
HETATM   12  C   UNL     1      40.984 -15.238   1.632  1.00  0.00     0.041 A 
ENDROOT
BRANCH   1  13
HETATM   13  N   UNL     1      40.382 -15.721   3.954  1.00  0.00    -0.283 NA
HETATM   14  H   UNL     1      40.259 -16.546   4.538  1.00  0.00     0.128 HD
BRANCH  13  15
HETATM   15  C   UNL     1      40.776 -14.585   4.827  1.00  0.00     0.195 C 
BRANCH  15  16
HETATM   16  C   UNL     1      42.211 -14.698   5.348  1.00  0.00     0.231 C 
HETATM   17  N   UNL     1      42.352 -15.554   6.417  1.00  0.00    -0.352 N 
HETATM   18  H   UNL     1      41.487 -15.919   6.804  1.00  0.00     0.163 HD
HETATM   19  O   UNL     1      43.132 -14.082   4.820  1.00  0.00    -0.272 OA
BRANCH  17  20
HETATM   20  C   UNL     1      43.628 -15.942   7.037  1.00  0.00     0.022 C 
HETATM   21  C   UNL     1      44.542 -16.654   6.028  1.00  0.00     0.037 C 
HETATM   22  C   UNL     1      43.382 -16.846   8.255  1.00  0.00     0.037 C 
HETATM   23  C   UNL     1      44.338 -14.662   7.516  1.00  0.00     0.037 C 
ENDBRANCH  17  20
ENDBRANCH  15  16
ENDBRANCH  13  15
ENDBRANCH   1  13
TORSDOF 4
ENDMDL
MODEL 8
REMARK VINA RESULT:      -6.8      4.258      5.134
REMARK  4 active torsions:
REMARK  status: ('A' for Active; 'I' for Inactive)
REMARK    1  A    between atoms: C_2  and  N_3 
REMARK       I    between atoms: N_3  and  C_4 
REMARK    2  A    between atoms: C_4  and  C_5 
REMARK    3  A    between atoms: C_5  and  N_6 
REMARK    4  A    between atoms: N_6  and  C_7 
ROOT
HETATM    1  C   UNL     1      43.365 -17.009   4.760  1.00  0.00     0.022 A 
HETATM    2  C   UNL     1      43.613 -18.169   3.963  1.00  0.00     0.012 A 
HETATM    3  C   UNL     1      44.426 -19.205   4.497  1.00  0.00     0.045 A 
HETATM    4  C   UNL     1      44.668 -20.388   3.783  1.00  0.00     0.054 A 
HETATM    5  C   UNL     1      44.117 -20.557   2.517  1.00  0.00     0.036 A 
HETATM    6 CL   UNL     1      44.411 -22.011   1.651  1.00  0.00    -0.084 Cl
HETATM    7  C   UNL     1      43.339 -19.556   1.951  1.00  0.00     0.025 A 
HETATM    8  C   UNL     1      43.093 -18.376   2.662  1.00  0.00     0.017 A 
HETATM    9  N   UNL     1      44.979 -19.047   5.714  1.00  0.00    -0.365 N 
HETATM   10  H   UNL     1      45.566 -19.794   6.086  1.00  0.00     0.165 HD
HETATM   11  C   UNL     1      44.815 -17.946   6.453  1.00  0.00     0.090 A 
HETATM   12  C   UNL     1      44.021 -16.909   5.993  1.00  0.00     0.041 A 
ENDROOT
BRANCH   1  13
HETATM   13  N   UNL     1      42.595 -15.941   4.256  1.00  0.00    -0.283 NA
HETATM   14  H   UNL     1      41.685 -15.873   4.709  1.00  0.00     0.128 HD
BRANCH  13  15
HETATM   15  C   UNL     1      43.195 -14.582   4.207  1.00  0.00     0.195 C 
BRANCH  15  16
HETATM   16  C   UNL     1      42.415 -13.551   5.027  1.00  0.00     0.231 C 
HETATM   17  N   UNL     1      41.275 -13.091   4.408  1.00  0.00    -0.352 N 
HETATM   18  H   UNL     1      41.144 -13.396   3.448  1.00  0.00     0.163 HD
HETATM   19  O   UNL     1      42.792 -13.208   6.143  1.00  0.00    -0.272 OA
BRANCH  17  20
HETATM   20  C   UNL     1      40.280 -12.192   5.011  1.00  0.00     0.022 C 
HETATM   21  C   UNL     1      40.899 -10.828   5.353  1.00  0.00     0.037 C 
HETATM   22  C   UNL     1      39.676 -12.828   6.274  1.00  0.00     0.037 C 
HETATM   23  C   UNL     1      39.151 -11.970   3.989  1.00  0.00     0.037 C 
ENDBRANCH  17  20
ENDBRANCH  15  16
ENDBRANCH  13  15
ENDBRANCH   1  13
TORSDOF 4
ENDMDL
MODEL 9
REMARK VINA RESULT:      -6.8      2.272      3.272
REMARK  4 active torsions:
REMARK  status: ('A' for Active; 'I' for Inactive)
REMARK    1  A    between atoms: C_2  and  N_3 
REMARK       I    between atoms: N_3  and  C_4 
REMARK    2  A    between atoms: C_4  and  C_5 
REMARK    3  A    between atoms: C_5  and  N_6 
REMARK    4  A    between atoms: N_6  and  C_7 
ROOT
HETATM    1  C   UNL     1      42.638 -18.259   2.894  1.00  0.00     0.022 A 
HETATM    2  C   UNL     1      42.981 -18.363   4.277  1.00  0.00     0.012 A 
HETATM    3  C   UNL     1      43.987 -19.289   4.665  1.00  0.00     0.045 A 
HETATM    4  C   UNL     1      44.400 -19.404   6.001  1.00  0.00     0.054 A 
HETATM    5  C   UNL     1      43.811 -18.609   6.979  1.00  0.00     0.036 A 
HETATM    6 CL   UNL     1      44.328 -18.749   8.610  1.00  0.00    -0.084 Cl
HETATM    7  C   UNL     1      42.808 -17.711   6.642  1.00  0.00     0.025 A 
HETATM    8  C   UNL     1      42.395 -17.591   5.311  1.00  0.00     0.017 A 
HETATM    9  N   UNL     1      44.552 -20.076   3.732  1.00  0.00    -0.365 N 
HETATM   10  H   UNL     1      45.269 -20.743   4.021  1.00  0.00     0.165 HD
HETATM   11  C   UNL     1      44.205 -20.044   2.442  1.00  0.00     0.090 A 
HETATM   12  C   UNL     1      43.243 -19.152   2.000  1.00  0.00     0.041 A 
ENDROOT
BRANCH   1  13
HETATM   13  N   UNL     1      41.621 -17.380   2.468  1.00  0.00    -0.283 NA
HETATM   14  H   UNL     1      41.726 -16.448   2.865  1.00  0.00     0.128 HD
BRANCH  13  15
HETATM   15  C   UNL     1      41.352 -17.242   1.013  1.00  0.00     0.195 C 
BRANCH  15  16
HETATM   16  C   UNL     1      41.034 -15.803   0.596  1.00  0.00     0.231 C 
HETATM   17  N   UNL     1      39.719 -15.443   0.789  1.00  0.00    -0.352 N 
HETATM   18  H   UNL     1      39.097 -16.193   1.075  1.00  0.00     0.163 HD
HETATM   19  O   UNL     1      41.905 -15.061   0.153  1.00  0.00    -0.272 OA
BRANCH  17  20
HETATM   20  C   UNL     1      39.166 -14.095   0.589  1.00  0.00     0.022 C 
HETATM   21  C   UNL     1      39.322 -13.642  -0.871  1.00  0.00     0.037 C 
HETATM   22  C   UNL     1      39.848 -13.088   1.529  1.00  0.00     0.037 C 
HETATM   23  C   UNL     1      37.665 -14.138   0.926  1.00  0.00     0.037 C 
ENDBRANCH  17  20
ENDBRANCH  15  16
ENDBRANCH  13  15
ENDBRANCH   1  13
TORSDOF 4
ENDMDL
MODEL 10
REMARK VINA RESULT:      -6.7      2.515      3.540
REMARK  4 active torsions:
REMARK  status: ('A' for Active; 'I' for Inactive)
REMARK    1  A    between atoms: C_2  and  N_3 
REMARK       I    between atoms: N_3  and  C_4 
REMARK    2  A    between atoms: C_4  and  C_5 
REMARK    3  A    between atoms: C_5  and  N_6 
REMARK    4  A    between atoms: N_6  and  C_7 
ROOT
HETATM    1  C   UNL     1      43.247 -15.420   4.848  1.00  0.00     0.022 A 
HETATM    2  C   UNL     1      43.400 -16.617   4.083  1.00  0.00     0.012 A 
HETATM    3  C   UNL     1      43.201 -17.870   4.725  1.00  0.00     0.045 A 
HETATM    4  C   UNL     1      43.290 -19.078   4.018  1.00  0.00     0.054 A 
HETATM    5  C   UNL     1      43.592 -19.064   2.660  1.00  0.00     0.036 A 
HETATM    6 CL   UNL     1      43.692 -20.546   1.799  1.00  0.00    -0.084 Cl
HETATM    7  C   UNL     1      43.818 -17.862   2.004  1.00  0.00     0.025 A 
HETATM    8  C   UNL     1      43.728 -16.655   2.706  1.00  0.00     0.017 A 
HETATM    9  N   UNL     1      42.924 -17.898   6.042  1.00  0.00    -0.365 N 
HETATM   10  H   UNL     1      42.789 -18.802   6.495  1.00  0.00     0.165 HD
HETATM   11  C   UNL     1      42.839 -16.797   6.794  1.00  0.00     0.090 A 
HETATM   12  C   UNL     1      43.008 -15.547   6.222  1.00  0.00     0.041 A 
ENDROOT
BRANCH   1  13
HETATM   13  N   UNL     1      43.471 -14.158   4.261  1.00  0.00    -0.283 NA
HETATM   14  H   UNL     1      44.005 -14.224   3.397  1.00  0.00     0.128 HD
BRANCH  13  15
HETATM   15  C   UNL     1      42.312 -13.258   4.028  1.00  0.00     0.195 C 
BRANCH  15  16
HETATM   16  C   UNL     1      41.101 -13.980   3.430  1.00  0.00     0.231 C 
HETATM   17  N   UNL     1      41.255 -14.328   2.107  1.00  0.00    -0.352 N 
HETATM   18  H   UNL     1      42.092 -13.972   1.654  1.00  0.00     0.163 HD
HETATM   19  O   UNL     1      40.109 -14.230   4.108  1.00  0.00    -0.272 OA
BRANCH  17  20
HETATM   20  C   UNL     1      40.306 -15.130   1.320  1.00  0.00     0.022 C 
HETATM   21  C   UNL     1      38.946 -14.425   1.204  1.00  0.00     0.037 C 
HETATM   22  C   UNL     1      40.127 -16.522   1.948  1.00  0.00     0.037 C 
HETATM   23  C   UNL     1      40.884 -15.305  -0.096  1.00  0.00     0.037 C 
ENDBRANCH  17  20
ENDBRANCH  15  16
ENDBRANCH  13  15
ENDBRANCH   1  13
TORSDOF 4
ENDMDL
