MODEL 1
REMARK VINA RESULT:      -8.5      0.000      0.000
REMARK  5 active torsions:
REMARK  status: ('A' for Active; 'I' for Inactive)
REMARK    1  A    between atoms: C_4  and  C_5 
REMARK    2  A    between atoms: C_5  and  N_6 
REMARK       I    between atoms: N_6  and  C_7 
REMARK    3  A    between atoms: C_7  and  C_8 
REMARK    4  A    between atoms: C_11  and  N_12 
REMARK       I    between atoms: N_12  and  C_13 
REMARK    5  A    between atoms: C_13  and  C_14 
ROOT
HETATM    1  C   UNL     1      40.395 -14.614   5.253  1.00  0.00     0.032 A 
HETATM    2  C   UNL     1      40.703 -15.647   6.146  1.00  0.00     0.019 A 
HETATM    3  C   UNL     1      41.306 -16.825   5.685  1.00  0.00     0.030 A 
HETATM    4  C   UNL     1      41.603 -16.992   4.330  1.00  0.00     0.035 A 
HETATM    5  C   UNL     1      41.284 -15.961   3.438  1.00  0.00     0.030 A 
HETATM    6  C   UNL     1      40.682 -14.783   3.894  1.00  0.00     0.019 A 
ENDROOT
BRANCH   4   7
HETATM    7  N   UNL     1      42.185 -18.155   3.788  1.00  0.00    -0.323 N 
HETATM    8  C   UNL     1      43.484 -18.599   3.951  1.00  0.00     0.257 C 
HETATM    9  O   UNL     1      44.400 -18.004   4.507  1.00  0.00    -0.267 OA
HETATM   10  H   UNL     1      41.588 -18.706   3.184  1.00  0.00     0.169 HD
BRANCH   8  11
HETATM   11  C   UNL     1      43.786 -19.906   3.324  1.00  0.00     0.047 A 
HETATM   12  C   UNL     1      44.310 -21.000   4.039  1.00  0.00     0.027 A 
HETATM   13  C   UNL     1      44.525 -22.168   3.311  1.00  0.00     0.138 A 
HETATM   14  C   UNL     1      44.742 -21.278   5.371  1.00  0.00     0.033 A 
HETATM   15  N   UNL     1      45.025 -23.118   4.159  1.00  0.00    -0.350 N 
HETATM   16  N   UNL     1      44.304 -22.372   2.001  1.00  0.00    -0.242 NA
HETATM   17  H   UNL     1      45.268 -24.054   3.866  1.00  0.00     0.166 HD
HETATM   18  C   UNL     1      45.164 -22.590   5.416  1.00  0.00     0.090 A 
HETATM   19  C   UNL     1      43.837 -21.279   1.359  1.00  0.00     0.120 A 
HETATM   20  C   UNL     1      43.569 -20.054   1.948  1.00  0.00     0.037 A 
ENDBRANCH   8  11
ENDBRANCH   4   7
BRANCH   1  21
HETATM   21  C   UNL     1      39.738 -13.346   5.684  1.00  0.00     0.251 C 
HETATM   22  N   UNL     1      39.758 -13.062   7.031  1.00  0.00    -0.352 N 
HETATM   23  H   UNL     1      40.397 -13.560   7.635  1.00  0.00     0.163 HD
HETATM   24  O   UNL     1      39.235 -12.599   4.852  1.00  0.00    -0.268 OA
BRANCH  22  25
HETATM   25  C   UNL     1      39.258 -11.794   7.514  1.00  0.00     0.169 C 
BRANCH  25  26
HETATM   26  C   UNL     1      40.293 -11.180   8.398  1.00  0.00     0.000 A 
HETATM   27  S   UNL     1      41.809 -10.696   7.755  1.00  0.00    -0.105 SA
HETATM   28  C   UNL     1      42.352 -10.148   9.280  1.00  0.00     0.050 A 
HETATM   29  C   UNL     1      41.403 -10.324  10.262  1.00  0.00     0.008 A 
HETATM   30  C   UNL     1      40.215 -10.922   9.753  1.00  0.00     0.017 A 
ENDBRANCH  25  26
ENDBRANCH  22  25
ENDBRANCH   1  21
TORSDOF 5
ENDMDL
MODEL 2
REMARK VINA RESULT:      -8.4      1.645      2.077
REMARK  5 active torsions:
REMARK  status: ('A' for Active; 'I' for Inactive)
REMARK    1  A    between atoms: C_4  and  C_5 
REMARK    2  A    between atoms: C_5  and  N_6 
REMARK       I    between atoms: N_6  and  C_7 
REMARK    3  A    between atoms: C_7  and  C_8 
REMARK    4  A    between atoms: C_11  and  N_12 
REMARK       I    between atoms: N_12  and  C_13 
REMARK    5  A    between atoms: C_13  and  C_14 
ROOT
HETATM    1  C   UNL     1      42.110 -13.684   5.402  1.00  0.00     0.032 A 
HETATM    2  C   UNL     1      43.158 -13.755   4.478  1.00  0.00     0.019 A 
HETATM    3  C   UNL     1      43.503 -14.981   3.892  1.00  0.00     0.030 A 
HETATM    4  C   UNL     1      42.815 -16.150   4.225  1.00  0.00     0.035 A 
HETATM    5  C   UNL     1      41.773 -16.076   5.158  1.00  0.00     0.030 A 
HETATM    6  C   UNL     1      41.425 -14.855   5.745  1.00  0.00     0.019 A 
ENDROOT
BRANCH   4   7
HETATM    7  N   UNL     1      43.118 -17.421   3.699  1.00  0.00    -0.323 N 
HETATM    8  C   UNL     1      43.980 -18.365   4.226  1.00  0.00     0.257 C 
HETATM    9  O   UNL     1      44.722 -18.225   5.191  1.00  0.00    -0.267 OA
HETATM   10  H   UNL     1      42.678 -17.649   2.816  1.00  0.00     0.169 HD
BRANCH   8  11
HETATM   11  C   UNL     1      44.034 -19.649   3.490  1.00  0.00     0.047 A 
HETATM   12  C   UNL     1      44.448 -20.859   4.081  1.00  0.00     0.027 A 
HETATM   13  C   UNL     1      44.429 -21.985   3.261  1.00  0.00     0.138 A 
HETATM   14  C   UNL     1      44.943 -21.298   5.345  1.00  0.00     0.033 A 
HETATM   15  N   UNL     1      44.851 -23.059   3.995  1.00  0.00    -0.350 N 
HETATM   16  N   UNL     1      44.073 -22.053   1.966  1.00  0.00    -0.242 NA
HETATM   17  H   UNL     1      44.930 -23.994   3.621  1.00  0.00     0.166 HD
HETATM   18  C   UNL     1      45.169 -22.655   5.265  1.00  0.00     0.090 A 
HETATM   19  C   UNL     1      43.721 -20.859   1.444  1.00  0.00     0.120 A 
HETATM   20  C   UNL     1      43.685 -19.658   2.133  1.00  0.00     0.037 A 
ENDBRANCH   8  11
ENDBRANCH   4   7
BRANCH   1  21
HETATM   21  C   UNL     1      41.710 -12.411   6.069  1.00  0.00     0.251 C 
HETATM   22  N   UNL     1      42.336 -12.108   7.258  1.00  0.00    -0.352 N 
HETATM   23  H   UNL     1      43.183 -12.597   7.512  1.00  0.00     0.163 HD
HETATM   24  O   UNL     1      40.880 -11.675   5.546  1.00  0.00    -0.268 OA
BRANCH  22  25
HETATM   25  C   UNL     1      42.100 -10.835   7.899  1.00  0.00     0.169 C 
BRANCH  25  26
HETATM   26  C   UNL     1      42.936 -10.763   9.135  1.00  0.00     0.000 A 
HETATM   27  S   UNL     1      42.349  -9.963  10.535  1.00  0.00    -0.105 SA
HETATM   28  C   UNL     1      43.778 -10.305  11.407  1.00  0.00     0.050 A 
HETATM   29  C   UNL     1      44.686 -11.016  10.655  1.00  0.00     0.008 A 
HETATM   30  C   UNL     1      44.201 -11.279   9.343  1.00  0.00     0.017 A 
ENDBRANCH  25  26
ENDBRANCH  22  25
ENDBRANCH   1  21
TORSDOF 5
ENDMDL
MODEL 3
REMARK VINA RESULT:      -8.0      5.385      7.306
REMARK  5 active torsions:
REMARK  status: ('A' for Active; 'I' for Inactive)
REMARK    1  A    between atoms: C_4  and  C_5 
REMARK    2  A    between atoms: C_5  and  N_6 
REMARK       I    between atoms: N_6  and  C_7 
REMARK    3  A    between atoms: C_7  and  C_8 
REMARK    4  A    between atoms: C_11  and  N_12 
REMARK       I    between atoms: N_12  and  C_13 
REMARK    5  A    between atoms: C_13  and  C_14 
ROOT
HETATM    1  C   UNL     1      40.031 -14.610  -0.137  1.00  0.00     0.032 A 
HETATM    2  C   UNL     1      39.702 -14.727   1.218  1.00  0.00     0.019 A 
HETATM    3  C   UNL     1      40.375 -15.646   2.034  1.00  0.00     0.030 A 
HETATM    4  C   UNL     1      41.377 -16.465   1.509  1.00  0.00     0.035 A 
HETATM    5  C   UNL     1      41.698 -16.352   0.150  1.00  0.00     0.030 A 
HETATM    6  C   UNL     1      41.028 -15.436  -0.668  1.00  0.00     0.019 A 
ENDROOT
BRANCH   4   7
HETATM    7  N   UNL     1      42.081 -17.429   2.258  1.00  0.00    -0.323 N 
HETATM    8  C   UNL     1      43.450 -17.536   2.414  1.00  0.00     0.257 C 
HETATM    9  O   UNL     1      44.309 -16.879   1.839  1.00  0.00    -0.267 OA
HETATM   10  H   UNL     1      41.515 -18.141   2.702  1.00  0.00     0.169 HD
BRANCH   8  11
HETATM   11  C   UNL     1      43.897 -18.609   3.333  1.00  0.00     0.047 A 
HETATM   12  C   UNL     1      44.044 -19.952   2.934  1.00  0.00     0.027 A 
HETATM   13  C   UNL     1      44.488 -20.841   3.909  1.00  0.00     0.138 A 
HETATM   14  C   UNL     1      43.831 -20.730   1.756  1.00  0.00     0.033 A 
HETATM   15  N   UNL     1      44.579 -22.086   3.350  1.00  0.00    -0.350 N 
HETATM   16  N   UNL     1      44.782 -20.573   5.194  1.00  0.00    -0.242 NA
HETATM   17  H   UNL     1      44.875 -22.906   3.858  1.00  0.00     0.166 HD
HETATM   18  C   UNL     1      44.180 -22.034   2.039  1.00  0.00     0.090 A 
HETATM   19  C   UNL     1      44.587 -19.278   5.529  1.00  0.00     0.120 A 
HETATM   20  C   UNL     1      44.157 -18.281   4.669  1.00  0.00     0.037 A 
ENDBRANCH   8  11
ENDBRANCH   4   7
BRANCH   1  21
HETATM   21  C   UNL     1      39.337 -13.661  -1.055  1.00  0.00     0.251 C 
HETATM   22  N   UNL     1      40.001 -13.316  -2.212  1.00  0.00    -0.352 N 
HETATM   23  H   UNL     1      40.786 -13.872  -2.518  1.00  0.00     0.163 HD
HETATM   24  O   UNL     1      38.216 -13.246  -0.780  1.00  0.00    -0.268 OA
BRANCH  22  25
HETATM   25  C   UNL     1      39.344 -12.506  -3.212  1.00  0.00     0.169 C 
BRANCH  25  26
HETATM   26  C   UNL     1      40.383 -11.731  -3.954  1.00  0.00     0.000 A 
HETATM   27  S   UNL     1      39.930 -10.432  -4.980  1.00  0.00    -0.105 SA
HETATM   28  C   UNL     1      41.556 -10.116  -5.403  1.00  0.00     0.050 A 
HETATM   29  C   UNL     1      42.430 -10.976  -4.777  1.00  0.00     0.008 A 
HETATM   30  C   UNL     1      41.753 -11.910  -3.942  1.00  0.00     0.017 A 
ENDBRANCH  25  26
ENDBRANCH  22  25
ENDBRANCH   1  21
TORSDOF 5
ENDMDL
MODEL 4
REMARK VINA RESULT:      -8.0      3.387      4.631
REMARK  5 active torsions:
REMARK  status: ('A' for Active; 'I' for Inactive)
REMARK    1  A    between atoms: C_4  and  C_5 
REMARK    2  A    between atoms: C_5  and  N_6 
REMARK       I    between atoms: N_6  and  C_7 
REMARK    3  A    between atoms: C_7  and  C_8 
REMARK    4  A    between atoms: C_11  and  N_12 
REMARK       I    between atoms: N_12  and  C_13 
REMARK    5  A    between atoms: C_13  and  C_14 
ROOT
HETATM    1  C   UNL     1      44.377 -12.243   8.232  1.00  0.00     0.032 A 
HETATM    2  C   UNL     1      43.170 -12.168   7.529  1.00  0.00     0.019 A 
HETATM    3  C   UNL     1      42.866 -13.112   6.539  1.00  0.00     0.030 A 
HETATM    4  C   UNL     1      43.764 -14.137   6.232  1.00  0.00     0.035 A 
HETATM    5  C   UNL     1      44.976 -14.203   6.930  1.00  0.00     0.030 A 
HETATM    6  C   UNL     1      45.283 -13.262   7.919  1.00  0.00     0.019 A 
ENDROOT
BRANCH   4   7
HETATM    7  N   UNL     1      43.542 -15.108   5.235  1.00  0.00    -0.323 N 
HETATM    8  C   UNL     1      43.141 -16.419   5.413  1.00  0.00     0.257 C 
HETATM    9  O   UNL     1      43.011 -17.009   6.479  1.00  0.00    -0.267 OA
HETATM   10  H   UNL     1      43.733 -14.815   4.285  1.00  0.00     0.169 HD
BRANCH   8  11
HETATM   11  C   UNL     1      42.910 -17.181   4.165  1.00  0.00     0.047 A 
HETATM   12  C   UNL     1      43.520 -18.423   3.897  1.00  0.00     0.027 A 
HETATM   13  C   UNL     1      43.190 -19.025   2.685  1.00  0.00     0.138 A 
HETATM   14  C   UNL     1      44.461 -19.292   4.528  1.00  0.00     0.033 A 
HETATM   15  N   UNL     1      43.862 -20.213   2.597  1.00  0.00    -0.350 N 
HETATM   16  N   UNL     1      42.367 -18.555   1.732  1.00  0.00    -0.242 NA
HETATM   17  H   UNL     1      43.792 -20.836   1.805  1.00  0.00     0.166 HD
HETATM   18  C   UNL     1      44.640 -20.388   3.711  1.00  0.00     0.090 A 
HETATM   19  C   UNL     1      41.841 -17.346   2.026  1.00  0.00     0.120 A 
HETATM   20  C   UNL     1      42.070 -16.631   3.189  1.00  0.00     0.037 A 
ENDBRANCH   8  11
ENDBRANCH   4   7
BRANCH   1  21
HETATM   21  C   UNL     1      44.760 -11.255   9.283  1.00  0.00     0.251 C 
HETATM   22  N   UNL     1      43.904 -11.123  10.353  1.00  0.00    -0.352 N 
HETATM   23  H   UNL     1      43.205 -11.833  10.522  1.00  0.00     0.163 HD
HETATM   24  O   UNL     1      45.807 -10.626   9.184  1.00  0.00    -0.268 OA
BRANCH  22  25
HETATM   25  C   UNL     1      44.266 -10.284  11.473  1.00  0.00     0.169 C 
BRANCH  25  26
HETATM   26  C   UNL     1      43.159 -10.326  12.475  1.00  0.00     0.000 A 
HETATM   27  S   UNL     1      41.676 -11.104  12.100  1.00  0.00    -0.105 SA
HETATM   28  C   UNL     1      41.020 -10.733  13.634  1.00  0.00     0.050 A 
HETATM   29  C   UNL     1      41.907 -10.034  14.421  1.00  0.00     0.008 A 
HETATM   30  C   UNL     1      43.141  -9.797  13.752  1.00  0.00     0.017 A 
ENDBRANCH  25  26
ENDBRANCH  22  25
ENDBRANCH   1  21
TORSDOF 5
ENDMDL
MODEL 5
REMARK VINA RESULT:      -8.0      5.155      7.335
REMARK  5 active torsions:
REMARK  status: ('A' for Active; 'I' for Inactive)
REMARK    1  A    between atoms: C_4  and  C_5 
REMARK    2  A    between atoms: C_5  and  N_6 
REMARK       I    between atoms: N_6  and  C_7 
REMARK    3  A    between atoms: C_7  and  C_8 
REMARK    4  A    between atoms: C_11  and  N_12 
REMARK       I    between atoms: N_12  and  C_13 
REMARK    5  A    between atoms: C_13  and  C_14 
ROOT
HETATM    1  C   UNL     1      40.024 -14.540   0.281  1.00  0.00     0.032 A 
HETATM    2  C   UNL     1      40.971 -15.304  -0.408  1.00  0.00     0.019 A 
HETATM    3  C   UNL     1      41.678 -16.320   0.251  1.00  0.00     0.030 A 
HETATM    4  C   UNL     1      41.454 -16.580   1.605  1.00  0.00     0.035 A 
HETATM    5  C   UNL     1      40.513 -15.806   2.295  1.00  0.00     0.030 A 
HETATM    6  C   UNL     1      39.806 -14.791   1.640  1.00  0.00     0.019 A 
ENDROOT
BRANCH   4   7
HETATM    7  N   UNL     1      42.141 -17.565   2.342  1.00  0.00    -0.323 N 
HETATM    8  C   UNL     1      43.507 -17.773   2.401  1.00  0.00     0.257 C 
HETATM    9  O   UNL     1      44.365 -17.207   1.734  1.00  0.00    -0.267 OA
HETATM   10  H   UNL     1      41.560 -18.213   2.860  1.00  0.00     0.169 HD
BRANCH   8  11
HETATM   11  C   UNL     1      43.942 -18.839   3.330  1.00  0.00     0.047 A 
HETATM   12  C   UNL     1      44.135 -20.177   2.932  1.00  0.00     0.027 A 
HETATM   13  C   UNL     1      44.562 -21.061   3.920  1.00  0.00     0.138 A 
HETATM   14  C   UNL     1      43.982 -20.954   1.744  1.00  0.00     0.033 A 
HETATM   15  N   UNL     1      44.701 -22.300   3.359  1.00  0.00    -0.350 N 
HETATM   16  N   UNL     1      44.802 -20.792   5.215  1.00  0.00    -0.242 NA
HETATM   17  H   UNL     1      44.996 -23.116   3.875  1.00  0.00     0.166 HD
HETATM   18  C   UNL     1      44.350 -22.251   2.035  1.00  0.00     0.090 A 
HETATM   19  C   UNL     1      44.566 -19.504   5.548  1.00  0.00     0.120 A 
HETATM   20  C   UNL     1      44.145 -18.513   4.677  1.00  0.00     0.037 A 
ENDBRANCH   8  11
ENDBRANCH   4   7
BRANCH   1  21
HETATM   21  C   UNL     1      39.257 -13.436  -0.365  1.00  0.00     0.251 C 
HETATM   22  N   UNL     1      39.543 -13.167  -1.685  1.00  0.00    -0.352 N 
HETATM   23  H   UNL     1      40.056 -13.846  -2.230  1.00  0.00     0.163 HD
HETATM   24  O   UNL     1      38.398 -12.831   0.268  1.00  0.00    -0.268 OA
BRANCH  22  25
HETATM   25  C   UNL     1      38.756 -12.203  -2.418  1.00  0.00     0.169 C 
BRANCH  25  26
HETATM   26  C   UNL     1      37.772 -12.939  -3.267  1.00  0.00     0.000 A 
HETATM   27  S   UNL     1      36.586 -12.082  -4.164  1.00  0.00    -0.105 SA
HETATM   28  C   UNL     1      35.931 -13.527  -4.799  1.00  0.00     0.050 A 
HETATM   29  C   UNL     1      36.598 -14.642  -4.344  1.00  0.00     0.008 A 
HETATM   30  C   UNL     1      37.660 -14.303  -3.459  1.00  0.00     0.017 A 
ENDBRANCH  25  26
ENDBRANCH  22  25
ENDBRANCH   1  21
TORSDOF 5
ENDMDL
MODEL 6
REMARK VINA RESULT:      -8.0      3.425      5.307
REMARK  5 active torsions:
REMARK  status: ('A' for Active; 'I' for Inactive)
REMARK    1  A    between atoms: C_4  and  C_5 
REMARK    2  A    between atoms: C_5  and  N_6 
REMARK       I    between atoms: N_6  and  C_7 
REMARK    3  A    between atoms: C_7  and  C_8 
REMARK    4  A    between atoms: C_11  and  N_12 
REMARK       I    between atoms: N_12  and  C_13 
REMARK    5  A    between atoms: C_13  and  C_14 
ROOT
HETATM    1  C   UNL     1      44.377 -12.263   8.212  1.00  0.00     0.032 A 
HETATM    2  C   UNL     1      43.167 -12.176   7.513  1.00  0.00     0.019 A 
HETATM    3  C   UNL     1      42.855 -13.111   6.518  1.00  0.00     0.030 A 
HETATM    4  C   UNL     1      43.747 -14.139   6.200  1.00  0.00     0.035 A 
HETATM    5  C   UNL     1      44.960 -14.217   6.894  1.00  0.00     0.030 A 
HETATM    6  C   UNL     1      45.276 -13.286   7.889  1.00  0.00     0.019 A 
ENDROOT
BRANCH   4   7
HETATM    7  N   UNL     1      43.516 -15.101   5.197  1.00  0.00    -0.323 N 
HETATM    8  C   UNL     1      42.959 -16.357   5.349  1.00  0.00     0.257 C 
HETATM    9  O   UNL     1      42.665 -16.908   6.403  1.00  0.00    -0.267 OA
HETATM   10  H   UNL     1      43.827 -14.850   4.266  1.00  0.00     0.169 HD
BRANCH   8  11
HETATM   11  C   UNL     1      42.766 -17.117   4.092  1.00  0.00     0.047 A 
HETATM   12  C   UNL     1      41.740 -16.832   3.171  1.00  0.00     0.027 A 
HETATM   13  C   UNL     1      41.699 -17.625   2.027  1.00  0.00     0.138 A 
HETATM   14  C   UNL     1      40.636 -15.932   3.067  1.00  0.00     0.033 A 
HETATM   15  N   UNL     1      40.653 -17.208   1.250  1.00  0.00    -0.350 N 
HETATM   16  N   UNL     1      42.517 -18.641   1.701  1.00  0.00    -0.242 NA
HETATM   17  H   UNL     1      40.412 -17.632   0.365  1.00  0.00     0.166 HD
HETATM   18  C   UNL     1      39.997 -16.179   1.871  1.00  0.00     0.090 A 
HETATM   19  C   UNL     1      43.458 -18.892   2.638  1.00  0.00     0.120 A 
HETATM   20  C   UNL     1      43.626 -18.188   3.819  1.00  0.00     0.037 A 
ENDBRANCH   8  11
ENDBRANCH   4   7
BRANCH   1  21
HETATM   21  C   UNL     1      44.768 -11.286   9.268  1.00  0.00     0.251 C 
HETATM   22  N   UNL     1      43.930 -11.176  10.356  1.00  0.00    -0.352 N 
HETATM   23  H   UNL     1      43.242 -11.895  10.527  1.00  0.00     0.163 HD
HETATM   24  O   UNL     1      45.807 -10.644   9.159  1.00  0.00    -0.268 OA
BRANCH  22  25
HETATM   25  C   UNL     1      44.304 -10.349  11.480  1.00  0.00     0.169 C 
BRANCH  25  26
HETATM   26  C   UNL     1      43.180 -10.347  12.464  1.00  0.00     0.000 A 
HETATM   27  S   UNL     1      41.688 -11.102  12.078  1.00  0.00    -0.105 SA
HETATM   28  C   UNL     1      41.013 -10.685  13.593  1.00  0.00     0.050 A 
HETATM   29  C   UNL     1      41.901  -9.988  14.380  1.00  0.00     0.008 A 
HETATM   30  C   UNL     1      43.152  -9.791  13.728  1.00  0.00     0.017 A 
ENDBRANCH  25  26
ENDBRANCH  22  25
ENDBRANCH   1  21
TORSDOF 5
ENDMDL
MODEL 7
REMARK VINA RESULT:      -7.9      5.207      7.140
REMARK  5 active torsions:
REMARK  status: ('A' for Active; 'I' for Inactive)
REMARK    1  A    between atoms: C_4  and  C_5 
REMARK    2  A    between atoms: C_5  and  N_6 
REMARK       I    between atoms: N_6  and  C_7 
REMARK    3  A    between atoms: C_7  and  C_8 
REMARK    4  A    between atoms: C_11  and  N_12 
REMARK       I    between atoms: N_12  and  C_13 
REMARK    5  A    between atoms: C_13  and  C_14 
ROOT
HETATM    1  C   UNL     1      40.150 -14.727   0.262  1.00  0.00     0.032 A 
HETATM    2  C   UNL     1      39.921 -15.122   1.585  1.00  0.00     0.019 A 
HETATM    3  C   UNL     1      40.562 -16.254   2.107  1.00  0.00     0.030 A 
HETATM    4  C   UNL     1      41.431 -17.010   1.316  1.00  0.00     0.035 A 
HETATM    5  C   UNL     1      41.650 -16.617  -0.010  1.00  0.00     0.030 A 
HETATM    6  C   UNL     1      41.012 -15.488  -0.535  1.00  0.00     0.019 A 
ENDROOT
BRANCH   4   7
HETATM    7  N   UNL     1      42.092 -18.172   1.760  1.00  0.00    -0.323 N 
HETATM    8  C   UNL     1      43.452 -18.350   1.936  1.00  0.00     0.257 C 
HETATM    9  O   UNL     1      44.342 -17.565   1.631  1.00  0.00    -0.267 OA
HETATM   10  H   UNL     1      41.501 -18.975   1.937  1.00  0.00     0.169 HD
BRANCH   8  11
HETATM   11  C   UNL     1      43.848 -19.663   2.496  1.00  0.00     0.047 A 
HETATM   12  C   UNL     1      44.100 -19.871   3.866  1.00  0.00     0.027 A 
HETATM   13  C   UNL     1      44.447 -21.166   4.241  1.00  0.00     0.138 A 
HETATM   14  C   UNL     1      44.138 -19.089   5.060  1.00  0.00     0.033 A 
HETATM   15  N   UNL     1      44.648 -21.185   5.594  1.00  0.00    -0.350 N 
HETATM   16  N   UNL     1      44.582 -22.243   3.448  1.00  0.00    -0.242 NA
HETATM   17  H   UNL     1      44.914 -22.013   6.107  1.00  0.00     0.166 HD
HETATM   18  C   UNL     1      44.464 -19.927   6.106  1.00  0.00     0.090 A 
HETATM   19  C   UNL     1      44.364 -21.977   2.141  1.00  0.00     0.120 A 
HETATM   20  C   UNL     1      44.007 -20.744   1.621  1.00  0.00     0.037 A 
ENDBRANCH   8  11
ENDBRANCH   4   7
BRANCH   1  21
HETATM   21  C   UNL     1      39.483 -13.542  -0.351  1.00  0.00     0.251 C 
HETATM   22  N   UNL     1      39.748 -13.297  -1.680  1.00  0.00    -0.352 N 
HETATM   23  H   UNL     1      40.164 -14.023  -2.246  1.00  0.00     0.163 HD
HETATM   24  O   UNL     1      38.718 -12.853   0.315  1.00  0.00    -0.268 OA
BRANCH  22  25
HETATM   25  C   UNL     1      39.042 -12.248  -2.380  1.00  0.00     0.169 C 
BRANCH  25  26
HETATM   26  C   UNL     1      37.983 -12.871  -3.228  1.00  0.00     0.000 A 
HETATM   27  S   UNL     1      36.810 -11.892  -4.010  1.00  0.00    -0.105 SA
HETATM   28  C   UNL     1      36.047 -13.254  -4.707  1.00  0.00     0.050 A 
HETATM   29  C   UNL     1      36.669 -14.431  -4.358  1.00  0.00     0.008 A 
HETATM   30  C   UNL     1      37.786 -14.211  -3.502  1.00  0.00     0.017 A 
ENDBRANCH  25  26
ENDBRANCH  22  25
ENDBRANCH   1  21
TORSDOF 5
ENDMDL
MODEL 8
REMARK VINA RESULT:      -7.8      5.599      9.881
REMARK  5 active torsions:
REMARK  status: ('A' for Active; 'I' for Inactive)
REMARK    1  A    between atoms: C_4  and  C_5 
REMARK    2  A    between atoms: C_5  and  N_6 
REMARK       I    between atoms: N_6  and  C_7 
REMARK    3  A    between atoms: C_7  and  C_8 
REMARK    4  A    between atoms: C_11  and  N_12 
REMARK       I    between atoms: N_12  and  C_13 
REMARK    5  A    between atoms: C_13  and  C_14 
ROOT
HETATM    1  C   UNL     1      41.732 -17.126   3.037  1.00  0.00     0.032 A 
HETATM    2  C   UNL     1      41.880 -17.366   1.667  1.00  0.00     0.019 A 
HETATM    3  C   UNL     1      41.177 -16.594   0.732  1.00  0.00     0.030 A 
HETATM    4  C   UNL     1      40.314 -15.578   1.151  1.00  0.00     0.035 A 
HETATM    5  C   UNL     1      40.161 -15.347   2.523  1.00  0.00     0.030 A 
HETATM    6  C   UNL     1      40.860 -16.116   3.460  1.00  0.00     0.019 A 
ENDROOT
BRANCH   4   7
HETATM    7  N   UNL     1      39.556 -14.777   0.275  1.00  0.00    -0.323 N 
HETATM    8  C   UNL     1      40.020 -13.793  -0.579  1.00  0.00     0.257 C 
HETATM    9  O   UNL     1      41.164 -13.361  -0.649  1.00  0.00    -0.267 OA
HETATM   10  H   UNL     1      38.554 -14.919   0.303  1.00  0.00     0.169 HD
BRANCH   8  11
HETATM   11  C   UNL     1      38.990 -13.172  -1.443  1.00  0.00     0.047 A 
HETATM   12  C   UNL     1      38.419 -13.827  -2.552  1.00  0.00     0.027 A 
HETATM   13  C   UNL     1      37.451 -13.117  -3.257  1.00  0.00     0.138 A 
HETATM   14  C   UNL     1      38.570 -15.073  -3.231  1.00  0.00     0.033 A 
HETATM   15  N   UNL     1      37.006 -13.900  -4.286  1.00  0.00    -0.350 N 
HETATM   16  N   UNL     1      37.003 -11.873  -3.013  1.00  0.00    -0.242 NA
HETATM   17  H   UNL     1      36.302 -13.605  -4.948  1.00  0.00     0.166 HD
HETATM   18  C   UNL     1      37.679 -15.094  -4.284  1.00  0.00     0.090 A 
HETATM   19  C   UNL     1      37.611 -11.281  -1.962  1.00  0.00     0.120 A 
HETATM   20  C   UNL     1      38.584 -11.861  -1.165  1.00  0.00     0.037 A 
ENDBRANCH   8  11
ENDBRANCH   4   7
BRANCH   1  21
HETATM   21  C   UNL     1      42.441 -17.927   4.076  1.00  0.00     0.251 C 
HETATM   22  N   UNL     1      43.761 -18.233   3.833  1.00  0.00    -0.352 N 
HETATM   23  H   UNL     1      44.265 -17.726   3.119  1.00  0.00     0.163 HD
HETATM   24  O   UNL     1      41.857 -18.261   5.101  1.00  0.00    -0.268 OA
BRANCH  22  25
HETATM   25  C   UNL     1      44.553 -18.894   4.846  1.00  0.00     0.169 C 
BRANCH  25  26
HETATM   26  C   UNL     1      44.606 -20.353   4.531  1.00  0.00     0.000 A 
HETATM   27  S   UNL     1      44.536 -20.893   2.904  1.00  0.00    -0.105 SA
HETATM   28  C   UNL     1      44.644 -22.532   3.377  1.00  0.00     0.050 A 
HETATM   29  C   UNL     1      44.735 -22.671   4.744  1.00  0.00     0.008 A 
HETATM   30  C   UNL     1      44.711 -21.413   5.411  1.00  0.00     0.017 A 
ENDBRANCH  25  26
ENDBRANCH  22  25
ENDBRANCH   1  21
TORSDOF 5
ENDMDL
MODEL 9
REMARK VINA RESULT:      -7.6      4.289      6.052
REMARK  5 active torsions:
REMARK  status: ('A' for Active; 'I' for Inactive)
REMARK    1  A    between atoms: C_4  and  C_5 
REMARK    2  A    between atoms: C_5  and  N_6 
REMARK       I    between atoms: N_6  and  C_7 
REMARK    3  A    between atoms: C_7  and  C_8 
REMARK    4  A    between atoms: C_11  and  N_12 
REMARK       I    between atoms: N_12  and  C_13 
REMARK    5  A    between atoms: C_13  and  C_14 
ROOT
HETATM    1  C   UNL     1      39.465 -14.010   2.462  1.00  0.00     0.032 A 
HETATM    2  C   UNL     1      40.183 -13.959   3.661  1.00  0.00     0.019 A 
HETATM    3  C   UNL     1      40.994 -15.034   4.048  1.00  0.00     0.030 A 
HETATM    4  C   UNL     1      41.093 -16.176   3.248  1.00  0.00     0.035 A 
HETATM    5  C   UNL     1      40.365 -16.228   2.054  1.00  0.00     0.030 A 
HETATM    6  C   UNL     1      39.554 -15.156   1.664  1.00  0.00     0.019 A 
ENDROOT
BRANCH   4   7
HETATM    7  N   UNL     1      41.867 -17.306   3.580  1.00  0.00    -0.323 N 
HETATM    8  C   UNL     1      43.177 -17.562   3.222  1.00  0.00     0.257 C 
HETATM    9  O   UNL     1      43.872 -16.903   2.458  1.00  0.00    -0.267 OA
HETATM   10  H   UNL     1      41.392 -18.024   4.113  1.00  0.00     0.169 HD
BRANCH   8  11
HETATM   11  C   UNL     1      43.754 -18.802   3.790  1.00  0.00     0.047 A 
HETATM   12  C   UNL     1      43.897 -19.993   3.052  1.00  0.00     0.027 A 
HETATM   13  C   UNL     1      44.472 -21.070   3.722  1.00  0.00     0.138 A 
HETATM   14  C   UNL     1      43.578 -20.465   1.743  1.00  0.00     0.033 A 
HETATM   15  N   UNL     1      44.537 -22.129   2.859  1.00  0.00    -0.350 N 
HETATM   16  N   UNL     1      44.898 -21.113   4.996  1.00  0.00    -0.242 NA
HETATM   17  H   UNL     1      44.913 -23.032   3.112  1.00  0.00     0.166 HD
HETATM   18  C   UNL     1      43.995 -21.776   1.651  1.00  0.00     0.090 A 
HETATM   19  C   UNL     1      44.703 -19.955   5.665  1.00  0.00     0.120 A 
HETATM   20  C   UNL     1      44.150 -18.802   5.133  1.00  0.00     0.037 A 
ENDBRANCH   8  11
ENDBRANCH   4   7
BRANCH   1  21
HETATM   21  C   UNL     1      38.573 -12.902   2.010  1.00  0.00     0.251 C 
HETATM   22  N   UNL     1      37.832 -13.125   0.870  1.00  0.00    -0.352 N 
HETATM   23  H   UNL     1      37.723 -14.069   0.525  1.00  0.00     0.163 HD
HETATM   24  O   UNL     1      38.504 -11.864   2.658  1.00  0.00    -0.268 OA
BRANCH  22  25
HETATM   25  C   UNL     1      36.851 -12.156   0.440  1.00  0.00     0.169 C 
BRANCH  25  26
HETATM   26  C   UNL     1      37.058 -11.883  -1.014  1.00  0.00     0.000 A 
HETATM   27  S   UNL     1      38.061 -12.908  -1.956  1.00  0.00    -0.105 SA
HETATM   28  C   UNL     1      37.786 -11.985  -3.368  1.00  0.00     0.050 A 
HETATM   29  C   UNL     1      36.947 -10.920  -3.134  1.00  0.00     0.008 A 
HETATM   30  C   UNL     1      36.528 -10.859  -1.775  1.00  0.00     0.017 A 
ENDBRANCH  25  26
ENDBRANCH  22  25
ENDBRANCH   1  21
TORSDOF 5
ENDMDL
MODEL 10
REMARK VINA RESULT:      -7.4      5.239     10.015
REMARK  5 active torsions:
REMARK  status: ('A' for Active; 'I' for Inactive)
REMARK    1  A    between atoms: C_4  and  C_5 
REMARK    2  A    between atoms: C_5  and  N_6 
REMARK       I    between atoms: N_6  and  C_7 
REMARK    3  A    between atoms: C_7  and  C_8 
REMARK    4  A    between atoms: C_11  and  N_12 
REMARK       I    between atoms: N_12  and  C_13 
REMARK    5  A    between atoms: C_13  and  C_14 
ROOT
HETATM    1  C   UNL     1      41.699 -17.086   3.165  1.00  0.00     0.032 A 
HETATM    2  C   UNL     1      41.803 -17.306   1.787  1.00  0.00     0.019 A 
HETATM    3  C   UNL     1      41.077 -16.514   0.887  1.00  0.00     0.030 A 
HETATM    4  C   UNL     1      40.234 -15.500   1.349  1.00  0.00     0.035 A 
HETATM    5  C   UNL     1      40.125 -15.290   2.729  1.00  0.00     0.030 A 
HETATM    6  C   UNL     1      40.847 -16.078   3.630  1.00  0.00     0.019 A 
ENDROOT
BRANCH   4   7
HETATM    7  N   UNL     1      39.454 -14.680   0.509  1.00  0.00    -0.323 N 
HETATM    8  C   UNL     1      39.873 -13.578  -0.214  1.00  0.00     0.257 C 
HETATM    9  O   UNL     1      40.976 -13.046  -0.170  1.00  0.00    -0.267 OA
HETATM   10  H   UNL     1      38.469 -14.909   0.460  1.00  0.00     0.169 HD
BRANCH   8  11
HETATM   11  C   UNL     1      38.839 -12.961  -1.076  1.00  0.00     0.047 A 
HETATM   12  C   UNL     1      37.701 -12.307  -0.565  1.00  0.00     0.027 A 
HETATM   13  C   UNL     1      36.827 -11.764  -1.504  1.00  0.00     0.138 A 
HETATM   14  C   UNL     1      37.122 -12.044   0.713  1.00  0.00     0.033 A 
HETATM   15  N   UNL     1      35.793 -11.168  -0.837  1.00  0.00    -0.350 N 
HETATM   16  N   UNL     1      36.934 -11.799  -2.844  1.00  0.00    -0.242 NA
HETATM   17  H   UNL     1      35.024 -10.704  -1.299  1.00  0.00     0.166 HD
HETATM   18  C   UNL     1      35.959 -11.331   0.514  1.00  0.00     0.090 A 
HETATM   19  C   UNL     1      38.024 -12.470  -3.277  1.00  0.00     0.120 A 
HETATM   20  C   UNL     1      38.982 -13.057  -2.466  1.00  0.00     0.037 A 
ENDBRANCH   8  11
ENDBRANCH   4   7
BRANCH   1  21
HETATM   21  C   UNL     1      42.434 -17.909   4.169  1.00  0.00     0.251 C 
HETATM   22  N   UNL     1      43.741 -18.230   3.874  1.00  0.00    -0.352 N 
HETATM   23  H   UNL     1      44.225 -17.722   3.147  1.00  0.00     0.163 HD
HETATM   24  O   UNL     1      41.884 -18.246   5.212  1.00  0.00    -0.268 OA
BRANCH  22  25
HETATM   25  C   UNL     1      44.559 -18.912   4.850  1.00  0.00     0.169 C 
BRANCH  25  26
HETATM   26  C   UNL     1      44.607 -20.363   4.500  1.00  0.00     0.000 A 
HETATM   27  S   UNL     1      44.522 -20.865   2.861  1.00  0.00    -0.105 SA
HETATM   28  C   UNL     1      44.630 -22.515   3.295  1.00  0.00     0.050 A 
HETATM   29  C   UNL     1      44.732 -22.687   4.656  1.00  0.00     0.008 A 
HETATM   30  C   UNL     1      44.717 -21.445   5.353  1.00  0.00     0.017 A 
ENDBRANCH  25  26
ENDBRANCH  22  25
ENDBRANCH   1  21
TORSDOF 5
ENDMDL
