MODEL 1
REMARK VINA RESULT:      -7.4      0.000      0.000
REMARK  8 active torsions:
REMARK  status: ('A' for Active; 'I' for Inactive)
REMARK    1  A    between atoms: C_2  and  C_3 
REMARK    2  A    between atoms: C_3  and  N_4 
REMARK    3  A    between atoms: C_3  and  C_20 
REMARK    4  A    between atoms: N_4  and  C_7 
REMARK    5  A    between atoms: C_7  and  C_8 
REMARK    6  A    between atoms: C_10  and  O_11 
REMARK    7  A    between atoms: C_13  and  O_14 
REMARK    8  A    between atoms: C_16  and  O_17 
ROOT
HETATM    1  N   UNL     1      41.188 -15.774   2.944  1.00  0.00    -0.060 N 
HETATM    2  H   UNL     1      41.390 -15.599   3.932  1.00  0.00     0.278 HD
HETATM    3  H   UNL     1      40.277 -15.326   2.749  1.00  0.00     0.278 HD
ENDROOT
BRANCH   1   4
HETATM    4  C   UNL     1      42.158 -15.109   2.009  1.00  0.00     0.258 C 
BRANCH   4   5
HETATM    5  C   UNL     1      42.612 -13.741   2.576  1.00  0.00     0.016 C 
HETATM    6  C   UNL     1      43.819 -13.892   3.509  1.00  0.00     0.012 C 
HETATM    7  C   UNL     1      41.502 -12.960   3.291  1.00  0.00     0.012 C 
ENDBRANCH   4   5
BRANCH   4   8
HETATM    8  C   UNL     1      41.488 -14.968   0.675  1.00  0.00     0.136 A 
HETATM    9  N   UNL     1      40.388 -14.263   0.479  1.00  0.00    -0.231 NA
HETATM   10  C   UNL     1      40.098 -14.403  -0.858  1.00  0.00     0.085 A 
HETATM   11  C   UNL     1      41.029 -15.230  -1.478  1.00  0.00     0.062 A 
HETATM   12  C   UNL     1      39.051 -13.857  -1.611  1.00  0.00     0.034 A 
HETATM   13  N   UNL     1      41.909 -15.574  -0.483  1.00  0.00    -0.341 N 
HETATM   14  C   UNL     1      40.973 -15.560  -2.833  1.00  0.00     0.032 A 
HETATM   15  H   UNL     1      42.720 -16.167  -0.608  1.00  0.00     0.167 HD
HETATM   16  C   UNL     1      39.918 -15.009  -3.571  1.00  0.00     0.002 A 
HETATM   17  C   UNL     1      38.974 -14.171  -2.974  1.00  0.00     0.002 A 
ENDBRANCH   4   8
ENDBRANCH   1   4
BRANCH   1  18
HETATM   18  C   UNL     1      40.993 -17.231   2.720  1.00  0.00     0.272 C 
BRANCH  18  19
HETATM   19  C   UNL     1      42.149 -18.011   3.272  1.00  0.00    -0.027 A 
HETATM   20  C   UNL     1      42.881 -18.881   2.455  1.00  0.00     0.048 A 
HETATM   21  C   UNL     1      43.921 -19.653   2.989  1.00  0.00     0.104 A 
HETATM   22  C   UNL     1      44.231 -19.574   4.364  1.00  0.00     0.135 A 
HETATM   23  C   UNL     1      43.486 -18.722   5.193  1.00  0.00     0.104 A 
HETATM   24  C   UNL     1      42.459 -17.946   4.634  1.00  0.00     0.048 A 
BRANCH  21  25
HETATM   25  O   UNL     1      44.597 -20.576   2.231  1.00  0.00    -0.353 OA
HETATM   26  C   UNL     1      43.852 -21.726   1.841  1.00  0.00     0.210 C 
ENDBRANCH  21  25
BRANCH  22  27
HETATM   27  O   UNL     1      45.186 -20.385   4.924  1.00  0.00    -0.351 OA
HETATM   28  C   UNL     1      44.666 -21.596   5.472  1.00  0.00     0.210 C 
ENDBRANCH  22  27
BRANCH  23  29
HETATM   29  O   UNL     1      43.595 -18.517   6.543  1.00  0.00    -0.353 OA
HETATM   30  C   UNL     1      42.695 -17.618   7.177  1.00  0.00     0.210 C 
ENDBRANCH  23  29
ENDBRANCH  18  19
ENDBRANCH   1  18
TORSDOF 8
ENDMDL
MODEL 2
REMARK VINA RESULT:      -7.2      3.795      7.925
REMARK  8 active torsions:
REMARK  status: ('A' for Active; 'I' for Inactive)
REMARK    1  A    between atoms: C_2  and  C_3 
REMARK    2  A    between atoms: C_3  and  N_4 
REMARK    3  A    between atoms: C_3  and  C_20 
REMARK    4  A    between atoms: N_4  and  C_7 
REMARK    5  A    between atoms: C_7  and  C_8 
REMARK    6  A    between atoms: C_10  and  O_11 
REMARK    7  A    between atoms: C_13  and  O_14 
REMARK    8  A    between atoms: C_16  and  O_17 
ROOT
HETATM    1  N   UNL     1      42.374 -15.701   1.651  1.00  0.00    -0.060 N 
HETATM    2  H   UNL     1      42.981 -14.882   1.558  1.00  0.00     0.278 HD
HETATM    3  H   UNL     1      42.830 -16.463   1.119  1.00  0.00     0.278 HD
ENDROOT
BRANCH   1   4
HETATM    4  C   UNL     1      42.273 -16.214   3.059  1.00  0.00     0.258 C 
BRANCH   4   5
HETATM    5  C   UNL     1      43.011 -15.269   4.038  1.00  0.00     0.016 C 
HETATM    6  C   UNL     1      42.116 -14.872   5.218  1.00  0.00     0.012 C 
HETATM    7  C   UNL     1      43.585 -14.008   3.379  1.00  0.00     0.012 C 
ENDBRANCH   4   5
BRANCH   4   8
HETATM    8  C   UNL     1      42.840 -17.602   3.085  1.00  0.00     0.136 A 
HETATM    9  N   UNL     1      43.546 -18.086   4.091  1.00  0.00    -0.231 NA
HETATM   10  C   UNL     1      43.885 -19.365   3.717  1.00  0.00     0.085 A 
HETATM   11  C   UNL     1      43.394 -19.652   2.448  1.00  0.00     0.062 A 
HETATM   12  C   UNL     1      44.617 -20.338   4.410  1.00  0.00     0.034 A 
HETATM   13  N   UNL     1      42.726 -18.515   2.066  1.00  0.00    -0.341 N 
HETATM   14  C   UNL     1      43.600 -20.876   1.808  1.00  0.00     0.032 A 
HETATM   15  H   UNL     1      42.239 -18.399   1.186  1.00  0.00     0.167 HD
HETATM   16  C   UNL     1      44.337 -21.836   2.513  1.00  0.00     0.002 A 
HETATM   17  C   UNL     1      44.836 -21.575   3.791  1.00  0.00     0.002 A 
ENDBRANCH   4   8
ENDBRANCH   1   4
BRANCH   1  18
HETATM   18  C   UNL     1      41.073 -15.445   0.977  1.00  0.00     0.272 C 
BRANCH  18  19
HETATM   19  C   UNL     1      41.274 -14.627  -0.265  1.00  0.00    -0.027 A 
HETATM   20  C   UNL     1      40.760 -15.057  -1.495  1.00  0.00     0.048 A 
HETATM   21  C   UNL     1      41.001 -14.321  -2.663  1.00  0.00     0.104 A 
HETATM   22  C   UNL     1      41.782 -13.146  -2.615  1.00  0.00     0.135 A 
HETATM   23  C   UNL     1      42.319 -12.723  -1.390  1.00  0.00     0.104 A 
HETATM   24  C   UNL     1      42.052 -13.465  -0.229  1.00  0.00     0.048 A 
BRANCH  21  25
HETATM   25  O   UNL     1      40.585 -14.764  -3.893  1.00  0.00    -0.353 OA
HETATM   26  C   UNL     1      39.511 -15.700  -3.887  1.00  0.00     0.210 C 
ENDBRANCH  21  25
BRANCH  22  27
HETATM   27  O   UNL     1      42.103 -12.460  -3.758  1.00  0.00    -0.351 OA
HETATM   28  C   UNL     1      41.218 -11.380  -4.053  1.00  0.00     0.210 C 
ENDBRANCH  22  27
BRANCH  23  29
HETATM   29  O   UNL     1      43.119 -11.644  -1.123  1.00  0.00    -0.353 OA
HETATM   30  C   UNL     1      42.549 -10.501  -0.500  1.00  0.00     0.210 C 
ENDBRANCH  23  29
ENDBRANCH  18  19
ENDBRANCH   1  18
TORSDOF 8
ENDMDL
MODEL 3
REMARK VINA RESULT:      -7.2      1.053      2.711
REMARK  8 active torsions:
REMARK  status: ('A' for Active; 'I' for Inactive)
REMARK    1  A    between atoms: C_2  and  C_3 
REMARK    2  A    between atoms: C_3  and  N_4 
REMARK    3  A    between atoms: C_3  and  C_20 
REMARK    4  A    between atoms: N_4  and  C_7 
REMARK    5  A    between atoms: C_7  and  C_8 
REMARK    6  A    between atoms: C_10  and  O_11 
REMARK    7  A    between atoms: C_13  and  O_14 
REMARK    8  A    between atoms: C_16  and  O_17 
ROOT
HETATM    1  N   UNL     1      42.239 -16.457   1.847  1.00  0.00    -0.060 N 
HETATM    2  H   UNL     1      41.833 -16.671   2.762  1.00  0.00     0.278 HD
HETATM    3  H   UNL     1      41.662 -16.955   1.148  1.00  0.00     0.278 HD
ENDROOT
BRANCH   1   4
HETATM    4  C   UNL     1      42.141 -15.006   1.474  1.00  0.00     0.258 C 
BRANCH   4   5
HETATM    5  C   UNL     1      41.468 -14.195   2.609  1.00  0.00     0.016 C 
HETATM    6  C   UNL     1      42.509 -13.511   3.503  1.00  0.00     0.012 C 
HETATM    7  C   UNL     1      40.502 -15.013   3.476  1.00  0.00     0.012 C 
ENDBRANCH   4   5
BRANCH   4   8
HETATM    8  C   UNL     1      41.373 -14.913   0.189  1.00  0.00     0.136 A 
HETATM    9  N   UNL     1      40.390 -14.055  -0.016  1.00  0.00    -0.231 NA
HETATM   10  C   UNL     1      39.950 -14.304  -1.295  1.00  0.00     0.085 A 
HETATM   11  C   UNL     1      40.666 -15.350  -1.867  1.00  0.00     0.062 A 
HETATM   12  C   UNL     1      38.936 -13.678  -2.033  1.00  0.00     0.034 A 
HETATM   13  N   UNL     1      41.573 -15.719  -0.904  1.00  0.00    -0.341 N 
HETATM   14  C   UNL     1      40.424 -15.827  -3.156  1.00  0.00     0.032 A 
HETATM   15  H   UNL     1      42.260 -16.455  -1.009  1.00  0.00     0.167 HD
HETATM   16  C   UNL     1      39.405 -15.193  -3.878  1.00  0.00     0.002 A 
HETATM   17  C   UNL     1      38.675 -14.137  -3.330  1.00  0.00     0.002 A 
ENDBRANCH   4   8
ENDBRANCH   1   4
BRANCH   1  18
HETATM   18  C   UNL     1      43.603 -17.042   1.753  1.00  0.00     0.272 C 
BRANCH  18  19
HETATM   19  C   UNL     1      43.830 -18.036   2.853  1.00  0.00    -0.027 A 
HETATM   20  C   UNL     1      43.863 -17.627   4.191  1.00  0.00     0.048 A 
HETATM   21  C   UNL     1      44.135 -18.549   5.211  1.00  0.00     0.104 A 
HETATM   22  C   UNL     1      44.398 -19.900   4.897  1.00  0.00     0.135 A 
HETATM   23  C   UNL     1      44.390 -20.312   3.556  1.00  0.00     0.104 A 
HETATM   24  C   UNL     1      44.099 -19.376   2.552  1.00  0.00     0.048 A 
BRANCH  21  25
HETATM   25  O   UNL     1      44.259 -18.160   6.521  1.00  0.00    -0.353 OA
HETATM   26  C   UNL     1      43.107 -17.557   7.103  1.00  0.00     0.210 C 
ENDBRANCH  21  25
BRANCH  22  27
HETATM   27  O   UNL     1      44.753 -20.799   5.870  1.00  0.00    -0.351 OA
HETATM   28  C   UNL     1      43.649 -21.310   6.616  1.00  0.00     0.210 C 
ENDBRANCH  22  27
BRANCH  23  29
HETATM   29  O   UNL     1      44.645 -21.550   3.030  1.00  0.00    -0.353 OA
HETATM   30  C   UNL     1      44.146 -21.866   1.737  1.00  0.00     0.210 C 
ENDBRANCH  23  29
ENDBRANCH  18  19
ENDBRANCH   1  18
TORSDOF 8
ENDMDL
MODEL 4
REMARK VINA RESULT:      -7.2      3.824      8.252
REMARK  8 active torsions:
REMARK  status: ('A' for Active; 'I' for Inactive)
REMARK    1  A    between atoms: C_2  and  C_3 
REMARK    2  A    between atoms: C_3  and  N_4 
REMARK    3  A    between atoms: C_3  and  C_20 
REMARK    4  A    between atoms: N_4  and  C_7 
REMARK    5  A    between atoms: C_7  and  C_8 
REMARK    6  A    between atoms: C_10  and  O_11 
REMARK    7  A    between atoms: C_13  and  O_14 
REMARK    8  A    between atoms: C_16  and  O_17 
ROOT
HETATM    1  N   UNL     1      42.476 -15.806   1.554  1.00  0.00    -0.060 N 
HETATM    2  H   UNL     1      42.916 -14.885   1.470  1.00  0.00     0.278 HD
HETATM    3  H   UNL     1      43.110 -16.475   1.085  1.00  0.00     0.278 HD
ENDROOT
BRANCH   1   4
HETATM    4  C   UNL     1      42.372 -16.293   2.971  1.00  0.00     0.258 C 
BRANCH   4   5
HETATM    5  C   UNL     1      43.126 -15.340   3.932  1.00  0.00     0.016 C 
HETATM    6  C   UNL     1      42.287 -15.018   5.175  1.00  0.00     0.012 C 
HETATM    7  C   UNL     1      43.599 -14.036   3.277  1.00  0.00     0.012 C 
ENDBRANCH   4   5
BRANCH   4   8
HETATM    8  C   UNL     1      42.922 -17.687   3.019  1.00  0.00     0.136 A 
HETATM    9  N   UNL     1      43.627 -18.162   4.031  1.00  0.00    -0.231 NA
HETATM   10  C   UNL     1      43.948 -19.451   3.678  1.00  0.00     0.085 A 
HETATM   11  C   UNL     1      43.448 -19.755   2.416  1.00  0.00     0.062 A 
HETATM   12  C   UNL     1      44.672 -20.421   4.385  1.00  0.00     0.034 A 
HETATM   13  N   UNL     1      42.792 -18.617   2.017  1.00  0.00    -0.341 N 
HETATM   14  C   UNL     1      43.636 -20.992   1.798  1.00  0.00     0.032 A 
HETATM   15  H   UNL     1      42.303 -18.510   1.138  1.00  0.00     0.167 HD
HETATM   16  C   UNL     1      44.364 -21.949   2.516  1.00  0.00     0.002 A 
HETATM   17  C   UNL     1      44.872 -21.671   3.787  1.00  0.00     0.002 A 
ENDBRANCH   4   8
ENDBRANCH   1   4
BRANCH   1  18
HETATM   18  C   UNL     1      41.204 -15.828   0.783  1.00  0.00     0.272 C 
BRANCH  18  19
HETATM   19  C   UNL     1      41.295 -14.930  -0.414  1.00  0.00    -0.027 A 
HETATM   20  C   UNL     1      41.629 -13.578  -0.271  1.00  0.00     0.048 A 
HETATM   21  C   UNL     1      41.653 -12.729  -1.385  1.00  0.00     0.104 A 
HETATM   22  C   UNL     1      41.323 -13.225  -2.665  1.00  0.00     0.135 A 
HETATM   23  C   UNL     1      40.964 -14.573  -2.812  1.00  0.00     0.104 A 
HETATM   24  C   UNL     1      40.962 -15.410  -1.685  1.00  0.00     0.048 A 
BRANCH  21  25
HETATM   25  O   UNL     1      41.891 -11.383  -1.262  1.00  0.00    -0.353 OA
HETATM   26  C   UNL     1      43.256 -10.982  -1.346  1.00  0.00     0.210 C 
ENDBRANCH  21  25
BRANCH  22  27
HETATM   27  O   UNL     1      41.254 -12.392  -3.753  1.00  0.00    -0.351 OA
HETATM   28  C   UNL     1      39.967 -11.808  -3.954  1.00  0.00     0.210 C 
ENDBRANCH  22  27
BRANCH  23  29
HETATM   29  O   UNL     1      40.582 -15.248  -3.941  1.00  0.00    -0.353 OA
HETATM   30  C   UNL     1      39.291 -15.841  -3.986  1.00  0.00     0.210 C 
ENDBRANCH  23  29
ENDBRANCH  18  19
ENDBRANCH   1  18
TORSDOF 8
ENDMDL
MODEL 5
REMARK VINA RESULT:      -7.1      2.107      2.469
REMARK  8 active torsions:
REMARK  status: ('A' for Active; 'I' for Inactive)
REMARK    1  A    between atoms: C_2  and  C_3 
REMARK    2  A    between atoms: C_3  and  N_4 
REMARK    3  A    between atoms: C_3  and  C_20 
REMARK    4  A    between atoms: N_4  and  C_7 
REMARK    5  A    between atoms: C_7  and  C_8 
REMARK    6  A    between atoms: C_10  and  O_11 
REMARK    7  A    between atoms: C_13  and  O_14 
REMARK    8  A    between atoms: C_16  and  O_17 
ROOT
HETATM    1  N   UNL     1      41.684 -16.475   0.532  1.00  0.00    -0.060 N 
HETATM    2  H   UNL     1      41.350 -16.538  -0.433  1.00  0.00     0.278 HD
HETATM    3  H   UNL     1      42.710 -16.600   0.494  1.00  0.00     0.278 HD
ENDROOT
BRANCH   1   4
HETATM    4  C   UNL     1      41.479 -15.121   1.150  1.00  0.00     0.258 C 
BRANCH   4   5
HETATM    5  C   UNL     1      40.042 -14.990   1.712  1.00  0.00     0.016 C 
HETATM    6  C   UNL     1      39.114 -14.276   0.722  1.00  0.00     0.012 C 
HETATM    7  C   UNL     1      39.965 -14.300   3.081  1.00  0.00     0.012 C 
ENDBRANCH   4   5
BRANCH   4   8
HETATM    8  C   UNL     1      41.765 -14.089   0.101  1.00  0.00     0.136 A 
HETATM    9  N   UNL     1      42.020 -12.821   0.370  1.00  0.00    -0.231 NA
HETATM   10  C   UNL     1      42.209 -12.219  -0.851  1.00  0.00     0.085 A 
HETATM   11  C   UNL     1      42.041 -13.137  -1.883  1.00  0.00     0.062 A 
HETATM   12  C   UNL     1      42.521 -10.888  -1.157  1.00  0.00     0.034 A 
HETATM   13  N   UNL     1      41.764 -14.324  -1.252  1.00  0.00    -0.341 N 
HETATM   14  C   UNL     1      42.160 -12.799  -3.232  1.00  0.00     0.032 A 
HETATM   15  H   UNL     1      41.598 -15.204  -1.724  1.00  0.00     0.167 HD
HETATM   16  C   UNL     1      42.469 -11.464  -3.520  1.00  0.00     0.002 A 
HETATM   17  C   UNL     1      42.648 -10.524  -2.503  1.00  0.00     0.002 A 
ENDBRANCH   4   8
ENDBRANCH   1   4
BRANCH   1  18
HETATM   18  C   UNL     1      41.155 -17.617   1.325  1.00  0.00     0.272 C 
BRANCH  18  19
HETATM   19  C   UNL     1      42.193 -18.124   2.281  1.00  0.00    -0.027 A 
HETATM   20  C   UNL     1      43.049 -19.171   1.918  1.00  0.00     0.048 A 
HETATM   21  C   UNL     1      43.977 -19.682   2.836  1.00  0.00     0.104 A 
HETATM   22  C   UNL     1      44.046 -19.157   4.144  1.00  0.00     0.135 A 
HETATM   23  C   UNL     1      43.175 -18.124   4.522  1.00  0.00     0.104 A 
HETATM   24  C   UNL     1      42.265 -17.616   3.582  1.00  0.00     0.048 A 
BRANCH  21  25
HETATM   25  O   UNL     1      44.767 -20.763   2.536  1.00  0.00    -0.353 OA
HETATM   26  C   UNL     1      44.139 -21.808   1.798  1.00  0.00     0.210 C 
ENDBRANCH  21  25
BRANCH  22  27
HETATM   27  O   UNL     1      44.885 -19.701   5.084  1.00  0.00    -0.351 OA
HETATM   28  C   UNL     1      44.273 -20.707   5.891  1.00  0.00     0.210 C 
ENDBRANCH  22  27
BRANCH  23  29
HETATM   29  O   UNL     1      43.051 -17.497   5.732  1.00  0.00    -0.353 OA
HETATM   30  C   UNL     1      43.531 -16.166   5.872  1.00  0.00     0.210 C 
ENDBRANCH  23  29
ENDBRANCH  18  19
ENDBRANCH   1  18
TORSDOF 8
ENDMDL
MODEL 6
REMARK VINA RESULT:      -7.1      1.507      4.283
REMARK  8 active torsions:
REMARK  status: ('A' for Active; 'I' for Inactive)
REMARK    1  A    between atoms: C_2  and  C_3 
REMARK    2  A    between atoms: C_3  and  N_4 
REMARK    3  A    between atoms: C_3  and  C_20 
REMARK    4  A    between atoms: N_4  and  C_7 
REMARK    5  A    between atoms: C_7  and  C_8 
REMARK    6  A    between atoms: C_10  and  O_11 
REMARK    7  A    between atoms: C_13  and  O_14 
REMARK    8  A    between atoms: C_16  and  O_17 
ROOT
HETATM    1  N   UNL     1      41.557 -16.434   0.589  1.00  0.00    -0.060 N 
HETATM    2  H   UNL     1      41.936 -16.564  -0.354  1.00  0.00     0.278 HD
HETATM    3  H   UNL     1      42.328 -16.053   1.163  1.00  0.00     0.278 HD
ENDROOT
BRANCH   1   4
HETATM    4  C   UNL     1      40.469 -15.401   0.659  1.00  0.00     0.258 C 
BRANCH   4   5
HETATM    5  C   UNL     1      40.581 -14.408  -0.523  1.00  0.00     0.016 C 
HETATM    6  C   UNL     1      39.300 -13.583  -0.687  1.00  0.00     0.012 C 
HETATM    7  C   UNL     1      40.947 -15.065  -1.861  1.00  0.00     0.012 C 
ENDBRANCH   4   5
BRANCH   4   8
HETATM    8  C   UNL     1      40.578 -14.709   1.985  1.00  0.00     0.136 A 
HETATM    9  N   UNL     1      41.514 -13.823   2.274  1.00  0.00    -0.231 NA
HETATM   10  C   UNL     1      41.272 -13.447   3.574  1.00  0.00     0.085 A 
HETATM   11  C   UNL     1      40.181 -14.138   4.091  1.00  0.00     0.062 A 
HETATM   12  C   UNL     1      41.948 -12.524   4.382  1.00  0.00     0.034 A 
HETATM   13  N   UNL     1      39.750 -14.933   3.058  1.00  0.00    -0.341 N 
HETATM   14  C   UNL     1      39.716 -13.966   5.396  1.00  0.00     0.032 A 
HETATM   15  H   UNL     1      38.957 -15.560   3.103  1.00  0.00     0.167 HD
HETATM   16  C   UNL     1      40.406 -13.042   6.191  1.00  0.00     0.002 A 
HETATM   17  C   UNL     1      41.501 -12.331   5.695  1.00  0.00     0.002 A 
ENDBRANCH   4   8
ENDBRANCH   1   4
BRANCH   1  18
HETATM   18  C   UNL     1      41.213 -17.755   1.179  1.00  0.00     0.272 C 
BRANCH  18  19
HETATM   19  C   UNL     1      42.230 -18.156   2.207  1.00  0.00    -0.027 A 
HETATM   20  C   UNL     1      43.159 -19.168   1.937  1.00  0.00     0.048 A 
HETATM   21  C   UNL     1      44.068 -19.581   2.921  1.00  0.00     0.104 A 
HETATM   22  C   UNL     1      44.043 -18.992   4.203  1.00  0.00     0.135 A 
HETATM   23  C   UNL     1      43.099 -17.994   4.488  1.00  0.00     0.104 A 
HETATM   24  C   UNL     1      42.209 -17.584   3.483  1.00  0.00     0.048 A 
BRANCH  21  25
HETATM   25  O   UNL     1      44.930 -20.628   2.712  1.00  0.00    -0.353 OA
HETATM   26  C   UNL     1      44.366 -21.789   2.111  1.00  0.00     0.210 C 
ENDBRANCH  21  25
BRANCH  22  27
HETATM   27  O   UNL     1      44.863 -19.442   5.207  1.00  0.00    -0.351 OA
HETATM   28  C   UNL     1      44.279 -20.461   6.017  1.00  0.00     0.210 C 
ENDBRANCH  22  27
BRANCH  23  29
HETATM   29  O   UNL     1      42.881 -17.318   5.659  1.00  0.00    -0.353 OA
HETATM   30  C   UNL     1      43.229 -15.942   5.736  1.00  0.00     0.210 C 
ENDBRANCH  23  29
ENDBRANCH  18  19
ENDBRANCH   1  18
TORSDOF 8
ENDMDL
MODEL 7
REMARK VINA RESULT:      -6.9      4.163      7.649
REMARK  8 active torsions:
REMARK  status: ('A' for Active; 'I' for Inactive)
REMARK    1  A    between atoms: C_2  and  C_3 
REMARK    2  A    between atoms: C_3  and  N_4 
REMARK    3  A    between atoms: C_3  and  C_20 
REMARK    4  A    between atoms: N_4  and  C_7 
REMARK    5  A    between atoms: C_7  and  C_8 
REMARK    6  A    between atoms: C_10  and  O_11 
REMARK    7  A    between atoms: C_13  and  O_14 
REMARK    8  A    between atoms: C_16  and  O_17 
ROOT
HETATM    1  N   UNL     1      41.354 -16.174   4.164  1.00  0.00    -0.060 N 
HETATM    2  H   UNL     1      40.932 -15.762   3.328  1.00  0.00     0.278 HD
HETATM    3  H   UNL     1      41.043 -17.160   4.192  1.00  0.00     0.278 HD
ENDROOT
BRANCH   1   4
HETATM    4  C   UNL     1      42.854 -16.237   4.108  1.00  0.00     0.258 C 
BRANCH   4   5
HETATM    5  C   UNL     1      43.403 -15.243   3.056  1.00  0.00     0.016 C 
HETATM    6  C   UNL     1      43.710 -13.877   3.681  1.00  0.00     0.012 C 
HETATM    7  C   UNL     1      42.493 -15.058   1.834  1.00  0.00     0.012 C 
ENDBRANCH   4   5
BRANCH   4   8
HETATM    8  C   UNL     1      43.243 -17.652   3.799  1.00  0.00     0.136 A 
HETATM    9  N   UNL     1      43.984 -18.399   4.597  1.00  0.00    -0.231 NA
HETATM   10  C   UNL     1      44.120 -19.603   3.947  1.00  0.00     0.085 A 
HETATM   11  C   UNL     1      43.467 -19.576   2.719  1.00  0.00     0.062 A 
HETATM   12  C   UNL     1      44.793 -20.766   4.344  1.00  0.00     0.034 A 
HETATM   13  N   UNL     1      42.910 -18.323   2.648  1.00  0.00    -0.341 N 
HETATM   14  C   UNL     1      43.451 -20.659   1.838  1.00  0.00     0.032 A 
HETATM   15  H   UNL     1      42.352 -17.982   1.875  1.00  0.00     0.167 HD
HETATM   16  C   UNL     1      44.131 -21.812   2.249  1.00  0.00     0.002 A 
HETATM   17  C   UNL     1      44.790 -21.868   3.479  1.00  0.00     0.002 A 
ENDBRANCH   4   8
ENDBRANCH   1   4
BRANCH   1  18
HETATM   18  C   UNL     1      40.794 -15.528   5.381  1.00  0.00     0.272 C 
BRANCH  18  19
HETATM   19  C   UNL     1      40.127 -14.230   5.032  1.00  0.00    -0.027 A 
HETATM   20  C   UNL     1      39.838 -13.910   3.700  1.00  0.00     0.048 A 
HETATM   21  C   UNL     1      39.270 -12.672   3.373  1.00  0.00     0.104 A 
HETATM   22  C   UNL     1      39.000 -11.724   4.384  1.00  0.00     0.135 A 
HETATM   23  C   UNL     1      39.309 -12.029   5.718  1.00  0.00     0.104 A 
HETATM   24  C   UNL     1      39.862 -13.282   6.025  1.00  0.00     0.048 A 
BRANCH  21  25
HETATM   25  O   UNL     1      39.057 -12.298   2.070  1.00  0.00    -0.353 OA
HETATM   26  C   UNL     1      38.073 -13.045   1.361  1.00  0.00     0.210 C 
ENDBRANCH  21  25
BRANCH  22  27
HETATM   27  O   UNL     1      38.527 -10.474   4.076  1.00  0.00    -0.351 OA
HETATM   28  C   UNL     1      39.548  -9.484   3.951  1.00  0.00     0.210 C 
ENDBRANCH  22  27
BRANCH  23  29
HETATM   29  O   UNL     1      39.161 -11.256   6.838  1.00  0.00    -0.353 OA
HETATM   30  C   UNL     1      39.290 -11.864   8.117  1.00  0.00     0.210 C 
ENDBRANCH  23  29
ENDBRANCH  18  19
ENDBRANCH   1  18
TORSDOF 8
ENDMDL
MODEL 8
REMARK VINA RESULT:      -6.9      3.856      8.084
REMARK  8 active torsions:
REMARK  status: ('A' for Active; 'I' for Inactive)
REMARK    1  A    between atoms: C_2  and  C_3 
REMARK    2  A    between atoms: C_3  and  N_4 
REMARK    3  A    between atoms: C_3  and  C_20 
REMARK    4  A    between atoms: N_4  and  C_7 
REMARK    5  A    between atoms: C_7  and  C_8 
REMARK    6  A    between atoms: C_10  and  O_11 
REMARK    7  A    between atoms: C_13  and  O_14 
REMARK    8  A    between atoms: C_16  and  O_17 
ROOT
HETATM    1  N   UNL     1      42.886 -16.107   3.289  1.00  0.00    -0.060 N 
HETATM    2  H   UNL     1      41.921 -15.931   3.582  1.00  0.00     0.278 HD
HETATM    3  H   UNL     1      43.336 -16.624   4.064  1.00  0.00     0.278 HD
ENDROOT
BRANCH   1   4
HETATM    4  C   UNL     1      42.993 -17.017   2.099  1.00  0.00     0.258 C 
BRANCH   4   5
HETATM    5  C   UNL     1      41.634 -17.115   1.363  1.00  0.00     0.016 C 
HETATM    6  C   UNL     1      41.655 -16.341   0.040  1.00  0.00     0.012 C 
HETATM    7  C   UNL     1      40.432 -16.666   2.204  1.00  0.00     0.012 C 
ENDBRANCH   4   5
BRANCH   4   8
HETATM    8  C   UNL     1      43.465 -18.355   2.584  1.00  0.00     0.136 A 
HETATM    9  N   UNL     1      43.461 -19.447   1.840  1.00  0.00    -0.231 NA
HETATM   10  C   UNL     1      43.949 -20.444   2.653  1.00  0.00     0.085 A 
HETATM   11  C   UNL     1      44.231 -19.949   3.922  1.00  0.00     0.062 A 
HETATM   12  C   UNL     1      44.173 -21.798   2.375  1.00  0.00     0.034 A 
HETATM   13  N   UNL     1      43.920 -18.614   3.853  1.00  0.00    -0.341 N 
HETATM   14  C   UNL     1      44.727 -20.742   4.958  1.00  0.00     0.032 A 
HETATM   15  H   UNL     1      44.023 -17.957   4.617  1.00  0.00     0.167 HD
HETATM   16  C   UNL     1      44.941 -22.095   4.665  1.00  0.00     0.002 A 
HETATM   17  C   UNL     1      44.672 -22.616   3.397  1.00  0.00     0.002 A 
ENDBRANCH   4   8
ENDBRANCH   1   4
BRANCH   1  18
HETATM   18  C   UNL     1      43.619 -14.819   3.167  1.00  0.00     0.272 C 
BRANCH  18  19
HETATM   19  C   UNL     1      42.659 -13.666   3.134  1.00  0.00    -0.027 A 
HETATM   20  C   UNL     1      42.169 -13.109   4.321  1.00  0.00     0.048 A 
HETATM   21  C   UNL     1      41.226 -12.073   4.284  1.00  0.00     0.104 A 
HETATM   22  C   UNL     1      40.747 -11.590   3.047  1.00  0.00     0.135 A 
HETATM   23  C   UNL     1      41.218 -12.159   1.854  1.00  0.00     0.104 A 
HETATM   24  C   UNL     1      42.173 -13.186   1.913  1.00  0.00     0.048 A 
BRANCH  21  25
HETATM   25  O   UNL     1      40.664 -11.569   5.430  1.00  0.00    -0.353 OA
HETATM   26  C   UNL     1      39.751 -12.428   6.106  1.00  0.00     0.210 C 
ENDBRANCH  21  25
BRANCH  22  27
HETATM   27  O   UNL     1      39.761 -10.638   2.991  1.00  0.00    -0.351 OA
HETATM   28  C   UNL     1      38.450 -11.175   2.812  1.00  0.00     0.210 C 
ENDBRANCH  22  27
BRANCH  23  29
HETATM   29  O   UNL     1      40.870 -11.870   0.562  1.00  0.00    -0.353 OA
HETATM   30  C   UNL     1      41.896 -11.592  -0.382  1.00  0.00     0.210 C 
ENDBRANCH  23  29
ENDBRANCH  18  19
ENDBRANCH   1  18
TORSDOF 8
ENDMDL
MODEL 9
REMARK VINA RESULT:      -6.9      3.823      7.791
REMARK  8 active torsions:
REMARK  status: ('A' for Active; 'I' for Inactive)
REMARK    1  A    between atoms: C_2  and  C_3 
REMARK    2  A    between atoms: C_3  and  N_4 
REMARK    3  A    between atoms: C_3  and  C_20 
REMARK    4  A    between atoms: N_4  and  C_7 
REMARK    5  A    between atoms: C_7  and  C_8 
REMARK    6  A    between atoms: C_10  and  O_11 
REMARK    7  A    between atoms: C_13  and  O_14 
REMARK    8  A    between atoms: C_16  and  O_17 
ROOT
HETATM    1  N   UNL     1      40.232 -16.002   2.859  1.00  0.00    -0.060 N 
HETATM    2  H   UNL     1      40.603 -16.271   1.943  1.00  0.00     0.278 HD
HETATM    3  H   UNL     1      39.547 -16.731   3.121  1.00  0.00     0.278 HD
ENDROOT
BRANCH   1   4
HETATM    4  C   UNL     1      41.263 -16.024   3.951  1.00  0.00     0.258 C 
BRANCH   4   5
HETATM    5  C   UNL     1      42.090 -14.714   3.947  1.00  0.00     0.016 C 
HETATM    6  C   UNL     1      43.234 -14.776   2.929  1.00  0.00     0.012 C 
HETATM    7  C   UNL     1      42.644 -14.319   5.323  1.00  0.00     0.012 C 
ENDBRANCH   4   5
BRANCH   4   8
HETATM    8  C   UNL     1      42.127 -17.232   3.744  1.00  0.00     0.136 A 
HETATM    9  N   UNL     1      42.150 -17.932   2.624  1.00  0.00    -0.231 NA
HETATM   10  C   UNL     1      43.047 -18.950   2.849  1.00  0.00     0.085 A 
HETATM   11  C   UNL     1      43.559 -18.878   4.141  1.00  0.00     0.062 A 
HETATM   12  C   UNL     1      43.470 -19.979   1.997  1.00  0.00     0.034 A 
HETATM   13  N   UNL     1      42.962 -17.771   4.691  1.00  0.00    -0.341 N 
HETATM   14  C   UNL     1      44.481 -19.794   4.649  1.00  0.00     0.032 A 
HETATM   15  H   UNL     1      43.130 -17.431   5.630  1.00  0.00     0.167 HD
HETATM   16  C   UNL     1      44.891 -20.818   3.785  1.00  0.00     0.002 A 
HETATM   17  C   UNL     1      44.397 -20.909   2.482  1.00  0.00     0.002 A 
ENDBRANCH   4   8
ENDBRANCH   1   4
BRANCH   1  18
HETATM   18  C   UNL     1      39.465 -14.734   2.739  1.00  0.00     0.272 C 
BRANCH  18  19
HETATM   19  C   UNL     1      39.326 -14.333   1.300  1.00  0.00    -0.027 A 
HETATM   20  C   UNL     1      40.288 -14.710   0.356  1.00  0.00     0.048 A 
HETATM   21  C   UNL     1      40.185 -14.283  -0.974  1.00  0.00     0.104 A 
HETATM   22  C   UNL     1      39.117 -13.451  -1.374  1.00  0.00     0.135 A 
HETATM   23  C   UNL     1      38.162 -13.051  -0.427  1.00  0.00     0.104 A 
HETATM   24  C   UNL     1      38.275 -13.503   0.896  1.00  0.00     0.048 A 
BRANCH  21  25
HETATM   25  O   UNL     1      41.159 -14.564  -1.900  1.00  0.00    -0.353 OA
HETATM   26  C   UNL     1      40.946 -15.729  -2.692  1.00  0.00     0.210 C 
ENDBRANCH  21  25
BRANCH  22  27
HETATM   27  O   UNL     1      39.046 -12.950  -2.649  1.00  0.00    -0.351 OA
HETATM   28  C   UNL     1      39.647 -11.664  -2.799  1.00  0.00     0.210 C 
ENDBRANCH  22  27
BRANCH  23  29
HETATM   29  O   UNL     1      37.075 -12.232  -0.588  1.00  0.00    -0.353 OA
HETATM   30  C   UNL     1      36.403 -11.746   0.566  1.00  0.00     0.210 C 
ENDBRANCH  23  29
ENDBRANCH  18  19
ENDBRANCH   1  18
TORSDOF 8
ENDMDL
MODEL 10
REMARK VINA RESULT:      -6.8      3.616      7.720
REMARK  8 active torsions:
REMARK  status: ('A' for Active; 'I' for Inactive)
REMARK    1  A    between atoms: C_2  and  C_3 
REMARK    2  A    between atoms: C_3  and  N_4 
REMARK    3  A    between atoms: C_3  and  C_20 
REMARK    4  A    between atoms: N_4  and  C_7 
REMARK    5  A    between atoms: C_7  and  C_8 
REMARK    6  A    between atoms: C_10  and  O_11 
REMARK    7  A    between atoms: C_13  and  O_14 
REMARK    8  A    between atoms: C_16  and  O_17 
ROOT
HETATM    1  N   UNL     1      40.183 -16.033   2.889  1.00  0.00    -0.060 N 
HETATM    2  H   UNL     1      40.532 -16.467   2.030  1.00  0.00     0.278 HD
HETATM    3  H   UNL     1      39.383 -16.609   3.202  1.00  0.00     0.278 HD
ENDROOT
BRANCH   1   4
HETATM    4  C   UNL     1      41.166 -16.079   4.024  1.00  0.00     0.258 C 
BRANCH   4   5
HETATM    5  C   UNL     1      41.965 -14.755   4.108  1.00  0.00     0.016 C 
HETATM    6  C   UNL     1      43.237 -14.812   3.254  1.00  0.00     0.012 C 
HETATM    7  C   UNL     1      42.322 -14.328   5.537  1.00  0.00     0.012 C 
ENDBRANCH   4   5
BRANCH   4   8
HETATM    8  C   UNL     1      42.062 -17.261   3.810  1.00  0.00     0.136 A 
HETATM    9  N   UNL     1      42.129 -17.933   2.674  1.00  0.00    -0.231 NA
HETATM   10  C   UNL     1      43.043 -18.936   2.896  1.00  0.00     0.085 A 
HETATM   11  C   UNL     1      43.521 -18.885   4.202  1.00  0.00     0.062 A 
HETATM   12  C   UNL     1      43.511 -19.932   2.030  1.00  0.00     0.034 A 
HETATM   13  N   UNL     1      42.885 -17.806   4.764  1.00  0.00    -0.341 N 
HETATM   14  C   UNL     1      44.451 -19.792   4.711  1.00  0.00     0.032 A 
HETATM   15  H   UNL     1      43.022 -17.486   5.715  1.00  0.00     0.167 HD
HETATM   16  C   UNL     1      44.906 -20.784   3.833  1.00  0.00     0.002 A 
HETATM   17  C   UNL     1      44.447 -20.854   2.515  1.00  0.00     0.002 A 
ENDBRANCH   4   8
ENDBRANCH   1   4
BRANCH   1  18
HETATM   18  C   UNL     1      39.632 -14.686   2.585  1.00  0.00     0.272 C 
BRANCH  18  19
HETATM   19  C   UNL     1      40.173 -14.175   1.282  1.00  0.00    -0.027 A 
HETATM   20  C   UNL     1      40.268 -12.800   1.037  1.00  0.00     0.048 A 
HETATM   21  C   UNL     1      40.717 -12.328  -0.204  1.00  0.00     0.104 A 
HETATM   22  C   UNL     1      41.062 -13.236  -1.228  1.00  0.00     0.135 A 
HETATM   23  C   UNL     1      40.947 -14.615  -0.997  1.00  0.00     0.104 A 
HETATM   24  C   UNL     1      40.510 -15.067   0.258  1.00  0.00     0.048 A 
BRANCH  21  25
HETATM   25  O   UNL     1      40.737 -10.988  -0.501  1.00  0.00    -0.353 OA
HETATM   26  C   UNL     1      41.848 -10.255   0.007  1.00  0.00     0.210 C 
ENDBRANCH  21  25
BRANCH  22  27
HETATM   27  O   UNL     1      41.419 -12.795  -2.477  1.00  0.00    -0.351 OA
HETATM   28  C   UNL     1      42.829 -12.758  -2.695  1.00  0.00     0.210 C 
ENDBRANCH  22  27
BRANCH  23  29
HETATM   29  O   UNL     1      41.195 -15.658  -1.848  1.00  0.00    -0.353 OA
HETATM   30  C   UNL     1      40.354 -15.839  -2.980  1.00  0.00     0.210 C 
ENDBRANCH  23  29
ENDBRANCH  18  19
ENDBRANCH   1  18
TORSDOF 8
ENDMDL
