MODEL 1
REMARK VINA RESULT:      -9.3      0.000      0.000
REMARK  5 active torsions:
REMARK  status: ('A' for Active; 'I' for Inactive)
REMARK    1  A    between atoms: C_3  and  N_4 
REMARK       I    between atoms: N_4  and  C_5 
REMARK    2  A    between atoms: C_9  and  N_10 
REMARK       I    between atoms: N_10  and  C_11 
REMARK    3  A    between atoms: C_11  and  C_12 
REMARK    4  A    between atoms: C_17  and  C_18 
REMARK    5  A    between atoms: C_24  and  C_25 
ROOT
HETATM    1  C   UNL     1      42.168 -15.670   0.799  1.00  0.00     0.148 A 
HETATM    2  N   UNL     1      42.163 -14.322   0.677  1.00  0.00    -0.165 NA
HETATM    3  N   UNL     1      41.336 -14.107  -0.364  1.00  0.00    -0.240 N 
HETATM    4  C   UNL     1      40.790 -15.246  -0.887  1.00  0.00     0.123 A 
HETATM    5  N   UNL     1      39.904 -15.204  -1.904  1.00  0.00    -0.364 N 
HETATM    6  C   UNL     1      39.663 -13.960  -2.640  1.00  0.00     0.143 C 
HETATM    7  C   UNL     1      39.729 -12.776  -1.656  1.00  0.00     0.068 C 
HETATM    8  C   UNL     1      41.047 -12.772  -0.857  1.00  0.00     0.221 C 
HETATM    9  C   UNL     1      41.313 -16.281  -0.160  1.00  0.00     0.089 A 
HETATM   10  H   UNL     1      39.686 -16.053  -2.425  1.00  0.00     0.162 HD
ENDROOT
BRANCH   1  11
HETATM   11  C   UNL     1      42.981 -16.368   1.811  1.00  0.00     0.276 C 
HETATM   12  N   UNL     1      42.791 -17.736   1.779  1.00  0.00    -0.322 N 
HETATM   13  H   UNL     1      42.130 -18.037   1.066  1.00  0.00     0.169 HD
HETATM   14  O   UNL     1      43.711 -15.748   2.577  1.00  0.00    -0.266 OA
BRANCH  12  15
HETATM   15  C   UNL     1      43.345 -18.713   2.627  1.00  0.00     0.037 A 
HETATM   16  C   UNL     1      43.385 -18.603   4.018  1.00  0.00     0.059 A 
HETATM   17  C   UNL     1      43.912 -19.625   4.835  1.00  0.00     0.042 A 
HETATM   18  C   UNL     1      44.486 -20.753   4.227  1.00  0.00    -0.035 A 
HETATM   19  C   UNL     1      45.206 -21.851   4.959  1.00  0.00     0.050 C 
HETATM   20  C   UNL     1      44.428 -20.863   2.824  1.00  0.00     0.011 A 
HETATM   21  C   UNL     1      43.866 -19.858   2.034  1.00  0.00     0.030 A 
BRANCH  17  22
HETATM   22  N   UNL     1      43.838 -19.363   6.224  1.00  0.00    -0.327 N 
HETATM   23  C   UNL     1      44.649 -18.541   6.984  1.00  0.00     0.218 C 
HETATM   24  C   UNL     1      44.206 -18.487   8.425  1.00  0.00     0.117 C 
HETATM   25  O   UNL     1      45.631 -17.914   6.610  1.00  0.00    -0.274 OA
HETATM   26  H   UNL     1      43.302 -20.038   6.757  1.00  0.00     0.169 HD
ENDBRANCH  17  22
ENDBRANCH  12  15
ENDBRANCH   1  11
BRANCH   8  27
HETATM   27  C   UNL     1      42.212 -12.267  -1.680  1.00  0.00     0.409 C 
HETATM   28  F   UNL     1      42.904 -13.267  -2.270  1.00  0.00    -0.169 F 
HETATM   29  F   UNL     1      41.843 -11.397  -2.642  1.00  0.00    -0.169 F 
HETATM   30  F   UNL     1      43.094 -11.614  -0.880  1.00  0.00    -0.169 F 
ENDBRANCH   8  27
BRANCH   6  31
HETATM   31  C   UNL     1      38.349 -13.957  -3.356  1.00  0.00     0.075 A 
HETATM   32  O   UNL     1      37.767 -12.740  -3.558  1.00  0.00    -0.325 OA
HETATM   33  C   UNL     1      36.609 -12.961  -4.233  1.00  0.00     0.142 A 
HETATM   34  C   UNL     1      36.434 -14.305  -4.462  1.00  0.00     0.027 A 
HETATM   35  C   UNL     1      37.556 -14.952  -3.894  1.00  0.00     0.037 A 
ENDBRANCH   6  31
TORSDOF 5
ENDMDL
MODEL 2
REMARK VINA RESULT:      -9.1      5.423      9.094
REMARK  5 active torsions:
REMARK  status: ('A' for Active; 'I' for Inactive)
REMARK    1  A    between atoms: C_3  and  N_4 
REMARK       I    between atoms: N_4  and  C_5 
REMARK    2  A    between atoms: C_9  and  N_10 
REMARK       I    between atoms: N_10  and  C_11 
REMARK    3  A    between atoms: C_11  and  C_12 
REMARK    4  A    between atoms: C_17  and  C_18 
REMARK    5  A    between atoms: C_24  and  C_25 
ROOT
HETATM    1  C   UNL     1      41.749 -15.481   4.878  1.00  0.00     0.148 A 
HETATM    2  N   UNL     1      41.542 -15.842   3.590  1.00  0.00    -0.165 NA
HETATM    3  N   UNL     1      42.282 -16.959   3.457  1.00  0.00    -0.240 N 
HETATM    4  C   UNL     1      42.920 -17.344   4.603  1.00  0.00     0.123 A 
HETATM    5  N   UNL     1      43.666 -18.469   4.654  1.00  0.00    -0.364 N 
HETATM    6  C   UNL     1      44.008 -19.200   3.432  1.00  0.00     0.143 C 
HETATM    7  C   UNL     1      42.812 -19.138   2.461  1.00  0.00     0.068 C 
HETATM    8  C   UNL     1      42.363 -17.687   2.203  1.00  0.00     0.221 C 
HETATM    9  C   UNL     1      42.602 -16.404   5.545  1.00  0.00     0.089 A 
HETATM   10  H   UNL     1      44.309 -18.618   5.431  1.00  0.00     0.162 HD
ENDROOT
BRANCH   1  11
HETATM   11  C   UNL     1      41.148 -14.270   5.464  1.00  0.00     0.276 C 
HETATM   12  N   UNL     1      42.079 -13.267   5.656  1.00  0.00    -0.322 N 
HETATM   13  H   UNL     1      43.018 -13.524   5.360  1.00  0.00     0.169 HD
HETATM   14  O   UNL     1      39.955 -14.223   5.745  1.00  0.00    -0.266 OA
BRANCH  12  15
HETATM   15  C   UNL     1      41.890 -12.003   6.243  1.00  0.00     0.037 A 
HETATM   16  C   UNL     1      42.193 -11.710   7.574  1.00  0.00     0.059 A 
HETATM   17  C   UNL     1      42.027 -10.417   8.112  1.00  0.00     0.042 A 
HETATM   18  C   UNL     1      41.465  -9.412   7.308  1.00  0.00    -0.035 A 
HETATM   19  C   UNL     1      41.102  -8.033   7.783  1.00  0.00     0.050 C 
HETATM   20  C   UNL     1      41.176  -9.711   5.963  1.00  0.00     0.011 A 
HETATM   21  C   UNL     1      41.385 -10.987   5.436  1.00  0.00     0.030 A 
BRANCH  17  22
HETATM   22  N   UNL     1      42.419 -10.290   9.467  1.00  0.00    -0.327 N 
HETATM   23  C   UNL     1      43.689 -10.383  10.003  1.00  0.00     0.218 C 
HETATM   24  C   UNL     1      43.693 -10.132  11.491  1.00  0.00     0.117 C 
HETATM   25  O   UNL     1      44.728 -10.647   9.412  1.00  0.00    -0.274 OA
HETATM   26  H   UNL     1      41.667 -10.397  10.138  1.00  0.00     0.169 HD
ENDBRANCH  17  22
ENDBRANCH  12  15
ENDBRANCH   1  11
BRANCH   8  27
HETATM   27  C   UNL     1      43.288 -16.963   1.250  1.00  0.00     0.409 C 
HETATM   28  F   UNL     1      44.288 -16.315   1.887  1.00  0.00    -0.169 F 
HETATM   29  F   UNL     1      43.844 -17.778   0.330  1.00  0.00    -0.169 F 
HETATM   30  F   UNL     1      42.595 -16.016   0.565  1.00  0.00    -0.169 F 
ENDBRANCH   8  27
BRANCH   6  31
HETATM   31  C   UNL     1      44.380 -20.626   3.696  1.00  0.00     0.075 A 
HETATM   32  O   UNL     1      44.774 -20.927   4.967  1.00  0.00    -0.325 OA
HETATM   33  C   UNL     1      45.042 -22.259   4.994  1.00  0.00     0.142 A 
HETATM   34  C   UNL     1      44.832 -22.817   3.755  1.00  0.00     0.027 A 
HETATM   35  C   UNL     1      44.407 -21.763   2.913  1.00  0.00     0.037 A 
ENDBRANCH   6  31
TORSDOF 5
ENDMDL
MODEL 3
REMARK VINA RESULT:      -8.9      2.318      3.395
REMARK  5 active torsions:
REMARK  status: ('A' for Active; 'I' for Inactive)
REMARK    1  A    between atoms: C_3  and  N_4 
REMARK       I    between atoms: N_4  and  C_5 
REMARK    2  A    between atoms: C_9  and  N_10 
REMARK       I    between atoms: N_10  and  C_11 
REMARK    3  A    between atoms: C_11  and  C_12 
REMARK    4  A    between atoms: C_17  and  C_18 
REMARK    5  A    between atoms: C_24  and  C_25 
ROOT
HETATM    1  C   UNL     1      41.411 -15.822   0.234  1.00  0.00     0.148 A 
HETATM    2  N   UNL     1      40.971 -16.064  -1.023  1.00  0.00    -0.165 NA
HETATM    3  N   UNL     1      40.983 -14.846  -1.597  1.00  0.00    -0.240 N 
HETATM    4  C   UNL     1      41.440 -13.850  -0.780  1.00  0.00     0.123 A 
HETATM    5  N   UNL     1      41.559 -12.577  -1.215  1.00  0.00    -0.364 N 
HETATM    6  C   UNL     1      40.993 -12.166  -2.502  1.00  0.00     0.143 C 
HETATM    7  C   UNL     1      41.157 -13.320  -3.511  1.00  0.00     0.068 C 
HETATM    8  C   UNL     1      40.564 -14.636  -2.972  1.00  0.00     0.221 C 
HETATM    9  C   UNL     1      41.721 -14.446   0.419  1.00  0.00     0.089 A 
HETATM   10  H   UNL     1      41.678 -11.819  -0.544  1.00  0.00     0.162 HD
ENDROOT
BRANCH   1  11
HETATM   11  C   UNL     1      41.528 -16.885   1.247  1.00  0.00     0.276 C 
HETATM   12  N   UNL     1      42.845 -17.206   1.516  1.00  0.00    -0.322 N 
HETATM   13  H   UNL     1      43.513 -16.658   0.979  1.00  0.00     0.169 HD
HETATM   14  O   UNL     1      40.533 -17.401   1.746  1.00  0.00    -0.266 OA
BRANCH  12  15
HETATM   15  C   UNL     1      43.341 -18.205   2.373  1.00  0.00     0.037 A 
HETATM   16  C   UNL     1      43.308 -18.122   3.766  1.00  0.00     0.059 A 
HETATM   17  C   UNL     1      43.778 -19.167   4.589  1.00  0.00     0.042 A 
HETATM   18  C   UNL     1      44.371 -20.290   3.992  1.00  0.00    -0.035 A 
HETATM   19  C   UNL     1      45.038 -21.411   4.739  1.00  0.00     0.050 C 
HETATM   20  C   UNL     1      44.387 -20.373   2.586  1.00  0.00     0.011 A 
HETATM   21  C   UNL     1      43.880 -19.347   1.786  1.00  0.00     0.030 A 
BRANCH  17  22
HETATM   22  N   UNL     1      43.634 -18.929   5.978  1.00  0.00    -0.327 N 
HETATM   23  C   UNL     1      44.522 -18.311   6.837  1.00  0.00     0.218 C 
HETATM   24  C   UNL     1      43.971 -18.203   8.237  1.00  0.00     0.117 C 
HETATM   25  O   UNL     1      45.642 -17.891   6.574  1.00  0.00    -0.274 OA
HETATM   26  H   UNL     1      42.926 -19.492   6.434  1.00  0.00     0.169 HD
ENDBRANCH  17  22
ENDBRANCH  12  15
ENDBRANCH   1  11
BRANCH   8  27
HETATM   27  C   UNL     1      39.053 -14.659  -3.055  1.00  0.00     0.409 C 
HETATM   28  F   UNL     1      38.565 -13.716  -3.890  1.00  0.00    -0.169 F 
HETATM   29  F   UNL     1      38.563 -15.853  -3.448  1.00  0.00    -0.169 F 
HETATM   30  F   UNL     1      38.520 -14.401  -1.833  1.00  0.00    -0.169 F 
ENDBRANCH   8  27
BRANCH   6  31
HETATM   31  C   UNL     1      41.627 -10.922  -3.041  1.00  0.00     0.075 A 
HETATM   32  O   UNL     1      41.963  -9.965  -2.129  1.00  0.00    -0.325 OA
HETATM   33  C   UNL     1      42.535  -8.943  -2.818  1.00  0.00     0.142 A 
HETATM   34  C   UNL     1      42.564  -9.226  -4.163  1.00  0.00     0.027 A 
HETATM   35  C   UNL     1      41.975 -10.504  -4.311  1.00  0.00     0.037 A 
ENDBRANCH   6  31
TORSDOF 5
ENDMDL
MODEL 4
REMARK VINA RESULT:      -8.8      7.655     10.642
REMARK  5 active torsions:
REMARK  status: ('A' for Active; 'I' for Inactive)
REMARK    1  A    between atoms: C_3  and  N_4 
REMARK       I    between atoms: N_4  and  C_5 
REMARK    2  A    between atoms: C_9  and  N_10 
REMARK       I    between atoms: N_10  and  C_11 
REMARK    3  A    between atoms: C_11  and  C_12 
REMARK    4  A    between atoms: C_17  and  C_18 
REMARK    5  A    between atoms: C_24  and  C_25 
ROOT
HETATM    1  C   UNL     1      44.128 -13.355   7.755  1.00  0.00     0.148 A 
HETATM    2  N   UNL     1      44.466 -14.620   8.099  1.00  0.00    -0.165 NA
HETATM    3  N   UNL     1      44.147 -15.336   7.004  1.00  0.00    -0.240 N 
HETATM    4  C   UNL     1      43.654 -14.586   5.972  1.00  0.00     0.123 A 
HETATM    5  N   UNL     1      43.328 -15.142   4.786  1.00  0.00    -0.364 N 
HETATM    6  C   UNL     1      43.273 -16.598   4.628  1.00  0.00     0.143 C 
HETATM    7  C   UNL     1      44.395 -17.235   5.470  1.00  0.00     0.068 C 
HETATM    8  C   UNL     1      44.337 -16.774   6.939  1.00  0.00     0.221 C 
HETATM    9  C   UNL     1      43.622 -13.296   6.427  1.00  0.00     0.089 A 
HETATM   10  H   UNL     1      42.759 -14.622   4.119  1.00  0.00     0.162 HD
ENDROOT
BRANCH   1  11
HETATM   11  C   UNL     1      44.277 -12.219   8.682  1.00  0.00     0.276 C 
HETATM   12  N   UNL     1      43.226 -12.134   9.575  1.00  0.00    -0.322 N 
HETATM   13  H   UNL     1      42.528 -12.864   9.451  1.00  0.00     0.169 HD
HETATM   14  O   UNL     1      45.239 -11.461   8.610  1.00  0.00    -0.266 OA
BRANCH  12  15
HETATM   15  C   UNL     1      42.995 -11.154  10.558  1.00  0.00     0.037 A 
HETATM   16  C   UNL     1      41.810 -10.424  10.666  1.00  0.00     0.059 A 
HETATM   17  C   UNL     1      41.603  -9.481  11.694  1.00  0.00     0.042 A 
HETATM   18  C   UNL     1      42.650  -9.209  12.589  1.00  0.00    -0.035 A 
HETATM   19  C   UNL     1      42.626  -8.136  13.642  1.00  0.00     0.050 C 
HETATM   20  C   UNL     1      43.837  -9.960  12.483  1.00  0.00     0.011 A 
HETATM   21  C   UNL     1      44.008 -10.919  11.482  1.00  0.00     0.030 A 
BRANCH  17  22
HETATM   22  N   UNL     1      40.331  -8.860  11.673  1.00  0.00    -0.327 N 
HETATM   23  C   UNL     1      39.878  -7.864  10.830  1.00  0.00     0.218 C 
HETATM   24  C   UNL     1      38.435  -7.511  11.096  1.00  0.00     0.117 C 
HETATM   25  O   UNL     1      40.512  -7.280   9.961  1.00  0.00    -0.274 OA
HETATM   26  H   UNL     1      39.787  -8.977  12.521  1.00  0.00     0.169 HD
ENDBRANCH  17  22
ENDBRANCH  12  15
ENDBRANCH   1  11
BRANCH   8  27
HETATM   27  C   UNL     1      43.239 -17.471   7.713  1.00  0.00     0.409 C 
HETATM   28  F   UNL     1      43.431 -17.416   9.050  1.00  0.00    -0.169 F 
HETATM   29  F   UNL     1      42.011 -16.977   7.451  1.00  0.00    -0.169 F 
HETATM   30  F   UNL     1      43.209 -18.788   7.385  1.00  0.00    -0.169 F 
ENDBRANCH   8  27
BRANCH   6  31
HETATM   31  C   UNL     1      43.396 -17.029   3.200  1.00  0.00     0.075 A 
HETATM   32  O   UNL     1      42.908 -16.170   2.259  1.00  0.00    -0.325 OA
HETATM   33  C   UNL     1      43.137 -16.737   1.046  1.00  0.00     0.142 A 
HETATM   34  C   UNL     1      43.759 -17.955   1.194  1.00  0.00     0.027 A 
HETATM   35  C   UNL     1      43.925 -18.147   2.586  1.00  0.00     0.037 A 
ENDBRANCH   6  31
TORSDOF 5
ENDMDL
MODEL 5
REMARK VINA RESULT:      -8.7      7.002     10.099
REMARK  5 active torsions:
REMARK  status: ('A' for Active; 'I' for Inactive)
REMARK    1  A    between atoms: C_3  and  N_4 
REMARK       I    between atoms: N_4  and  C_5 
REMARK    2  A    between atoms: C_9  and  N_10 
REMARK       I    between atoms: N_10  and  C_11 
REMARK    3  A    between atoms: C_11  and  C_12 
REMARK    4  A    between atoms: C_17  and  C_18 
REMARK    5  A    between atoms: C_24  and  C_25 
ROOT
HETATM    1  C   UNL     1      42.305 -14.114   5.222  1.00  0.00     0.148 A 
HETATM    2  N   UNL     1      43.052 -14.762   6.146  1.00  0.00    -0.165 NA
HETATM    3  N   UNL     1      43.153 -16.008   5.645  1.00  0.00    -0.240 N 
HETATM    4  C   UNL     1      42.536 -16.175   4.437  1.00  0.00     0.123 A 
HETATM    5  N   UNL     1      42.582 -17.351   3.776  1.00  0.00    -0.364 N 
HETATM    6  C   UNL     1      43.096 -18.559   4.425  1.00  0.00     0.143 C 
HETATM    7  C   UNL     1      44.272 -18.171   5.343  1.00  0.00     0.068 C 
HETATM    8  C   UNL     1      43.876 -17.061   6.336  1.00  0.00     0.221 C 
HETATM    9  C   UNL     1      41.969 -14.967   4.134  1.00  0.00     0.089 A 
HETATM   10  H   UNL     1      41.938 -17.526   3.004  1.00  0.00     0.162 HD
ENDROOT
BRANCH   1  11
HETATM   11  C   UNL     1      41.909 -12.703   5.377  1.00  0.00     0.276 C 
HETATM   12  N   UNL     1      41.422 -12.434   6.643  1.00  0.00    -0.322 N 
HETATM   13  H   UNL     1      41.420 -13.246   7.256  1.00  0.00     0.169 HD
HETATM   14  O   UNL     1      42.007 -11.908   4.448  1.00  0.00    -0.266 OA
BRANCH  12  15
HETATM   15  C   UNL     1      40.897 -11.226   7.136  1.00  0.00     0.037 A 
HETATM   16  C   UNL     1      41.431 -10.533   8.224  1.00  0.00     0.059 A 
HETATM   17  C   UNL     1      40.899  -9.302   8.661  1.00  0.00     0.042 A 
HETATM   18  C   UNL     1      39.750  -8.796   8.034  1.00  0.00    -0.035 A 
HETATM   19  C   UNL     1      38.994  -7.575   8.477  1.00  0.00     0.050 C 
HETATM   20  C   UNL     1      39.227  -9.493   6.927  1.00  0.00     0.011 A 
HETATM   21  C   UNL     1      39.791 -10.691   6.484  1.00  0.00     0.030 A 
BRANCH  17  22
HETATM   22  N   UNL     1      41.587  -8.721   9.754  1.00  0.00    -0.327 N 
HETATM   23  C   UNL     1      41.415  -8.969  11.102  1.00  0.00     0.218 C 
HETATM   24  C   UNL     1      42.386  -8.183  11.949  1.00  0.00     0.117 C 
HETATM   25  O   UNL     1      40.591  -9.709  11.624  1.00  0.00    -0.274 OA
HETATM   26  H   UNL     1      42.070  -7.856   9.541  1.00  0.00     0.169 HD
ENDBRANCH  17  22
ENDBRANCH  12  15
ENDBRANCH   1  11
BRANCH   8  27
HETATM   27  C   UNL     1      43.040 -17.590   7.481  1.00  0.00     0.409 C 
HETATM   28  F   UNL     1      41.716 -17.408   7.285  1.00  0.00    -0.169 F 
HETATM   29  F   UNL     1      43.246 -18.901   7.726  1.00  0.00    -0.169 F 
HETATM   30  F   UNL     1      43.352 -16.926   8.624  1.00  0.00    -0.169 F 
ENDBRANCH   8  27
BRANCH   6  31
HETATM   31  C   UNL     1      43.535 -19.600   3.443  1.00  0.00     0.075 A 
HETATM   32  O   UNL     1      44.394 -20.553   3.908  1.00  0.00    -0.325 OA
HETATM   33  C   UNL     1      44.646 -21.399   2.875  1.00  0.00     0.142 A 
HETATM   34  C   UNL     1      43.966 -20.999   1.749  1.00  0.00     0.027 A 
HETATM   35  C   UNL     1      43.250 -19.834   2.113  1.00  0.00     0.037 A 
ENDBRANCH   6  31
TORSDOF 5
ENDMDL
MODEL 6
REMARK VINA RESULT:      -8.7      1.153      2.361
REMARK  5 active torsions:
REMARK  status: ('A' for Active; 'I' for Inactive)
REMARK    1  A    between atoms: C_3  and  N_4 
REMARK       I    between atoms: N_4  and  C_5 
REMARK    2  A    between atoms: C_9  and  N_10 
REMARK       I    between atoms: N_10  and  C_11 
REMARK    3  A    between atoms: C_11  and  C_12 
REMARK    4  A    between atoms: C_17  and  C_18 
REMARK    5  A    between atoms: C_24  and  C_25 
ROOT
HETATM    1  C   UNL     1      42.227 -15.736   0.936  1.00  0.00     0.148 A 
HETATM    2  N   UNL     1      42.186 -14.386   0.842  1.00  0.00    -0.165 NA
HETATM    3  N   UNL     1      41.371 -14.172  -0.208  1.00  0.00    -0.240 N 
HETATM    4  C   UNL     1      40.867 -15.315  -0.764  1.00  0.00     0.123 A 
HETATM    5  N   UNL     1      39.998 -15.276  -1.796  1.00  0.00    -0.364 N 
HETATM    6  C   UNL     1      39.734 -14.024  -2.510  1.00  0.00     0.143 C 
HETATM    7  C   UNL     1      39.749 -12.860  -1.500  1.00  0.00     0.068 C 
HETATM    8  C   UNL     1      41.053 -12.836  -0.679  1.00  0.00     0.221 C 
HETATM    9  C   UNL     1      41.407 -16.350  -0.050  1.00  0.00     0.089 A 
HETATM   10  H   UNL     1      39.813 -16.119  -2.339  1.00  0.00     0.162 HD
ENDROOT
BRANCH   1  11
HETATM   11  C   UNL     1      43.043 -16.431   1.948  1.00  0.00     0.276 C 
HETATM   12  N   UNL     1      42.396 -16.522   3.166  1.00  0.00    -0.322 N 
HETATM   13  H   UNL     1      41.469 -16.102   3.165  1.00  0.00     0.169 HD
HETATM   14  O   UNL     1      44.167 -16.844   1.684  1.00  0.00    -0.266 OA
BRANCH  12  15
HETATM   15  C   UNL     1      42.881 -17.059   4.372  1.00  0.00     0.037 A 
HETATM   16  C   UNL     1      43.234 -18.399   4.541  1.00  0.00     0.059 A 
HETATM   17  C   UNL     1      43.757 -18.887   5.757  1.00  0.00     0.042 A 
HETATM   18  C   UNL     1      43.852 -18.018   6.855  1.00  0.00    -0.035 A 
HETATM   19  C   UNL     1      44.256 -18.427   8.244  1.00  0.00     0.050 C 
HETATM   20  C   UNL     1      43.508 -16.664   6.672  1.00  0.00     0.011 A 
HETATM   21  C   UNL     1      43.030 -16.190   5.449  1.00  0.00     0.030 A 
BRANCH  17  22
HETATM   22  N   UNL     1      44.095 -20.262   5.739  1.00  0.00    -0.327 N 
HETATM   23  C   UNL     1      44.861 -20.944   4.813  1.00  0.00     0.218 C 
HETATM   24  C   UNL     1      45.034 -22.396   5.183  1.00  0.00     0.117 C 
HETATM   25  O   UNL     1      45.359 -20.498   3.788  1.00  0.00    -0.274 OA
HETATM   26  H   UNL     1      43.509 -20.851   6.320  1.00  0.00     0.169 HD
ENDBRANCH  17  22
ENDBRANCH  12  15
ENDBRANCH   1  11
BRANCH   8  27
HETATM   27  C   UNL     1      42.217 -12.281  -1.471  1.00  0.00     0.409 C 
HETATM   28  F   UNL     1      43.078 -11.577  -0.704  1.00  0.00    -0.169 F 
HETATM   29  F   UNL     1      42.921 -13.234  -2.115  1.00  0.00    -0.169 F 
HETATM   30  F   UNL     1      41.761 -11.423  -2.420  1.00  0.00    -0.169 F 
ENDBRANCH   8  27
BRANCH   6  31
HETATM   31  C   UNL     1      38.432 -14.043  -3.249  1.00  0.00     0.075 A 
HETATM   32  O   UNL     1      37.841 -12.835  -3.474  1.00  0.00    -0.325 OA
HETATM   33  C   UNL     1      36.697 -13.075  -4.167  1.00  0.00     0.142 A 
HETATM   34  C   UNL     1      36.541 -14.424  -4.385  1.00  0.00     0.027 A 
HETATM   35  C   UNL     1      37.660 -15.052  -3.790  1.00  0.00     0.037 A 
ENDBRANCH   6  31
TORSDOF 5
ENDMDL
MODEL 7
REMARK VINA RESULT:      -8.5      2.445      3.309
REMARK  5 active torsions:
REMARK  status: ('A' for Active; 'I' for Inactive)
REMARK    1  A    between atoms: C_3  and  N_4 
REMARK       I    between atoms: N_4  and  C_5 
REMARK    2  A    between atoms: C_9  and  N_10 
REMARK       I    between atoms: N_10  and  C_11 
REMARK    3  A    between atoms: C_11  and  C_12 
REMARK    4  A    between atoms: C_17  and  C_18 
REMARK    5  A    between atoms: C_24  and  C_25 
ROOT
HETATM    1  C   UNL     1      41.335 -15.581   2.033  1.00  0.00     0.148 A 
HETATM    2  N   UNL     1      40.228 -14.962   2.507  1.00  0.00    -0.165 NA
HETATM    3  N   UNL     1      39.602 -14.545   1.390  1.00  0.00    -0.240 N 
HETATM    4  C   UNL     1      40.237 -14.897   0.232  1.00  0.00     0.123 A 
HETATM    5  N   UNL     1      39.718 -14.597  -0.978  1.00  0.00    -0.364 N 
HETATM    6  C   UNL     1      38.576 -13.688  -1.103  1.00  0.00     0.143 C 
HETATM    7  C   UNL     1      37.620 -13.922   0.084  1.00  0.00     0.068 C 
HETATM    8  C   UNL     1      38.352 -13.807   1.435  1.00  0.00     0.221 C 
HETATM    9  C   UNL     1      41.369 -15.565   0.612  1.00  0.00     0.089 A 
HETATM   10  H   UNL     1      40.302 -14.660  -1.812  1.00  0.00     0.162 HD
ENDROOT
BRANCH   1  11
HETATM   11  C   UNL     1      42.349 -16.173   2.923  1.00  0.00     0.276 C 
HETATM   12  N   UNL     1      41.789 -16.707   4.069  1.00  0.00    -0.322 N 
HETATM   13  H   UNL     1      40.777 -16.609   4.108  1.00  0.00     0.169 HD
HETATM   14  O   UNL     1      43.541 -16.149   2.635  1.00  0.00    -0.266 OA
BRANCH  12  15
HETATM   15  C   UNL     1      42.444 -17.296   5.166  1.00  0.00     0.037 A 
HETATM   16  C   UNL     1      42.939 -18.601   5.168  1.00  0.00     0.059 A 
HETATM   17  C   UNL     1      43.627 -19.139   6.275  1.00  0.00     0.042 A 
HETATM   18  C   UNL     1      43.750 -18.366   7.441  1.00  0.00    -0.035 A 
HETATM   19  C   UNL     1      44.332 -18.853   8.739  1.00  0.00     0.050 C 
HETATM   20  C   UNL     1      43.262 -17.045   7.425  1.00  0.00     0.011 A 
HETATM   21  C   UNL     1      42.618 -16.516   6.305  1.00  0.00     0.030 A 
BRANCH  17  22
HETATM   22  N   UNL     1      44.091 -20.464   6.091  1.00  0.00    -0.327 N 
HETATM   23  C   UNL     1      44.816 -20.977   5.032  1.00  0.00     0.218 C 
HETATM   24  C   UNL     1      45.165 -22.431   5.240  1.00  0.00     0.117 C 
HETATM   25  O   UNL     1      45.156 -20.394   4.012  1.00  0.00    -0.274 OA
HETATM   26  H   UNL     1      43.629 -21.159   6.666  1.00  0.00     0.169 HD
ENDBRANCH  17  22
ENDBRANCH  12  15
ENDBRANCH   1  11
BRANCH   8  27
HETATM   27  C   UNL     1      38.621 -12.369   1.820  1.00  0.00     0.409 C 
HETATM   28  F   UNL     1      39.830 -11.935   1.400  1.00  0.00    -0.169 F 
HETATM   29  F   UNL     1      37.689 -11.513   1.351  1.00  0.00    -0.169 F 
HETATM   30  F   UNL     1      38.619 -12.245   3.173  1.00  0.00    -0.169 F 
ENDBRANCH   8  27
BRANCH   6  31
HETATM   31  C   UNL     1      37.839 -13.860  -2.394  1.00  0.00     0.075 A 
HETATM   32  O   UNL     1      37.233 -12.748  -2.903  1.00  0.00    -0.325 OA
HETATM   33  C   UNL     1      36.648 -13.115  -4.072  1.00  0.00     0.142 A 
HETATM   34  C   UNL     1      36.862 -14.450  -4.320  1.00  0.00     0.027 A 
HETATM   35  C   UNL     1      37.630 -14.935  -3.235  1.00  0.00     0.037 A 
ENDBRANCH   6  31
TORSDOF 5
ENDMDL
MODEL 8
REMARK VINA RESULT:      -8.3      2.807     10.277
REMARK  5 active torsions:
REMARK  status: ('A' for Active; 'I' for Inactive)
REMARK    1  A    between atoms: C_3  and  N_4 
REMARK       I    between atoms: N_4  and  C_5 
REMARK    2  A    between atoms: C_9  and  N_10 
REMARK       I    between atoms: N_10  and  C_11 
REMARK    3  A    between atoms: C_11  and  C_12 
REMARK    4  A    between atoms: C_17  and  C_18 
REMARK    5  A    between atoms: C_24  and  C_25 
ROOT
HETATM    1  C   UNL     1      40.547 -15.312   1.696  1.00  0.00     0.148 A 
HETATM    2  N   UNL     1      41.078 -16.508   1.351  1.00  0.00    -0.165 NA
HETATM    3  N   UNL     1      41.821 -16.840   2.425  1.00  0.00    -0.240 N 
HETATM    4  C   UNL     1      41.762 -15.931   3.444  1.00  0.00     0.123 A 
HETATM    5  N   UNL     1      42.412 -16.133   4.610  1.00  0.00    -0.364 N 
HETATM    6  C   UNL     1      43.387 -17.218   4.750  1.00  0.00     0.143 C 
HETATM    7  C   UNL     1      42.895 -18.438   3.946  1.00  0.00     0.068 C 
HETATM    8  C   UNL     1      42.592 -18.069   2.481  1.00  0.00     0.221 C 
HETATM    9  C   UNL     1      40.949 -14.923   3.003  1.00  0.00     0.089 A 
HETATM   10  H   UNL     1      42.545 -15.358   5.260  1.00  0.00     0.162 HD
ENDROOT
BRANCH   1  11
HETATM   11  C   UNL     1      39.674 -14.546   0.788  1.00  0.00     0.276 C 
HETATM   12  N   UNL     1      40.341 -14.132  -0.350  1.00  0.00    -0.322 N 
HETATM   13  H   UNL     1      41.315 -14.425  -0.377  1.00  0.00     0.169 HD
HETATM   14  O   UNL     1      38.503 -14.319   1.073  1.00  0.00    -0.266 OA
BRANCH  12  15
HETATM   15  C   UNL     1      39.856 -13.336  -1.403  1.00  0.00     0.037 A 
HETATM   16  C   UNL     1      38.920 -13.773  -2.341  1.00  0.00     0.059 A 
HETATM   17  C   UNL     1      38.427 -12.928  -3.357  1.00  0.00     0.042 A 
HETATM   18  C   UNL     1      38.953 -11.631  -3.479  1.00  0.00    -0.035 A 
HETATM   19  C   UNL     1      38.630 -10.672  -4.589  1.00  0.00     0.050 C 
HETATM   20  C   UNL     1      39.886 -11.193  -2.519  1.00  0.00     0.011 A 
HETATM   21  C   UNL     1      40.332 -12.032  -1.495  1.00  0.00     0.030 A 
BRANCH  17  22
HETATM   22  N   UNL     1      37.457 -13.524  -4.198  1.00  0.00    -0.327 N 
HETATM   23  C   UNL     1      36.143 -13.142  -4.394  1.00  0.00     0.218 C 
HETATM   24  C   UNL     1      35.450 -14.008  -5.418  1.00  0.00     0.117 C 
HETATM   25  O   UNL     1      35.541 -12.236  -3.834  1.00  0.00    -0.274 OA
HETATM   26  H   UNL     1      37.670 -14.472  -4.488  1.00  0.00     0.169 HD
ENDBRANCH  17  22
ENDBRANCH  12  15
ENDBRANCH   1  11
BRANCH   8  27
HETATM   27  C   UNL     1      43.851 -17.921   1.656  1.00  0.00     0.409 C 
HETATM   28  F   UNL     1      43.646 -18.170   0.344  1.00  0.00    -0.169 F 
HETATM   29  F   UNL     1      44.413 -16.699   1.762  1.00  0.00    -0.169 F 
HETATM   30  F   UNL     1      44.783 -18.817   2.073  1.00  0.00    -0.169 F 
ENDBRANCH   8  27
BRANCH   6  31
HETATM   31  C   UNL     1      43.620 -17.606   6.177  1.00  0.00     0.075 A 
HETATM   32  O   UNL     1      43.042 -16.814   7.126  1.00  0.00    -0.325 OA
HETATM   33  C   UNL     1      43.357 -17.348   8.334  1.00  0.00     0.142 A 
HETATM   34  C   UNL     1      44.138 -18.469   8.176  1.00  0.00     0.027 A 
HETATM   35  C   UNL     1      44.312 -18.636   6.782  1.00  0.00     0.037 A 
ENDBRANCH   6  31
TORSDOF 5
ENDMDL
MODEL 9
REMARK VINA RESULT:      -8.3      6.505     10.402
REMARK  5 active torsions:
REMARK  status: ('A' for Active; 'I' for Inactive)
REMARK    1  A    between atoms: C_3  and  N_4 
REMARK       I    between atoms: N_4  and  C_5 
REMARK    2  A    between atoms: C_9  and  N_10 
REMARK       I    between atoms: N_10  and  C_11 
REMARK    3  A    between atoms: C_11  and  C_12 
REMARK    4  A    between atoms: C_17  and  C_18 
REMARK    5  A    between atoms: C_24  and  C_25 
ROOT
HETATM    1  C   UNL     1      42.774 -14.434   5.201  1.00  0.00     0.148 A 
HETATM    2  N   UNL     1      43.494 -15.034   6.177  1.00  0.00    -0.165 NA
HETATM    3  N   UNL     1      43.593 -16.308   5.752  1.00  0.00    -0.240 N 
HETATM    4  C   UNL     1      43.001 -16.539   4.541  1.00  0.00     0.123 A 
HETATM    5  N   UNL     1      43.049 -17.752   3.951  1.00  0.00    -0.364 N 
HETATM    6  C   UNL     1      43.536 -18.925   4.681  1.00  0.00     0.143 C 
HETATM    7  C   UNL     1      44.695 -18.495   5.601  1.00  0.00     0.068 C 
HETATM    8  C   UNL     1      44.290 -17.325   6.519  1.00  0.00     0.221 C 
HETATM    9  C   UNL     1      42.454 -15.345   4.157  1.00  0.00     0.089 A 
HETATM   10  H   UNL     1      42.421 -17.966   3.176  1.00  0.00     0.162 HD
ENDROOT
BRANCH   1  11
HETATM   11  C   UNL     1      42.389 -13.012   5.265  1.00  0.00     0.276 C 
HETATM   12  N   UNL     1      42.043 -12.624   6.545  1.00  0.00    -0.322 N 
HETATM   13  H   UNL     1      42.113 -13.374   7.229  1.00  0.00     0.169 HD
HETATM   14  O   UNL     1      42.380 -12.310   4.260  1.00  0.00    -0.266 OA
BRANCH  12  15
HETATM   15  C   UNL     1      41.569 -11.372   6.977  1.00  0.00     0.037 A 
HETATM   16  C   UNL     1      40.474 -10.717   6.411  1.00  0.00     0.059 A 
HETATM   17  C   UNL     1      40.005  -9.481   6.903  1.00  0.00     0.042 A 
HETATM   18  C   UNL     1      40.708  -8.851   7.942  1.00  0.00    -0.035 A 
HETATM   19  C   UNL     1      40.411  -7.476   8.472  1.00  0.00     0.050 C 
HETATM   20  C   UNL     1      41.803  -9.525   8.518  1.00  0.00     0.011 A 
HETATM   21  C   UNL     1      42.228 -10.768   8.043  1.00  0.00     0.030 A 
BRANCH  17  22
HETATM   22  N   UNL     1      38.862  -8.979   6.234  1.00  0.00    -0.327 N 
HETATM   23  C   UNL     1      38.813  -8.146   5.133  1.00  0.00     0.218 C 
HETATM   24  C   UNL     1      37.395  -7.884   4.687  1.00  0.00     0.117 C 
HETATM   25  O   UNL     1      39.756  -7.631   4.547  1.00  0.00    -0.274 OA
HETATM   26  H   UNL     1      38.002  -9.028   6.768  1.00  0.00     0.169 HD
ENDBRANCH  17  22
ENDBRANCH  12  15
ENDBRANCH   1  11
BRANCH   8  27
HETATM   27  C   UNL     1      43.424 -17.779   7.673  1.00  0.00     0.409 C 
HETATM   28  F   UNL     1      43.560 -19.097   7.940  1.00  0.00    -0.169 F 
HETATM   29  F   UNL     1      43.664 -17.100   8.814  1.00  0.00    -0.169 F 
HETATM   30  F   UNL     1      42.114 -17.584   7.371  1.00  0.00    -0.169 F 
ENDBRANCH   8  27
BRANCH   6  31
HETATM   31  C   UNL     1      43.986 -20.026   3.771  1.00  0.00     0.075 A 
HETATM   32  O   UNL     1      44.519 -21.131   4.368  1.00  0.00    -0.325 OA
HETATM   33  C   UNL     1      44.839 -22.003   3.377  1.00  0.00     0.142 A 
HETATM   34  C   UNL     1      44.525 -21.471   2.148  1.00  0.00     0.027 A 
HETATM   35  C   UNL     1      43.976 -20.191   2.400  1.00  0.00     0.037 A 
ENDBRANCH   6  31
TORSDOF 5
ENDMDL
MODEL 10
REMARK VINA RESULT:      -8.2      3.363      9.993
REMARK  5 active torsions:
REMARK  status: ('A' for Active; 'I' for Inactive)
REMARK    1  A    between atoms: C_3  and  N_4 
REMARK       I    between atoms: N_4  and  C_5 
REMARK    2  A    between atoms: C_9  and  N_10 
REMARK       I    between atoms: N_10  and  C_11 
REMARK    3  A    between atoms: C_11  and  C_12 
REMARK    4  A    between atoms: C_17  and  C_18 
REMARK    5  A    between atoms: C_24  and  C_25 
ROOT
HETATM    1  C   UNL     1      41.796 -15.338   1.346  1.00  0.00     0.148 A 
HETATM    2  N   UNL     1      41.856 -16.686   1.248  1.00  0.00    -0.165 NA
HETATM    3  N   UNL     1      42.415 -17.058   2.415  1.00  0.00    -0.240 N 
HETATM    4  C   UNL     1      42.682 -16.018   3.262  1.00  0.00     0.123 A 
HETATM    5  N   UNL     1      43.200 -16.221   4.491  1.00  0.00    -0.364 N 
HETATM    6  C   UNL     1      43.710 -17.538   4.884  1.00  0.00     0.143 C 
HETATM    7  C   UNL     1      42.815 -18.627   4.260  1.00  0.00     0.068 C 
HETATM    8  C   UNL     1      42.683 -18.449   2.735  1.00  0.00     0.221 C 
HETATM    9  C   UNL     1      42.298 -14.885   2.597  1.00  0.00     0.089 A 
HETATM   10  H   UNL     1      43.600 -15.440   5.011  1.00  0.00     0.162 HD
ENDROOT
BRANCH   1  11
HETATM   11  C   UNL     1      41.273 -14.491   0.259  1.00  0.00     0.276 C 
HETATM   12  N   UNL     1      42.282 -13.982  -0.536  1.00  0.00    -0.322 N 
HETATM   13  H   UNL     1      43.212 -14.276  -0.247  1.00  0.00     0.169 HD
HETATM   14  O   UNL     1      40.070 -14.285   0.135  1.00  0.00    -0.266 OA
BRANCH  12  15
HETATM   15  C   UNL     1      42.172 -13.094  -1.622  1.00  0.00     0.037 A 
HETATM   16  C   UNL     1      42.658 -11.786  -1.609  1.00  0.00     0.059 A 
HETATM   17  C   UNL     1      42.565 -10.941  -2.735  1.00  0.00     0.042 A 
HETATM   18  C   UNL     1      41.892 -11.403  -3.878  1.00  0.00    -0.035 A 
HETATM   19  C   UNL     1      41.594 -10.572  -5.094  1.00  0.00     0.050 C 
HETATM   20  C   UNL     1      41.418 -12.729  -3.888  1.00  0.00     0.011 A 
HETATM   21  C   UNL     1      41.555 -13.564  -2.777  1.00  0.00     0.030 A 
BRANCH  17  22
HETATM   22  N   UNL     1      43.142  -9.661  -2.557  1.00  0.00    -0.327 N 
HETATM   23  C   UNL     1      42.565  -8.530  -2.013  1.00  0.00     0.218 C 
HETATM   24  C   UNL     1      43.535  -7.375  -1.950  1.00  0.00     0.117 C 
HETATM   25  O   UNL     1      41.413  -8.397  -1.622  1.00  0.00    -0.274 OA
HETATM   26  H   UNL     1      43.970  -9.487  -3.115  1.00  0.00     0.169 HD
ENDBRANCH  17  22
ENDBRANCH  12  15
ENDBRANCH   1  11
BRANCH   8  27
HETATM   27  C   UNL     1      43.919 -18.915   1.996  1.00  0.00     0.409 C 
HETATM   28  F   UNL     1      44.746 -19.645   2.776  1.00  0.00    -0.169 F 
HETATM   29  F   UNL     1      43.635 -19.645   0.898  1.00  0.00    -0.169 F 
HETATM   30  F   UNL     1      44.638 -17.842   1.577  1.00  0.00    -0.169 F 
ENDBRANCH   8  27
BRANCH   6  31
HETATM   31  C   UNL     1      43.770 -17.714   6.370  1.00  0.00     0.075 A 
HETATM   32  O   UNL     1      43.284 -16.688   7.126  1.00  0.00    -0.325 OA
HETATM   33  C   UNL     1      43.413 -17.057   8.427  1.00  0.00     0.142 A 
HETATM   34  C   UNL     1      43.982 -18.305   8.519  1.00  0.00     0.027 A 
HETATM   35  C   UNL     1      44.217 -18.731   7.190  1.00  0.00     0.037 A 
ENDBRANCH   6  31
TORSDOF 5
ENDMDL
