MODEL 1
REMARK VINA RESULT:      -8.9      0.000      0.000
REMARK  4 active torsions:
REMARK  status: ('A' for Active; 'I' for Inactive)
REMARK    1  A    between atoms: O_2  and  C_3 
REMARK    2  A    between atoms: C_8  and  C_9 
REMARK    3  A    between atoms: N_11  and  C_12 
REMARK    4  A    between atoms: C_12  and  C_13 
ROOT
HETATM    1  C   UNL     1      40.869 -11.738  -3.281  1.00  0.00     0.069 A 
HETATM    2  C   UNL     1      40.617 -13.092  -3.508  1.00  0.00     0.056 A 
HETATM    3  C   UNL     1      40.877 -14.025  -2.502  1.00  0.00     0.063 A 
HETATM    4  C   UNL     1      41.394 -13.638  -1.264  1.00  0.00     0.074 A 
HETATM    5  N   UNL     1      41.652 -14.554  -0.229  1.00  0.00    -0.234 NA
HETATM    6  C   UNL     1      41.389 -15.802  -0.441  1.00  0.00     0.113 A 
HETATM    7  N   UNL     1      40.874 -16.265  -1.627  1.00  0.00    -0.310 N 
HETATM    8  C   UNL     1      40.605 -15.455  -2.702  1.00  0.00     0.259 A 
HETATM    9  O   UNL     1      40.167 -15.903  -3.755  1.00  0.00    -0.267 OA
HETATM   10  C   UNL     1      41.654 -12.284  -1.050  1.00  0.00     0.035 A 
HETATM   11  C   UNL     1      41.393 -11.337  -2.050  1.00  0.00     0.039 A 
HETATM   12  H   UNL     1      40.687 -17.247  -1.773  1.00  0.00     0.170 HD
ENDROOT
BRANCH   6  13
HETATM   13  C   UNL     1      41.592 -16.860   0.618  1.00  0.00     0.082 C 
HETATM   14  C   UNL     1      43.002 -16.922   1.189  1.00  0.00     0.139 C 
HETATM   15  N   UNL     1      42.795 -17.370   2.544  1.00  0.00    -0.347 N 
HETATM   16  C   UNL     1      41.503 -17.170   2.982  1.00  0.00     0.220 C 
HETATM   17  O   UNL     1      41.059 -17.400   4.095  1.00  0.00    -0.273 OA
HETATM   18  C   UNL     1      40.712 -16.587   1.841  1.00  0.00     0.117 C 
BRANCH  15  19
HETATM   19  C   UNL     1      43.864 -17.905   3.366  1.00  0.00     0.164 C 
BRANCH  19  20
HETATM   20  C   UNL     1      44.036 -19.389   3.154  1.00  0.00    -0.040 A 
HETATM   21  C   UNL     1      43.611 -20.002   1.967  1.00  0.00     0.009 A 
HETATM   22  C   UNL     1      43.770 -21.377   1.786  1.00  0.00     0.001 A 
HETATM   23  C   UNL     1      44.352 -22.153   2.787  1.00  0.00     0.000 A 
HETATM   24  C   UNL     1      44.777 -21.555   3.972  1.00  0.00     0.001 A 
HETATM   25  C   UNL     1      44.622 -20.181   4.155  1.00  0.00     0.009 A 
ENDBRANCH  19  20
ENDBRANCH  15  19
ENDBRANCH   6  13
BRANCH   1  26
HETATM   26  O   UNL     1      40.567 -10.917  -4.332  1.00  0.00    -0.356 OA
HETATM   27  C   UNL     1      41.652 -10.481  -5.142  1.00  0.00     0.210 C 
ENDBRANCH   1  26
TORSDOF 4
ENDMDL
MODEL 2
REMARK VINA RESULT:      -8.8      2.703      8.627
REMARK  4 active torsions:
REMARK  status: ('A' for Active; 'I' for Inactive)
REMARK    1  A    between atoms: O_2  and  C_3 
REMARK    2  A    between atoms: C_8  and  C_9 
REMARK    3  A    between atoms: N_11  and  C_12 
REMARK    4  A    between atoms: C_12  and  C_13 
ROOT
HETATM    1  C   UNL     1      44.608 -20.077   3.883  1.00  0.00     0.069 A 
HETATM    2  C   UNL     1      44.326 -18.912   4.597  1.00  0.00     0.056 A 
HETATM    3  C   UNL     1      43.541 -17.913   4.015  1.00  0.00     0.063 A 
HETATM    4  C   UNL     1      43.032 -18.046   2.722  1.00  0.00     0.074 A 
HETATM    5  N   UNL     1      42.229 -17.064   2.118  1.00  0.00    -0.234 NA
HETATM    6  C   UNL     1      41.951 -16.001   2.799  1.00  0.00     0.113 A 
HETATM    7  N   UNL     1      42.406 -15.794   4.078  1.00  0.00    -0.310 N 
HETATM    8  C   UNL     1      43.209 -16.683   4.748  1.00  0.00     0.259 A 
HETATM    9  O   UNL     1      43.618 -16.459   5.880  1.00  0.00    -0.267 OA
HETATM   10  C   UNL     1      43.330 -19.209   2.011  1.00  0.00     0.035 A 
HETATM   11  C   UNL     1      44.112 -20.221   2.585  1.00  0.00     0.039 A 
HETATM   12  H   UNL     1      42.185 -14.950   4.586  1.00  0.00     0.170 HD
ENDROOT
BRANCH   6  13
HETATM   13  C   UNL     1      41.064 -14.905   2.257  1.00  0.00     0.082 C 
HETATM   14  C   UNL     1      41.297 -14.568   0.790  1.00  0.00     0.139 C 
HETATM   15  N   UNL     1      39.998 -14.142   0.333  1.00  0.00    -0.347 N 
HETATM   16  C   UNL     1      38.975 -14.574   1.152  1.00  0.00     0.220 C 
HETATM   17  O   UNL     1      37.778 -14.411   0.982  1.00  0.00    -0.273 OA
HETATM   18  C   UNL     1      39.590 -15.316   2.309  1.00  0.00     0.117 C 
BRANCH  15  19
HETATM   19  C   UNL     1      39.802 -13.402  -0.898  1.00  0.00     0.164 C 
BRANCH  19  20
HETATM   20  C   UNL     1      39.369 -14.307  -2.026  1.00  0.00    -0.040 A 
HETATM   21  C   UNL     1      40.266 -15.216  -2.604  1.00  0.00     0.009 A 
HETATM   22  C   UNL     1      39.855 -16.044  -3.651  1.00  0.00     0.001 A 
HETATM   23  C   UNL     1      38.548 -15.969  -4.132  1.00  0.00     0.000 A 
HETATM   24  C   UNL     1      37.649 -15.067  -3.566  1.00  0.00     0.001 A 
HETATM   25  C   UNL     1      38.056 -14.241  -2.517  1.00  0.00     0.009 A 
ENDBRANCH  19  20
ENDBRANCH  15  19
ENDBRANCH   6  13
BRANCH   1  26
HETATM   26  O   UNL     1      45.375 -20.987   4.555  1.00  0.00    -0.356 OA
HETATM   27  C   UNL     1      44.767 -22.233   4.872  1.00  0.00     0.210 C 
ENDBRANCH   1  26
TORSDOF 4
ENDMDL
MODEL 3
REMARK VINA RESULT:      -8.6      6.604      9.271
REMARK  4 active torsions:
REMARK  status: ('A' for Active; 'I' for Inactive)
REMARK    1  A    between atoms: O_2  and  C_3 
REMARK    2  A    between atoms: C_8  and  C_9 
REMARK    3  A    between atoms: N_11  and  C_12 
REMARK    4  A    between atoms: C_12  and  C_13 
ROOT
HETATM    1  C   UNL     1      44.031 -10.300  10.866  1.00  0.00     0.069 A 
HETATM    2  C   UNL     1      43.157 -10.419   9.785  1.00  0.00     0.056 A 
HETATM    3  C   UNL     1      43.356 -11.425   8.837  1.00  0.00     0.063 A 
HETATM    4  C   UNL     1      44.422 -12.322   8.938  1.00  0.00     0.074 A 
HETATM    5  N   UNL     1      44.638 -13.352   8.008  1.00  0.00    -0.234 NA
HETATM    6  C   UNL     1      43.805 -13.470   7.025  1.00  0.00     0.113 A 
HETATM    7  N   UNL     1      42.729 -12.634   6.856  1.00  0.00    -0.310 N 
HETATM    8  C   UNL     1      42.442 -11.589   7.698  1.00  0.00     0.259 A 
HETATM    9  O   UNL     1      41.487 -10.848   7.507  1.00  0.00    -0.267 OA
HETATM   10  C   UNL     1      45.298 -12.188  10.016  1.00  0.00     0.035 A 
HETATM   11  C   UNL     1      45.106 -11.185  10.976  1.00  0.00     0.039 A 
HETATM   12  H   UNL     1      42.099 -12.739   6.073  1.00  0.00     0.170 HD
ENDROOT
BRANCH   6  13
HETATM   13  C   UNL     1      43.926 -14.567   5.994  1.00  0.00     0.082 C 
HETATM   14  C   UNL     1      42.830 -15.622   6.059  1.00  0.00     0.139 C 
HETATM   15  N   UNL     1      42.694 -16.051   4.690  1.00  0.00    -0.347 N 
HETATM   16  C   UNL     1      43.209 -15.140   3.791  1.00  0.00     0.220 C 
HETATM   17  O   UNL     1      43.183 -15.212   2.574  1.00  0.00    -0.273 OA
HETATM   18  C   UNL     1      43.806 -14.002   4.575  1.00  0.00     0.117 C 
BRANCH  15  19
HETATM   19  C   UNL     1      42.020 -17.278   4.314  1.00  0.00     0.164 C 
BRANCH  19  20
HETATM   20  C   UNL     1      43.005 -18.365   3.959  1.00  0.00    -0.040 A 
HETATM   21  C   UNL     1      43.097 -18.853   2.648  1.00  0.00     0.009 A 
HETATM   22  C   UNL     1      44.008 -19.864   2.334  1.00  0.00     0.001 A 
HETATM   23  C   UNL     1      44.832 -20.397   3.324  1.00  0.00     0.000 A 
HETATM   24  C   UNL     1      44.748 -19.920   4.630  1.00  0.00     0.001 A 
HETATM   25  C   UNL     1      43.841 -18.908   4.947  1.00  0.00     0.009 A 
ENDBRANCH  19  20
ENDBRANCH  15  19
ENDBRANCH   6  13
BRANCH   1  26
HETATM   26  O   UNL     1      43.732  -9.287  11.734  1.00  0.00    -0.356 OA
HETATM   27  C   UNL     1      43.400  -9.656  13.067  1.00  0.00     0.210 C 
ENDBRANCH   1  26
TORSDOF 4
ENDMDL
MODEL 4
REMARK VINA RESULT:      -8.3      4.625      5.493
REMARK  4 active torsions:
REMARK  status: ('A' for Active; 'I' for Inactive)
REMARK    1  A    between atoms: O_2  and  C_3 
REMARK    2  A    between atoms: C_8  and  C_9 
REMARK    3  A    between atoms: N_11  and  C_12 
REMARK    4  A    between atoms: C_12  and  C_13 
ROOT
HETATM    1  C   UNL     1      39.012 -11.208   4.706  1.00  0.00     0.069 A 
HETATM    2  C   UNL     1      39.111 -12.238   3.770  1.00  0.00     0.056 A 
HETATM    3  C   UNL     1      39.746 -13.432   4.115  1.00  0.00     0.063 A 
HETATM    4  C   UNL     1      40.299 -13.624   5.384  1.00  0.00     0.074 A 
HETATM    5  N   UNL     1      40.931 -14.821   5.763  1.00  0.00    -0.234 NA
HETATM    6  C   UNL     1      40.992 -15.779   4.896  1.00  0.00     0.113 A 
HETATM    7  N   UNL     1      40.470 -15.673   3.631  1.00  0.00    -0.310 N 
HETATM    8  C   UNL     1      39.850 -14.543   3.159  1.00  0.00     0.259 A 
HETATM    9  O   UNL     1      39.415 -14.474   2.017  1.00  0.00    -0.267 OA
HETATM   10  C   UNL     1      40.205 -12.585   6.309  1.00  0.00     0.035 A 
HETATM   11  C   UNL     1      39.566 -11.382   5.976  1.00  0.00     0.039 A 
HETATM   12  H   UNL     1      40.540 -16.432   2.967  1.00  0.00     0.170 HD
ENDROOT
BRANCH   6  13
HETATM   13  C   UNL     1      41.614 -17.117   5.217  1.00  0.00     0.082 C 
HETATM   14  C   UNL     1      42.958 -17.368   4.548  1.00  0.00     0.139 C 
HETATM   15  N   UNL     1      43.648 -18.217   5.487  1.00  0.00    -0.347 N 
HETATM   16  C   UNL     1      43.114 -18.153   6.757  1.00  0.00     0.220 C 
HETATM   17  O   UNL     1      43.525 -18.718   7.757  1.00  0.00    -0.273 OA
HETATM   18  C   UNL     1      41.921 -17.235   6.713  1.00  0.00     0.117 C 
BRANCH  15  19
HETATM   19  C   UNL     1      44.821 -18.992   5.132  1.00  0.00     0.164 C 
BRANCH  19  20
HETATM   20  C   UNL     1      44.515 -19.995   4.046  1.00  0.00    -0.040 A 
HETATM   21  C   UNL     1      43.920 -19.594   2.842  1.00  0.00     0.009 A 
HETATM   22  C   UNL     1      43.635 -20.533   1.848  1.00  0.00     0.001 A 
HETATM   23  C   UNL     1      43.940 -21.879   2.048  1.00  0.00     0.000 A 
HETATM   24  C   UNL     1      44.531 -22.288   3.241  1.00  0.00     0.001 A 
HETATM   25  C   UNL     1      44.818 -21.352   4.235  1.00  0.00     0.009 A 
ENDBRANCH  19  20
ENDBRANCH  15  19
ENDBRANCH   6  13
BRANCH   1  26
HETATM   26  O   UNL     1      38.362 -10.091   4.260  1.00  0.00    -0.356 OA
HETATM   27  C   UNL     1      37.673 -10.197   3.020  1.00  0.00     0.210 C 
ENDBRANCH   1  26
TORSDOF 4
ENDMDL
MODEL 5
REMARK VINA RESULT:      -8.2      2.184      2.432
REMARK  4 active torsions:
REMARK  status: ('A' for Active; 'I' for Inactive)
REMARK    1  A    between atoms: O_2  and  C_3 
REMARK    2  A    between atoms: C_8  and  C_9 
REMARK    3  A    between atoms: N_11  and  C_12 
REMARK    4  A    between atoms: C_12  and  C_13 
ROOT
HETATM    1  C   UNL     1      38.102 -12.340  -1.169  1.00  0.00     0.069 A 
HETATM    2  C   UNL     1      39.172 -13.129  -1.591  1.00  0.00     0.056 A 
HETATM    3  C   UNL     1      39.692 -14.108  -0.741  1.00  0.00     0.063 A 
HETATM    4  C   UNL     1      39.169 -14.317   0.537  1.00  0.00     0.074 A 
HETATM    5  N   UNL     1      39.662 -15.303   1.407  1.00  0.00    -0.234 NA
HETATM    6  C   UNL     1      40.637 -16.047   0.995  1.00  0.00     0.113 A 
HETATM    7  N   UNL     1      41.204 -15.911  -0.248  1.00  0.00    -0.310 N 
HETATM    8  C   UNL     1      40.806 -14.968  -1.163  1.00  0.00     0.259 A 
HETATM    9  O   UNL     1      41.348 -14.858  -2.255  1.00  0.00    -0.267 OA
HETATM   10  C   UNL     1      38.106 -13.515   0.955  1.00  0.00     0.035 A 
HETATM   11  C   UNL     1      37.573 -12.532   0.109  1.00  0.00     0.039 A 
HETATM   12  H   UNL     1      41.972 -16.497  -0.543  1.00  0.00     0.170 HD
ENDROOT
BRANCH   6  13
HETATM   13  C   UNL     1      41.213 -17.161   1.837  1.00  0.00     0.082 C 
HETATM   14  C   UNL     1      42.729 -17.139   1.966  1.00  0.00     0.139 C 
HETATM   15  N   UNL     1      42.964 -17.708   3.270  1.00  0.00    -0.347 N 
HETATM   16  C   UNL     1      41.849 -17.661   4.082  1.00  0.00     0.220 C 
HETATM   17  O   UNL     1      41.772 -18.016   5.246  1.00  0.00    -0.273 OA
HETATM   18  C   UNL     1      40.720 -17.065   3.284  1.00  0.00     0.117 C 
BRANCH  15  19
HETATM   19  C   UNL     1      44.260 -18.205   3.689  1.00  0.00     0.164 C 
BRANCH  19  20
HETATM   20  C   UNL     1      44.347 -19.706   3.556  1.00  0.00    -0.040 A 
HETATM   21  C   UNL     1      44.091 -20.336   2.331  1.00  0.00     0.009 A 
HETATM   22  C   UNL     1      44.169 -21.727   2.222  1.00  0.00     0.001 A 
HETATM   23  C   UNL     1      44.500 -22.499   3.335  1.00  0.00     0.000 A 
HETATM   24  C   UNL     1      44.755 -21.882   4.559  1.00  0.00     0.001 A 
HETATM   25  C   UNL     1      44.681 -20.493   4.669  1.00  0.00     0.009 A 
ENDBRANCH  19  20
ENDBRANCH  15  19
ENDBRANCH   6  13
BRANCH   1  26
HETATM   26  O   UNL     1      37.671 -11.424  -2.087  1.00  0.00    -0.356 OA
HETATM   27  C   UNL     1      36.266 -11.224  -2.190  1.00  0.00     0.210 C 
ENDBRANCH   1  26
TORSDOF 4
ENDMDL
MODEL 6
REMARK VINA RESULT:      -8.2      2.927      8.534
REMARK  4 active torsions:
REMARK  status: ('A' for Active; 'I' for Inactive)
REMARK    1  A    between atoms: O_2  and  C_3 
REMARK    2  A    between atoms: C_8  and  C_9 
REMARK    3  A    between atoms: N_11  and  C_12 
REMARK    4  A    between atoms: C_12  and  C_13 
ROOT
HETATM    1  C   UNL     1      44.149 -19.321   4.953  1.00  0.00     0.069 A 
HETATM    2  C   UNL     1      44.161 -18.868   3.633  1.00  0.00     0.056 A 
HETATM    3  C   UNL     1      43.269 -17.870   3.233  1.00  0.00     0.063 A 
HETATM    4  C   UNL     1      42.350 -17.312   4.125  1.00  0.00     0.074 A 
HETATM    5  N   UNL     1      41.452 -16.298   3.753  1.00  0.00    -0.234 NA
HETATM    6  C   UNL     1      41.490 -15.867   2.535  1.00  0.00     0.113 A 
HETATM    7  N   UNL     1      42.366 -16.357   1.598  1.00  0.00    -0.310 N 
HETATM    8  C   UNL     1      43.269 -17.357   1.856  1.00  0.00     0.259 A 
HETATM    9  O   UNL     1      44.022 -17.788   0.991  1.00  0.00    -0.267 OA
HETATM   10  C   UNL     1      42.338 -17.780   5.439  1.00  0.00     0.035 A 
HETATM   11  C   UNL     1      43.231 -18.778   5.854  1.00  0.00     0.039 A 
HETATM   12  H   UNL     1      42.369 -16.011   0.648  1.00  0.00     0.170 HD
ENDROOT
BRANCH   6  13
HETATM   13  C   UNL     1      40.595 -14.753   2.046  1.00  0.00     0.082 C 
HETATM   14  C   UNL     1      40.755 -14.412   0.571  1.00  0.00     0.139 C 
HETATM   15  N   UNL     1      39.441 -13.962   0.185  1.00  0.00    -0.347 N 
HETATM   16  C   UNL     1      38.456 -14.381   1.055  1.00  0.00     0.220 C 
HETATM   17  O   UNL     1      37.255 -14.197   0.951  1.00  0.00    -0.273 OA
HETATM   18  C   UNL     1      39.118 -15.139   2.175  1.00  0.00     0.117 C 
BRANCH  15  19
HETATM   19  C   UNL     1      39.193 -13.211  -1.030  1.00  0.00     0.164 C 
BRANCH  19  20
HETATM   20  C   UNL     1      38.927 -14.126  -2.201  1.00  0.00    -0.040 A 
HETATM   21  C   UNL     1      39.972 -14.823  -2.823  1.00  0.00     0.009 A 
HETATM   22  C   UNL     1      39.714 -15.661  -3.910  1.00  0.00     0.001 A 
HETATM   23  C   UNL     1      38.413 -15.809  -4.387  1.00  0.00     0.000 A 
HETATM   24  C   UNL     1      37.366 -15.121  -3.777  1.00  0.00     0.001 A 
HETATM   25  C   UNL     1      37.620 -14.284  -2.689  1.00  0.00     0.009 A 
ENDBRANCH  19  20
ENDBRANCH  15  19
ENDBRANCH   6  13
BRANCH   1  26
HETATM   26  O   UNL     1      45.072 -20.290   5.232  1.00  0.00    -0.356 OA
HETATM   27  C   UNL     1      44.576 -21.599   5.486  1.00  0.00     0.210 C 
ENDBRANCH   1  26
TORSDOF 4
ENDMDL
MODEL 7
REMARK VINA RESULT:      -8.1      5.453      8.994
REMARK  4 active torsions:
REMARK  status: ('A' for Active; 'I' for Inactive)
REMARK    1  A    between atoms: O_2  and  C_3 
REMARK    2  A    between atoms: C_8  and  C_9 
REMARK    3  A    between atoms: N_11  and  C_12 
REMARK    4  A    between atoms: C_12  and  C_13 
ROOT
HETATM    1  C   UNL     1      43.616 -19.558   2.614  1.00  0.00     0.069 A 
HETATM    2  C   UNL     1      42.507 -18.776   2.287  1.00  0.00     0.056 A 
HETATM    3  C   UNL     1      42.096 -17.758   3.151  1.00  0.00     0.063 A 
HETATM    4  C   UNL     1      42.766 -17.503   4.349  1.00  0.00     0.074 A 
HETATM    5  N   UNL     1      42.383 -16.477   5.229  1.00  0.00    -0.234 NA
HETATM    6  C   UNL     1      41.372 -15.741   4.903  1.00  0.00     0.113 A 
HETATM    7  N   UNL     1      40.661 -15.922   3.742  1.00  0.00    -0.310 N 
HETATM    8  C   UNL     1      40.944 -16.905   2.827  1.00  0.00     0.259 A 
HETATM    9  O   UNL     1      40.278 -17.054   1.810  1.00  0.00    -0.267 OA
HETATM   10  C   UNL     1      43.867 -18.298   4.673  1.00  0.00     0.035 A 
HETATM   11  C   UNL     1      44.292 -19.320   3.812  1.00  0.00     0.039 A 
HETATM   12  H   UNL     1      39.867 -15.340   3.514  1.00  0.00     0.170 HD
ENDROOT
BRANCH   6  13
HETATM   13  C   UNL     1      40.904 -14.588   5.759  1.00  0.00     0.082 C 
HETATM   14  C   UNL     1      41.826 -13.377   5.751  1.00  0.00     0.139 C 
HETATM   15  N   UNL     1      40.926 -12.268   5.946  1.00  0.00    -0.347 N 
HETATM   16  C   UNL     1      39.618 -12.582   5.642  1.00  0.00     0.220 C 
HETATM   17  O   UNL     1      38.658 -11.830   5.661  1.00  0.00    -0.273 OA
HETATM   18  C   UNL     1      39.568 -14.035   5.254  1.00  0.00     0.117 C 
BRANCH  15  19
HETATM   19  C   UNL     1      41.378 -10.950   6.350  1.00  0.00     0.164 C 
BRANCH  19  20
HETATM   20  C   UNL     1      41.520 -10.848   7.849  1.00  0.00    -0.040 A 
HETATM   21  C   UNL     1      42.773 -10.971   8.464  1.00  0.00     0.009 A 
HETATM   22  C   UNL     1      42.890 -10.881   9.853  1.00  0.00     0.001 A 
HETATM   23  C   UNL     1      41.758 -10.670  10.639  1.00  0.00     0.000 A 
HETATM   24  C   UNL     1      40.507 -10.547  10.038  1.00  0.00     0.001 A 
HETATM   25  C   UNL     1      40.387 -10.634   8.650  1.00  0.00     0.009 A 
ENDBRANCH  19  20
ENDBRANCH  15  19
ENDBRANCH   6  13
BRANCH   1  26
HETATM   26  O   UNL     1      43.931 -20.516   1.691  1.00  0.00    -0.356 OA
HETATM   27  C   UNL     1      44.337 -21.784   2.190  1.00  0.00     0.210 C 
ENDBRANCH   1  26
TORSDOF 4
ENDMDL
MODEL 8
REMARK VINA RESULT:      -8.1      2.311      8.900
REMARK  4 active torsions:
REMARK  status: ('A' for Active; 'I' for Inactive)
REMARK    1  A    between atoms: O_2  and  C_3 
REMARK    2  A    between atoms: C_8  and  C_9 
REMARK    3  A    between atoms: N_11  and  C_12 
REMARK    4  A    between atoms: C_12  and  C_13 
ROOT
HETATM    1  C   UNL     1      44.651 -20.398   4.031  1.00  0.00     0.069 A 
HETATM    2  C   UNL     1      44.342 -19.210   4.696  1.00  0.00     0.056 A 
HETATM    3  C   UNL     1      43.656 -18.196   4.024  1.00  0.00     0.063 A 
HETATM    4  C   UNL     1      43.273 -18.336   2.688  1.00  0.00     0.074 A 
HETATM    5  N   UNL     1      42.569 -17.339   1.992  1.00  0.00    -0.234 NA
HETATM    6  C   UNL     1      42.264 -16.254   2.625  1.00  0.00     0.113 A 
HETATM    7  N   UNL     1      42.598 -16.039   3.940  1.00  0.00    -0.310 N 
HETATM    8  C   UNL     1      43.298 -16.942   4.700  1.00  0.00     0.259 A 
HETATM    9  O   UNL     1      43.600 -16.710   5.864  1.00  0.00    -0.267 OA
HETATM   10  C   UNL     1      43.597 -19.522   2.028  1.00  0.00     0.035 A 
HETATM   11  C   UNL     1      44.281 -20.549   2.693  1.00  0.00     0.039 A 
HETATM   12  H   UNL     1      42.358 -15.177   4.411  1.00  0.00     0.170 HD
ENDROOT
BRANCH   6  13
HETATM   13  C   UNL     1      41.476 -15.138   1.981  1.00  0.00     0.082 C 
HETATM   14  C   UNL     1      41.432 -15.189   0.460  1.00  0.00     0.139 C 
HETATM   15  N   UNL     1      40.155 -14.604   0.140  1.00  0.00    -0.347 N 
HETATM   16  C   UNL     1      39.280 -14.614   1.207  1.00  0.00     0.220 C 
HETATM   17  O   UNL     1      38.120 -14.237   1.211  1.00  0.00    -0.273 OA
HETATM   18  C   UNL     1      40.002 -15.199   2.392  1.00  0.00     0.117 C 
BRANCH  15  19
HETATM   19  C   UNL     1      39.818 -14.127  -1.187  1.00  0.00     0.164 C 
BRANCH  19  20
HETATM   20  C   UNL     1      40.780 -13.060  -1.653  1.00  0.00    -0.040 A 
HETATM   21  C   UNL     1      40.842 -11.816  -1.011  1.00  0.00     0.009 A 
HETATM   22  C   UNL     1      41.731 -10.836  -1.455  1.00  0.00     0.001 A 
HETATM   23  C   UNL     1      42.564 -11.087  -2.545  1.00  0.00     0.000 A 
HETATM   24  C   UNL     1      42.510 -12.321  -3.191  1.00  0.00     0.001 A 
HETATM   25  C   UNL     1      41.624 -13.303  -2.748  1.00  0.00     0.009 A 
ENDBRANCH  19  20
ENDBRANCH  15  19
ENDBRANCH   6  13
BRANCH   1  26
HETATM   26  O   UNL     1      45.314 -21.321   4.791  1.00  0.00    -0.356 OA
HETATM   27  C   UNL     1      44.781 -22.639   4.815  1.00  0.00     0.210 C 
ENDBRANCH   1  26
TORSDOF 4
ENDMDL
MODEL 9
REMARK VINA RESULT:      -7.6      2.936      9.109
REMARK  4 active torsions:
REMARK  status: ('A' for Active; 'I' for Inactive)
REMARK    1  A    between atoms: O_2  and  C_3 
REMARK    2  A    between atoms: C_8  and  C_9 
REMARK    3  A    between atoms: N_11  and  C_12 
REMARK    4  A    between atoms: C_12  and  C_13 
ROOT
HETATM    1  C   UNL     1      44.569 -20.301   3.927  1.00  0.00     0.069 A 
HETATM    2  C   UNL     1      44.252 -19.044   4.441  1.00  0.00     0.056 A 
HETATM    3  C   UNL     1      43.555 -18.126   3.652  1.00  0.00     0.063 A 
HETATM    4  C   UNL     1      43.168 -18.433   2.346  1.00  0.00     0.074 A 
HETATM    5  N   UNL     1      42.454 -17.534   1.535  1.00  0.00    -0.234 NA
HETATM    6  C   UNL     1      42.141 -16.382   2.032  1.00  0.00     0.113 A 
HETATM    7  N   UNL     1      42.478 -16.004   3.308  1.00  0.00    -0.310 N 
HETATM    8  C   UNL     1      43.189 -16.801   4.171  1.00  0.00     0.259 A 
HETATM    9  O   UNL     1      43.493 -16.425   5.296  1.00  0.00    -0.267 OA
HETATM   10  C   UNL     1      43.500 -19.688   1.836  1.00  0.00     0.035 A 
HETATM   11  C   UNL     1      44.196 -20.620   2.619  1.00  0.00     0.039 A 
HETATM   12  H   UNL     1      42.232 -15.093   3.670  1.00  0.00     0.170 HD
ENDROOT
BRANCH   6  13
HETATM   13  C   UNL     1      41.341 -15.361   1.258  1.00  0.00     0.082 C 
HETATM   14  C   UNL     1      39.855 -15.339   1.585  1.00  0.00     0.139 C 
HETATM   15  N   UNL     1      39.484 -13.963   1.373  1.00  0.00    -0.347 N 
HETATM   16  C   UNL     1      40.567 -13.108   1.394  1.00  0.00     0.220 C 
HETATM   17  O   UNL     1      40.547 -11.892   1.298  1.00  0.00    -0.273 OA
HETATM   18  C   UNL     1      41.809 -13.939   1.580  1.00  0.00     0.117 C 
BRANCH  15  19
HETATM   19  C   UNL     1      38.107 -13.533   1.227  1.00  0.00     0.164 C 
BRANCH  19  20
HETATM   20  C   UNL     1      37.803 -13.117  -0.192  1.00  0.00    -0.040 A 
HETATM   21  C   UNL     1      38.190 -13.918  -1.275  1.00  0.00     0.009 A 
HETATM   22  C   UNL     1      37.909 -13.519  -2.584  1.00  0.00     0.001 A 
HETATM   23  C   UNL     1      37.243 -12.318  -2.823  1.00  0.00     0.000 A 
HETATM   24  C   UNL     1      36.854 -11.514  -1.753  1.00  0.00     0.001 A 
HETATM   25  C   UNL     1      37.131 -11.911  -0.444  1.00  0.00     0.009 A 
ENDBRANCH  19  20
ENDBRANCH  15  19
ENDBRANCH   6  13
BRANCH   1  26
HETATM   26  O   UNL     1      45.243 -21.119   4.791  1.00  0.00    -0.356 OA
HETATM   27  C   UNL     1      44.878 -22.493   4.797  1.00  0.00     0.210 C 
ENDBRANCH   1  26
TORSDOF 4
ENDMDL
MODEL 10
REMARK VINA RESULT:      -7.5      4.949      7.751
REMARK  4 active torsions:
REMARK  status: ('A' for Active; 'I' for Inactive)
REMARK    1  A    between atoms: O_2  and  C_3 
REMARK    2  A    between atoms: C_8  and  C_9 
REMARK    3  A    between atoms: N_11  and  C_12 
REMARK    4  A    between atoms: C_12  and  C_13 
ROOT
HETATM    1  C   UNL     1      44.187 -11.936   8.921  1.00  0.00     0.069 A 
HETATM    2  C   UNL     1      43.081 -11.645   8.122  1.00  0.00     0.056 A 
HETATM    3  C   UNL     1      42.878 -12.350   6.934  1.00  0.00     0.063 A 
HETATM    4  C   UNL     1      43.766 -13.344   6.514  1.00  0.00     0.074 A 
HETATM    5  N   UNL     1      43.578 -14.078   5.331  1.00  0.00    -0.234 NA
HETATM    6  C   UNL     1      42.535 -13.819   4.612  1.00  0.00     0.113 A 
HETATM    7  N   UNL     1      41.612 -12.863   4.955  1.00  0.00    -0.310 N 
HETATM    8  C   UNL     1      41.713 -12.082   6.079  1.00  0.00     0.259 A 
HETATM    9  O   UNL     1      40.884 -11.221   6.346  1.00  0.00    -0.267 OA
HETATM   10  C   UNL     1      44.875 -13.619   7.314  1.00  0.00     0.035 A 
HETATM   11  C   UNL     1      45.088 -12.921   8.511  1.00  0.00     0.039 A 
HETATM   12  H   UNL     1      40.810 -12.671   4.371  1.00  0.00     0.170 HD
ENDROOT
BRANCH   6  13
HETATM   13  C   UNL     1      42.222 -14.578   3.344  1.00  0.00     0.082 C 
HETATM   14  C   UNL     1      43.253 -15.632   2.964  1.00  0.00     0.139 C 
HETATM   15  N   UNL     1      42.473 -16.636   2.286  1.00  0.00    -0.347 N 
HETATM   16  C   UNL     1      41.127 -16.555   2.579  1.00  0.00     0.220 C 
HETATM   17  O   UNL     1      40.244 -17.304   2.195  1.00  0.00    -0.273 OA
HETATM   18  C   UNL     1      40.921 -15.373   3.488  1.00  0.00     0.117 C 
BRANCH  15  19
HETATM   19  C   UNL     1      43.066 -17.659   1.447  1.00  0.00     0.164 C 
BRANCH  19  20
HETATM   20  C   UNL     1      43.587 -18.814   2.268  1.00  0.00    -0.040 A 
HETATM   21  C   UNL     1      43.977 -18.632   3.602  1.00  0.00     0.009 A 
HETATM   22  C   UNL     1      44.464 -19.707   4.348  1.00  0.00     0.001 A 
HETATM   23  C   UNL     1      44.568 -20.972   3.770  1.00  0.00     0.000 A 
HETATM   24  C   UNL     1      44.183 -21.164   2.445  1.00  0.00     0.001 A 
HETATM   25  C   UNL     1      43.694 -20.092   1.697  1.00  0.00     0.009 A 
ENDBRANCH  19  20
ENDBRANCH  15  19
ENDBRANCH   6  13
BRANCH   1  26
HETATM   26  O   UNL     1      44.278 -11.191  10.064  1.00  0.00    -0.356 OA
HETATM   27  C   UNL     1      43.467 -11.592  11.162  1.00  0.00     0.210 C 
ENDBRANCH   1  26
TORSDOF 4
ENDMDL
