MODEL 1
REMARK VINA RESULT:      -8.8      0.000      0.000
REMARK  7 active torsions:
REMARK  status: ('A' for Active; 'I' for Inactive)
REMARK    1  A    between atoms: O_2  and  C_3 
REMARK    2  A    between atoms: C_6  and  C_7 
REMARK       I    between atoms: C_7  and  N_8 
REMARK    3  A    between atoms: N_8  and  C_9 
REMARK    4  A    between atoms: C_9  and  N_10 
REMARK    5  A    between atoms: N_10  and  C_11 
REMARK    6  A    between atoms: C_14  and  N_15 
REMARK       I    between atoms: N_18  and  C_19 
REMARK    7  A    between atoms: C_19  and  C_20 
ROOT
HETATM    1  C   UNL     1      42.303 -14.270   5.040  1.00  0.00     0.034 C 
HETATM    2  C   UNL     1      43.157 -14.668   4.015  1.00  0.00     0.032 C 
HETATM    3  C   UNL     1      42.649 -14.935   2.739  1.00  0.00     0.031 C 
HETATM    4  C   UNL     1      41.283 -14.816   2.446  1.00  0.00     0.030 C 
HETATM    5  C   UNL     1      40.428 -14.600   3.540  1.00  0.00     0.031 C 
HETATM    6  C   UNL     1      40.927 -14.342   4.832  1.00  0.00     0.032 C 
ENDROOT
BRANCH   1   7
HETATM    7  N   UNL     1      42.811 -13.681   6.235  1.00  0.00    -0.333 N 
HETATM    8  H   UNL     1      42.770 -12.671   6.243  1.00  0.00     0.168 HD
BRANCH   7   9
HETATM    9  C   UNL     1      43.938 -14.175   6.864  1.00  0.00     0.179 C 
HETATM   10  S   UNL     1      45.512 -13.579   6.808  1.00  0.00    -0.040 SA
BRANCH   9  11
HETATM   11  N   UNL     1      43.790 -15.259   7.717  1.00  0.00    -0.299 N 
HETATM   12  C   UNL     1      43.492 -16.615   7.771  1.00  0.00     0.257 C 
HETATM   13  O   UNL     1      43.459 -17.172   8.869  1.00  0.00    -0.267 OA
HETATM   14  H   UNL     1      44.031 -14.968   8.660  1.00  0.00     0.171 HD
BRANCH  12  15
HETATM   15  C   UNL     1      43.301 -17.452   6.585  1.00  0.00     0.032 A 
HETATM   16  C   UNL     1      41.988 -17.582   6.110  1.00  0.00     0.020 A 
HETATM   17  C   UNL     1      41.751 -18.064   4.824  1.00  0.00     0.038 A 
HETATM   18  C   UNL     1      42.830 -18.394   4.005  1.00  0.00     0.068 A 
HETATM   19  C   UNL     1      44.137 -18.321   4.499  1.00  0.00     0.038 A 
HETATM   20  C   UNL     1      44.381 -17.820   5.782  1.00  0.00     0.020 A 
BRANCH  18  21
HETATM   21  O   UNL     1      42.687 -18.790   2.704  1.00  0.00    -0.356 OA
HETATM   22  C   UNL     1      43.758 -18.343   1.867  1.00  0.00     0.210 C 
ENDBRANCH  18  21
ENDBRANCH  12  15
ENDBRANCH   9  11
ENDBRANCH   7   9
ENDBRANCH   1   7
BRANCH   4  23
HETATM   23  N   UNL     1      40.807 -14.766   1.141  1.00  0.00    -0.378 N 
HETATM   24  C   UNL     1      39.363 -14.707   0.854  1.00  0.00     0.143 C 
HETATM   25  C   UNL     1      39.099 -13.985  -0.494  1.00  0.00     0.146 C 
HETATM   26  N   UNL     1      39.959 -14.450  -1.597  1.00  0.00    -0.345 N 
HETATM   27  C   UNL     1      39.641 -14.431  -2.953  1.00  0.00     0.253 C 
HETATM   28  C   UNL     1      41.374 -14.617  -1.255  1.00  0.00     0.146 C 
HETATM   29  O   UNL     1      40.401 -14.855  -3.824  1.00  0.00    -0.267 OA
HETATM   30  C   UNL     1      41.596 -15.380   0.055  1.00  0.00     0.143 C 
BRANCH  27  31
HETATM   31  C   UNL     1      38.345 -13.886  -3.414  1.00  0.00     0.032 A 
HETATM   32  C   UNL     1      38.137 -12.508  -3.531  1.00  0.00     0.017 A 
HETATM   33  C   UNL     1      36.937 -12.032  -4.062  1.00  0.00     0.001 A 
HETATM   34  C   UNL     1      35.959 -12.928  -4.495  1.00  0.00     0.000 A 
HETATM   35  C   UNL     1      36.178 -14.303  -4.408  1.00  0.00     0.001 A 
HETATM   36  C   UNL     1      37.374 -14.784  -3.873  1.00  0.00     0.017 A 
ENDBRANCH  27  31
ENDBRANCH   4  23
TORSDOF 7
ENDMDL
MODEL 2
REMARK VINA RESULT:      -8.5      4.722      7.827
REMARK  7 active torsions:
REMARK  status: ('A' for Active; 'I' for Inactive)
REMARK    1  A    between atoms: O_2  and  C_3 
REMARK    2  A    between atoms: C_6  and  C_7 
REMARK       I    between atoms: C_7  and  N_8 
REMARK    3  A    between atoms: N_8  and  C_9 
REMARK    4  A    between atoms: C_9  and  N_10 
REMARK    5  A    between atoms: N_10  and  C_11 
REMARK    6  A    between atoms: C_14  and  N_15 
REMARK       I    between atoms: N_18  and  C_19 
REMARK    7  A    between atoms: C_19  and  C_20 
ROOT
HETATM    1  C   UNL     1      40.491 -10.441   9.281  1.00  0.00     0.034 C 
HETATM    2  C   UNL     1      39.352 -10.936   8.651  1.00  0.00     0.032 C 
HETATM    3  C   UNL     1      39.460 -11.621   7.437  1.00  0.00     0.031 C 
HETATM    4  C   UNL     1      40.699 -11.832   6.813  1.00  0.00     0.030 C 
HETATM    5  C   UNL     1      41.799 -11.160   7.372  1.00  0.00     0.031 C 
HETATM    6  C   UNL     1      41.700 -10.457   8.588  1.00  0.00     0.032 C 
ENDROOT
BRANCH   1   7
HETATM    7  N   UNL     1      40.461 -10.040  10.649  1.00  0.00    -0.333 N 
HETATM    8  H   UNL     1      39.571 -10.195  11.101  1.00  0.00     0.168 HD
BRANCH   7   9
HETATM    9  C   UNL     1      41.085  -8.885  11.079  1.00  0.00     0.179 C 
HETATM   10  S   UNL     1      40.863  -7.309  10.528  1.00  0.00    -0.040 SA
BRANCH   9  11
HETATM   11  N   UNL     1      41.965  -8.976  12.149  1.00  0.00    -0.299 N 
HETATM   12  C   UNL     1      43.119  -9.599  12.605  1.00  0.00     0.257 C 
HETATM   13  O   UNL     1      43.525  -9.339  13.739  1.00  0.00    -0.267 OA
HETATM   14  H   UNL     1      41.691  -8.299  12.855  1.00  0.00     0.171 HD
BRANCH  12  15
HETATM   15  C   UNL     1      43.943 -10.486  11.780  1.00  0.00     0.032 A 
HETATM   16  C   UNL     1      43.711 -11.863  11.913  1.00  0.00     0.020 A 
HETATM   17  C   UNL     1      44.190 -12.750  10.950  1.00  0.00     0.038 A 
HETATM   18  C   UNL     1      44.880 -12.257   9.844  1.00  0.00     0.068 A 
HETATM   19  C   UNL     1      45.163 -10.890   9.742  1.00  0.00     0.038 A 
HETATM   20  C   UNL     1      44.668  -9.993  10.695  1.00  0.00     0.020 A 
BRANCH  18  21
HETATM   21  O   UNL     1      45.305 -13.050   8.813  1.00  0.00    -0.356 OA
HETATM   22  C   UNL     1      46.399 -12.479   8.090  1.00  0.00     0.210 C 
ENDBRANCH  18  21
ENDBRANCH  12  15
ENDBRANCH   9  11
ENDBRANCH   7   9
ENDBRANCH   1   7
BRANCH   4  23
HETATM   23  N   UNL     1      40.866 -12.762   5.795  1.00  0.00    -0.378 N 
HETATM   24  C   UNL     1      42.196 -13.300   5.458  1.00  0.00     0.143 C 
HETATM   25  C   UNL     1      42.078 -14.724   4.854  1.00  0.00     0.146 C 
HETATM   26  N   UNL     1      41.048 -14.844   3.807  1.00  0.00    -0.345 N 
HETATM   27  C   UNL     1      41.055 -15.747   2.746  1.00  0.00     0.253 C 
HETATM   28  C   UNL     1      39.770 -14.198   4.114  1.00  0.00     0.146 C 
HETATM   29  O   UNL     1      40.169 -15.780   1.892  1.00  0.00    -0.267 OA
HETATM   30  C   UNL     1      39.925 -12.773   4.658  1.00  0.00     0.143 C 
BRANCH  27  31
HETATM   31  C   UNL     1      42.152 -16.728   2.601  1.00  0.00     0.032 A 
HETATM   32  C   UNL     1      42.178 -17.906   3.354  1.00  0.00     0.017 A 
HETATM   33  C   UNL     1      43.175 -18.856   3.121  1.00  0.00     0.001 A 
HETATM   34  C   UNL     1      44.127 -18.640   2.124  1.00  0.00     0.000 A 
HETATM   35  C   UNL     1      44.083 -17.480   1.350  1.00  0.00     0.001 A 
HETATM   36  C   UNL     1      43.092 -16.525   1.583  1.00  0.00     0.017 A 
ENDBRANCH  27  31
ENDBRANCH   4  23
TORSDOF 7
ENDMDL
MODEL 3
REMARK VINA RESULT:      -8.4      4.949      8.967
REMARK  7 active torsions:
REMARK  status: ('A' for Active; 'I' for Inactive)
REMARK    1  A    between atoms: O_2  and  C_3 
REMARK    2  A    between atoms: C_6  and  C_7 
REMARK       I    between atoms: C_7  and  N_8 
REMARK    3  A    between atoms: N_8  and  C_9 
REMARK    4  A    between atoms: C_9  and  N_10 
REMARK    5  A    between atoms: N_10  and  C_11 
REMARK    6  A    between atoms: C_14  and  N_15 
REMARK       I    between atoms: N_18  and  C_19 
REMARK    7  A    between atoms: C_19  and  C_20 
ROOT
HETATM    1  C   UNL     1      40.212 -11.779   6.884  1.00  0.00     0.034 C 
HETATM    2  C   UNL     1      39.582 -13.009   6.714  1.00  0.00     0.032 C 
HETATM    3  C   UNL     1      40.109 -13.954   5.828  1.00  0.00     0.031 C 
HETATM    4  C   UNL     1      41.273 -13.705   5.086  1.00  0.00     0.030 C 
HETATM    5  C   UNL     1      41.774 -12.394   5.136  1.00  0.00     0.031 C 
HETATM    6  C   UNL     1      41.244 -11.430   6.016  1.00  0.00     0.032 C 
ENDROOT
BRANCH   1   7
HETATM    7  N   UNL     1      39.904 -10.942   7.996  1.00  0.00    -0.333 N 
HETATM    8  H   UNL     1      39.068 -10.388   7.873  1.00  0.00     0.168 HD
BRANCH   7   9
HETATM    9  C   UNL     1      40.891 -10.270   8.692  1.00  0.00     0.179 C 
HETATM   10  S   UNL     1      40.950  -8.640   9.111  1.00  0.00    -0.040 SA
BRANCH   9  11
HETATM   11  N   UNL     1      41.957 -11.005   9.191  1.00  0.00    -0.299 N 
HETATM   12  C   UNL     1      42.769 -11.196  10.302  1.00  0.00     0.257 C 
HETATM   13  O   UNL     1      43.676 -12.027  10.237  1.00  0.00    -0.267 OA
HETATM   14  H   UNL     1      42.224 -11.702   8.502  1.00  0.00     0.171 HD
BRANCH  12  15
HETATM   15  C   UNL     1      42.555 -10.529  11.587  1.00  0.00     0.032 A 
HETATM   16  C   UNL     1      41.449 -10.952  12.339  1.00  0.00     0.020 A 
HETATM   17  C   UNL     1      41.356 -10.629  13.692  1.00  0.00     0.038 A 
HETATM   18  C   UNL     1      42.381  -9.903  14.297  1.00  0.00     0.068 A 
HETATM   19  C   UNL     1      43.454  -9.430  13.534  1.00  0.00     0.038 A 
HETATM   20  C   UNL     1      43.562  -9.767  12.181  1.00  0.00     0.020 A 
BRANCH  18  21
HETATM   21  O   UNL     1      42.408  -9.621  15.635  1.00  0.00    -0.356 OA
HETATM   22  C   UNL     1      41.116  -9.307  16.162  1.00  0.00     0.210 C 
ENDBRANCH  18  21
ENDBRANCH  12  15
ENDBRANCH   9  11
ENDBRANCH   7   9
ENDBRANCH   1   7
BRANCH   4  23
HETATM   23  N   UNL     1      41.979 -14.721   4.454  1.00  0.00    -0.378 N 
HETATM   24  C   UNL     1      42.408 -15.926   5.185  1.00  0.00     0.143 C 
HETATM   25  C   UNL     1      42.521 -17.141   4.226  1.00  0.00     0.146 C 
HETATM   26  N   UNL     1      43.249 -16.849   2.978  1.00  0.00    -0.345 N 
HETATM   27  C   UNL     1      43.970 -17.763   2.213  1.00  0.00     0.253 C 
HETATM   28  C   UNL     1      42.891 -15.586   2.330  1.00  0.00     0.146 C 
HETATM   29  O   UNL     1      44.573 -17.447   1.188  1.00  0.00    -0.267 OA
HETATM   30  C   UNL     1      42.841 -14.399   3.299  1.00  0.00     0.143 C 
BRANCH  27  31
HETATM   31  C   UNL     1      44.040 -19.187   2.610  1.00  0.00     0.032 A 
HETATM   32  C   UNL     1      43.626 -20.204   1.744  1.00  0.00     0.017 A 
HETATM   33  C   UNL     1      43.798 -21.540   2.112  1.00  0.00     0.001 A 
HETATM   34  C   UNL     1      44.401 -21.858   3.330  1.00  0.00     0.000 A 
HETATM   35  C   UNL     1      44.842 -20.844   4.181  1.00  0.00     0.001 A 
HETATM   36  C   UNL     1      44.668 -19.507   3.819  1.00  0.00     0.017 A 
ENDBRANCH  27  31
ENDBRANCH   4  23
TORSDOF 7
ENDMDL
MODEL 4
REMARK VINA RESULT:      -8.3      3.181      8.900
REMARK  7 active torsions:
REMARK  status: ('A' for Active; 'I' for Inactive)
REMARK    1  A    between atoms: O_2  and  C_3 
REMARK    2  A    between atoms: C_6  and  C_7 
REMARK       I    between atoms: C_7  and  N_8 
REMARK    3  A    between atoms: N_8  and  C_9 
REMARK    4  A    between atoms: C_9  and  N_10 
REMARK    5  A    between atoms: N_10  and  C_11 
REMARK    6  A    between atoms: C_14  and  N_15 
REMARK       I    between atoms: N_18  and  C_19 
REMARK    7  A    between atoms: C_19  and  C_20 
ROOT
HETATM    1  C   UNL     1      39.122 -12.598   2.168  1.00  0.00     0.034 C 
HETATM    2  C   UNL     1      39.853 -12.400   3.336  1.00  0.00     0.032 C 
HETATM    3  C   UNL     1      40.504 -13.475   3.950  1.00  0.00     0.031 C 
HETATM    4  C   UNL     1      40.446 -14.774   3.425  1.00  0.00     0.030 C 
HETATM    5  C   UNL     1      39.550 -14.975   2.362  1.00  0.00     0.031 C 
HETATM    6  C   UNL     1      38.880 -13.902   1.743  1.00  0.00     0.032 C 
ENDROOT
BRANCH   1   7
HETATM    7  N   UNL     1      38.732 -11.499   1.349  1.00  0.00    -0.333 N 
HETATM    8  H   UNL     1      37.738 -11.313   1.358  1.00  0.00     0.168 HD
BRANCH   7   9
HETATM    9  C   UNL     1      39.303 -11.280   0.110  1.00  0.00     0.179 C 
HETATM   10  S   UNL     1      38.537 -10.918  -1.346  1.00  0.00    -0.040 SA
BRANCH   9  11
HETATM   11  N   UNL     1      40.688 -11.279   0.018  1.00  0.00    -0.299 N 
HETATM   12  C   UNL     1      41.781 -11.971  -0.488  1.00  0.00     0.257 C 
HETATM   13  O   UNL     1      42.912 -11.541  -0.260  1.00  0.00    -0.267 OA
HETATM   14  H   UNL     1      41.043 -10.429   0.445  1.00  0.00     0.171 HD
BRANCH  12  15
HETATM   15  C   UNL     1      41.667 -13.141  -1.361  1.00  0.00     0.032 A 
HETATM   16  C   UNL     1      41.526 -14.386  -0.730  1.00  0.00     0.020 A 
HETATM   17  C   UNL     1      41.080 -15.492  -1.453  1.00  0.00     0.038 A 
HETATM   18  C   UNL     1      40.754 -15.345  -2.800  1.00  0.00     0.068 A 
HETATM   19  C   UNL     1      40.952 -14.119  -3.444  1.00  0.00     0.038 A 
HETATM   20  C   UNL     1      41.381 -13.002  -2.719  1.00  0.00     0.020 A 
BRANCH  18  21
HETATM   21  O   UNL     1      40.227 -16.357  -3.556  1.00  0.00    -0.356 OA
HETATM   22  C   UNL     1      39.000 -15.991  -4.194  1.00  0.00     0.210 C 
ENDBRANCH  18  21
ENDBRANCH  12  15
ENDBRANCH   9  11
ENDBRANCH   7   9
ENDBRANCH   1   7
BRANCH   4  23
HETATM   23  N   UNL     1      41.322 -15.775   3.826  1.00  0.00    -0.378 N 
HETATM   24  C   UNL     1      40.992 -17.199   3.648  1.00  0.00     0.143 C 
HETATM   25  C   UNL     1      42.281 -18.049   3.497  1.00  0.00     0.146 C 
HETATM   26  N   UNL     1      43.315 -17.746   4.502  1.00  0.00    -0.345 N 
HETATM   27  C   UNL     1      44.284 -18.628   4.978  1.00  0.00     0.253 C 
HETATM   28  C   UNL     1      43.544 -16.321   4.750  1.00  0.00     0.146 C 
HETATM   29  O   UNL     1      45.109 -18.314   5.836  1.00  0.00    -0.267 OA
HETATM   30  C   UNL     1      42.250 -15.524   4.947  1.00  0.00     0.143 C 
BRANCH  27  31
HETATM   31  C   UNL     1      44.364 -20.010   4.457  1.00  0.00     0.032 A 
HETATM   32  C   UNL     1      44.395 -20.268   3.082  1.00  0.00     0.017 A 
HETATM   33  C   UNL     1      44.569 -21.576   2.627  1.00  0.00     0.001 A 
HETATM   34  C   UNL     1      44.736 -22.618   3.540  1.00  0.00     0.000 A 
HETATM   35  C   UNL     1      44.736 -22.358   4.911  1.00  0.00     0.001 A 
HETATM   36  C   UNL     1      44.557 -21.053   5.371  1.00  0.00     0.017 A 
ENDBRANCH  27  31
ENDBRANCH   4  23
TORSDOF 7
ENDMDL
MODEL 5
REMARK VINA RESULT:      -8.3      2.232      2.918
REMARK  7 active torsions:
REMARK  status: ('A' for Active; 'I' for Inactive)
REMARK    1  A    between atoms: O_2  and  C_3 
REMARK    2  A    between atoms: C_6  and  C_7 
REMARK       I    between atoms: C_7  and  N_8 
REMARK    3  A    between atoms: N_8  and  C_9 
REMARK    4  A    between atoms: C_9  and  N_10 
REMARK    5  A    between atoms: N_10  and  C_11 
REMARK    6  A    between atoms: C_14  and  N_15 
REMARK       I    between atoms: N_18  and  C_19 
REMARK    7  A    between atoms: C_19  and  C_20 
ROOT
HETATM    1  C   UNL     1      41.209 -16.200   5.584  1.00  0.00     0.034 C 
HETATM    2  C   UNL     1      41.447 -17.215   4.661  1.00  0.00     0.032 C 
HETATM    3  C   UNL     1      41.207 -16.999   3.300  1.00  0.00     0.031 C 
HETATM    4  C   UNL     1      40.724 -15.773   2.819  1.00  0.00     0.030 C 
HETATM    5  C   UNL     1      40.317 -14.841   3.788  1.00  0.00     0.031 C 
HETATM    6  C   UNL     1      40.542 -15.053   5.162  1.00  0.00     0.032 C 
ENDROOT
BRANCH   1   7
HETATM    7  N   UNL     1      41.743 -16.267   6.904  1.00  0.00    -0.333 N 
HETATM    8  H   UNL     1      41.204 -15.757   7.591  1.00  0.00     0.168 HD
BRANCH   7   9
HETATM    9  C   UNL     1      43.103 -16.203   7.140  1.00  0.00     0.179 C 
HETATM   10  S   UNL     1      44.201 -15.035   6.623  1.00  0.00    -0.040 SA
BRANCH   9  11
HETATM   11  N   UNL     1      43.671 -17.167   7.961  1.00  0.00    -0.299 N 
HETATM   12  C   UNL     1      44.051 -18.501   8.033  1.00  0.00     0.257 C 
HETATM   13  O   UNL     1      44.532 -18.925   9.084  1.00  0.00    -0.267 OA
HETATM   14  H   UNL     1      43.963 -16.726   8.829  1.00  0.00     0.171 HD
BRANCH  12  15
HETATM   15  C   UNL     1      43.996 -19.422   6.896  1.00  0.00     0.032 A 
HETATM   16  C   UNL     1      44.538 -18.962   5.687  1.00  0.00     0.020 A 
HETATM   17  C   UNL     1      44.836 -19.862   4.664  1.00  0.00     0.038 A 
HETATM   18  C   UNL     1      44.612 -21.224   4.861  1.00  0.00     0.068 A 
HETATM   19  C   UNL     1      44.017 -21.676   6.043  1.00  0.00     0.038 A 
HETATM   20  C   UNL     1      43.734 -20.780   7.080  1.00  0.00     0.020 A 
BRANCH  18  21
HETATM   21  O   UNL     1      44.958 -22.178   3.944  1.00  0.00    -0.356 OA
HETATM   22  C   UNL     1      44.409 -21.926   2.648  1.00  0.00     0.210 C 
ENDBRANCH  18  21
ENDBRANCH  12  15
ENDBRANCH   9  11
ENDBRANCH   7   9
ENDBRANCH   1   7
BRANCH   4  23
HETATM   23  N   UNL     1      40.778 -15.434   1.472  1.00  0.00    -0.378 N 
HETATM   24  C   UNL     1      40.133 -14.211   0.964  1.00  0.00     0.143 C 
HETATM   25  C   UNL     1      40.864 -13.687  -0.301  1.00  0.00     0.146 C 
HETATM   26  N   UNL     1      41.147 -14.732  -1.301  1.00  0.00    -0.345 N 
HETATM   27  C   UNL     1      41.267 -14.544  -2.676  1.00  0.00     0.253 C 
HETATM   28  C   UNL     1      41.677 -15.985  -0.759  1.00  0.00     0.146 C 
HETATM   29  O   UNL     1      41.486 -15.468  -3.460  1.00  0.00    -0.267 OA
HETATM   30  C   UNL     1      40.897 -16.499   0.457  1.00  0.00     0.143 C 
BRANCH  27  31
HETATM   31  C   UNL     1      41.137 -13.193  -3.265  1.00  0.00     0.032 A 
HETATM   32  C   UNL     1      39.882 -12.625  -3.508  1.00  0.00     0.017 A 
HETATM   33  C   UNL     1      39.795 -11.311  -3.972  1.00  0.00     0.001 A 
HETATM   34  C   UNL     1      40.955 -10.561  -4.170  1.00  0.00     0.000 A 
HETATM   35  C   UNL     1      42.206 -11.117  -3.898  1.00  0.00     0.001 A 
HETATM   36  C   UNL     1      42.298 -12.431  -3.439  1.00  0.00     0.017 A 
ENDBRANCH  27  31
ENDBRANCH   4  23
TORSDOF 7
ENDMDL
MODEL 6
REMARK VINA RESULT:      -8.3      1.827      2.318
REMARK  7 active torsions:
REMARK  status: ('A' for Active; 'I' for Inactive)
REMARK    1  A    between atoms: O_2  and  C_3 
REMARK    2  A    between atoms: C_6  and  C_7 
REMARK       I    between atoms: C_7  and  N_8 
REMARK    3  A    between atoms: N_8  and  C_9 
REMARK    4  A    between atoms: C_9  and  N_10 
REMARK    5  A    between atoms: N_10  and  C_11 
REMARK    6  A    between atoms: C_14  and  N_15 
REMARK       I    between atoms: N_18  and  C_19 
REMARK    7  A    between atoms: C_19  and  C_20 
ROOT
HETATM    1  C   UNL     1      42.401 -14.049   5.105  1.00  0.00     0.034 C 
HETATM    2  C   UNL     1      43.345 -14.467   4.170  1.00  0.00     0.032 C 
HETATM    3  C   UNL     1      43.017 -14.514   2.811  1.00  0.00     0.031 C 
HETATM    4  C   UNL     1      41.746 -14.151   2.343  1.00  0.00     0.030 C 
HETATM    5  C   UNL     1      40.766 -13.919   3.322  1.00  0.00     0.031 C 
HETATM    6  C   UNL     1      41.081 -13.880   4.694  1.00  0.00     0.032 C 
ENDROOT
BRANCH   1   7
HETATM    7  N   UNL     1      42.788 -13.676   6.425  1.00  0.00    -0.333 N 
HETATM    8  H   UNL     1      42.641 -12.698   6.635  1.00  0.00     0.168 HD
BRANCH   7   9
HETATM    9  C   UNL     1      43.931 -14.182   7.016  1.00  0.00     0.179 C 
HETATM   10  S   UNL     1      45.486 -13.536   7.006  1.00  0.00    -0.040 SA
BRANCH   9  11
HETATM   11  N   UNL     1      43.816 -15.331   7.785  1.00  0.00    -0.299 N 
HETATM   12  C   UNL     1      43.491 -16.681   7.747  1.00  0.00     0.257 C 
HETATM   13  O   UNL     1      43.521 -17.328   8.795  1.00  0.00    -0.267 OA
HETATM   14  H   UNL     1      44.129 -15.126   8.729  1.00  0.00     0.171 HD
BRANCH  12  15
HETATM   15  C   UNL     1      43.199 -17.411   6.512  1.00  0.00     0.032 A 
HETATM   16  C   UNL     1      41.869 -17.389   6.067  1.00  0.00     0.020 A 
HETATM   17  C   UNL     1      41.561 -17.756   4.757  1.00  0.00     0.038 A 
HETATM   18  C   UNL     1      42.586 -18.122   3.888  1.00  0.00     0.068 A 
HETATM   19  C   UNL     1      43.905 -18.203   4.348  1.00  0.00     0.038 A 
HETATM   20  C   UNL     1      44.222 -17.817   5.655  1.00  0.00     0.020 A 
BRANCH  18  21
HETATM   21  O   UNL     1      42.379 -18.411   2.567  1.00  0.00    -0.356 OA
HETATM   22  C   UNL     1      43.201 -19.483   2.098  1.00  0.00     0.210 C 
ENDBRANCH  18  21
ENDBRANCH  12  15
ENDBRANCH   9  11
ENDBRANCH   7   9
ENDBRANCH   1   7
BRANCH   4  23
HETATM   23  N   UNL     1      41.498 -13.890   1.001  1.00  0.00    -0.378 N 
HETATM   24  C   UNL     1      41.137 -12.539   0.537  1.00  0.00     0.143 C 
HETATM   25  C   UNL     1      41.582 -12.326  -0.935  1.00  0.00     0.146 C 
HETATM   26  N   UNL     1      41.220 -13.436  -1.834  1.00  0.00    -0.345 N 
HETATM   27  C   UNL     1      40.978 -13.341  -3.202  1.00  0.00     0.253 C 
HETATM   28  C   UNL     1      41.478 -14.776  -1.302  1.00  0.00     0.146 C 
HETATM   29  O   UNL     1      40.660 -14.309  -3.893  1.00  0.00    -0.267 OA
HETATM   30  C   UNL     1      40.978 -14.966   0.134  1.00  0.00     0.143 C 
BRANCH  27  31
HETATM   31  C   UNL     1      41.097 -12.042  -3.899  1.00  0.00     0.032 A 
HETATM   32  C   UNL     1      42.339 -11.555  -4.322  1.00  0.00     0.017 A 
HETATM   33  C   UNL     1      42.404 -10.374  -5.063  1.00  0.00     0.001 A 
HETATM   34  C   UNL     1      41.232  -9.694  -5.400  1.00  0.00     0.000 A 
HETATM   35  C   UNL     1      39.992 -10.195  -5.005  1.00  0.00     0.001 A 
HETATM   36  C   UNL     1      39.922 -11.373  -4.260  1.00  0.00     0.017 A 
ENDBRANCH  27  31
ENDBRANCH   4  23
TORSDOF 7
ENDMDL
MODEL 7
REMARK VINA RESULT:      -8.0      3.496      8.346
REMARK  7 active torsions:
REMARK  status: ('A' for Active; 'I' for Inactive)
REMARK    1  A    between atoms: O_2  and  C_3 
REMARK    2  A    between atoms: C_6  and  C_7 
REMARK       I    between atoms: C_7  and  N_8 
REMARK    3  A    between atoms: N_8  and  C_9 
REMARK    4  A    between atoms: C_9  and  N_10 
REMARK    5  A    between atoms: N_10  and  C_11 
REMARK    6  A    between atoms: C_14  and  N_15 
REMARK       I    between atoms: N_18  and  C_19 
REMARK    7  A    between atoms: C_19  and  C_20 
ROOT
HETATM    1  C   UNL     1      39.216 -11.978   4.675  1.00  0.00     0.034 C 
HETATM    2  C   UNL     1      40.359 -12.050   3.882  1.00  0.00     0.032 C 
HETATM    3  C   UNL     1      41.279 -13.088   4.065  1.00  0.00     0.031 C 
HETATM    4  C   UNL     1      41.092 -14.080   5.039  1.00  0.00     0.030 C 
HETATM    5  C   UNL     1      40.036 -13.873   5.943  1.00  0.00     0.031 C 
HETATM    6  C   UNL     1      39.110 -12.826   5.776  1.00  0.00     0.032 C 
ENDROOT
BRANCH   1   7
HETATM    7  N   UNL     1      38.116 -11.150   4.307  1.00  0.00    -0.333 N 
HETATM    8  H   UNL     1      37.216 -11.516   4.587  1.00  0.00     0.168 HD
BRANCH   7   9
HETATM    9  C   UNL     1      38.073 -10.503   3.087  1.00  0.00     0.179 C 
HETATM   10  S   UNL     1      38.948  -9.153   2.588  1.00  0.00    -0.040 SA
BRANCH   9  11
HETATM   11  N   UNL     1      37.272 -11.038   2.089  1.00  0.00    -0.299 N 
HETATM   12  C   UNL     1      37.227 -11.976   1.065  1.00  0.00     0.257 C 
HETATM   13  O   UNL     1      36.205 -12.063   0.383  1.00  0.00    -0.267 OA
HETATM   14  H   UNL     1      36.348 -10.621   2.151  1.00  0.00     0.171 HD
BRANCH  12  15
HETATM   15  C   UNL     1      38.298 -12.940   0.800  1.00  0.00     0.032 A 
HETATM   16  C   UNL     1      39.460 -12.439   0.197  1.00  0.00     0.020 A 
HETATM   17  C   UNL     1      40.637 -13.186   0.214  1.00  0.00     0.038 A 
HETATM   18  C   UNL     1      40.655 -14.424   0.856  1.00  0.00     0.068 A 
HETATM   19  C   UNL     1      39.481 -14.950   1.405  1.00  0.00     0.038 A 
HETATM   20  C   UNL     1      38.303 -14.196   1.407  1.00  0.00     0.020 A 
BRANCH  18  21
HETATM   21  O   UNL     1      41.789 -15.178   0.993  1.00  0.00    -0.356 OA
HETATM   22  C   UNL     1      41.683 -16.457   0.362  1.00  0.00     0.210 C 
ENDBRANCH  18  21
ENDBRANCH  12  15
ENDBRANCH   9  11
ENDBRANCH   7   9
ENDBRANCH   1   7
BRANCH   4  23
HETATM   23  N   UNL     1      41.808 -15.271   5.030  1.00  0.00    -0.378 N 
HETATM   24  C   UNL     1      41.281 -16.477   4.369  1.00  0.00     0.143 C 
HETATM   25  C   UNL     1      42.439 -17.390   3.885  1.00  0.00     0.146 C 
HETATM   26  N   UNL     1      43.486 -17.613   4.898  1.00  0.00    -0.345 N 
HETATM   27  C   UNL     1      44.308 -18.733   4.998  1.00  0.00     0.253 C 
HETATM   28  C   UNL     1      43.910 -16.417   5.628  1.00  0.00     0.146 C 
HETATM   29  O   UNL     1      45.152 -18.864   5.884  1.00  0.00    -0.267 OA
HETATM   30  C   UNL     1      42.739 -15.568   6.137  1.00  0.00     0.143 C 
BRANCH  27  31
HETATM   31  C   UNL     1      44.200 -19.836   4.018  1.00  0.00     0.032 A 
HETATM   32  C   UNL     1      43.839 -19.594   2.688  1.00  0.00     0.017 A 
HETATM   33  C   UNL     1      43.843 -20.643   1.768  1.00  0.00     0.001 A 
HETATM   34  C   UNL     1      44.228 -21.924   2.168  1.00  0.00     0.000 A 
HETATM   35  C   UNL     1      44.618 -22.159   3.487  1.00  0.00     0.001 A 
HETATM   36  C   UNL     1      44.612 -21.114   4.411  1.00  0.00     0.017 A 
ENDBRANCH  27  31
ENDBRANCH   4  23
TORSDOF 7
ENDMDL
MODEL 8
REMARK VINA RESULT:      -7.8      1.379      1.949
REMARK  7 active torsions:
REMARK  status: ('A' for Active; 'I' for Inactive)
REMARK    1  A    between atoms: O_2  and  C_3 
REMARK    2  A    between atoms: C_6  and  C_7 
REMARK       I    between atoms: C_7  and  N_8 
REMARK    3  A    between atoms: N_8  and  C_9 
REMARK    4  A    between atoms: C_9  and  N_10 
REMARK    5  A    between atoms: N_10  and  C_11 
REMARK    6  A    between atoms: C_14  and  N_15 
REMARK       I    between atoms: N_18  and  C_19 
REMARK    7  A    between atoms: C_19  and  C_20 
ROOT
HETATM    1  C   UNL     1      41.674 -15.208   5.297  1.00  0.00     0.034 C 
HETATM    2  C   UNL     1      40.379 -14.815   4.969  1.00  0.00     0.032 C 
HETATM    3  C   UNL     1      40.046 -14.522   3.642  1.00  0.00     0.031 C 
HETATM    4  C   UNL     1      40.988 -14.608   2.606  1.00  0.00     0.030 C 
HETATM    5  C   UNL     1      42.321 -14.819   2.994  1.00  0.00     0.031 C 
HETATM    6  C   UNL     1      42.670 -15.104   4.328  1.00  0.00     0.032 C 
ENDROOT
BRANCH   1   7
HETATM    7  N   UNL     1      41.962 -15.822   6.550  1.00  0.00    -0.333 N 
HETATM    8  H   UNL     1      41.315 -15.576   7.286  1.00  0.00     0.168 HD
BRANCH   7   9
HETATM    9  C   UNL     1      43.259 -15.965   7.006  1.00  0.00     0.179 C 
HETATM   10  S   UNL     1      44.516 -14.846   6.949  1.00  0.00    -0.040 SA
BRANCH   9  11
HETATM   11  N   UNL     1      43.595 -17.138   7.665  1.00  0.00    -0.299 N 
HETATM   12  C   UNL     1      43.820 -18.499   7.495  1.00  0.00     0.257 C 
HETATM   13  O   UNL     1      44.093 -19.183   8.482  1.00  0.00    -0.267 OA
HETATM   14  H   UNL     1      43.799 -16.921   8.636  1.00  0.00     0.171 HD
BRANCH  12  15
HETATM   15  C   UNL     1      43.840 -19.161   6.189  1.00  0.00     0.032 A 
HETATM   16  C   UNL     1      43.733 -18.333   5.062  1.00  0.00     0.020 A 
HETATM   17  C   UNL     1      44.076 -18.817   3.801  1.00  0.00     0.038 A 
HETATM   18  C   UNL     1      44.548 -20.122   3.671  1.00  0.00     0.068 A 
HETATM   19  C   UNL     1      44.598 -20.967   4.786  1.00  0.00     0.038 A 
HETATM   20  C   UNL     1      44.273 -20.480   6.056  1.00  0.00     0.020 A 
BRANCH  18  21
HETATM   21  O   UNL     1      44.987 -20.644   2.486  1.00  0.00    -0.356 OA
HETATM   22  C   UNL     1      44.152 -21.699   2.001  1.00  0.00     0.210 C 
ENDBRANCH  18  21
ENDBRANCH  12  15
ENDBRANCH   9  11
ENDBRANCH   7   9
ENDBRANCH   1   7
BRANCH   4  23
HETATM   23  N   UNL     1      40.616 -14.632   1.268  1.00  0.00    -0.378 N 
HETATM   24  C   UNL     1      39.198 -14.624   0.866  1.00  0.00     0.143 C 
HETATM   25  C   UNL     1      39.025 -13.973  -0.532  1.00  0.00     0.146 C 
HETATM   26  N   UNL     1      39.981 -14.465  -1.540  1.00  0.00    -0.345 N 
HETATM   27  C   UNL     1      39.770 -14.516  -2.917  1.00  0.00     0.253 C 
HETATM   28  C   UNL     1      41.367 -14.577  -1.082  1.00  0.00     0.146 C 
HETATM   29  O   UNL     1      40.606 -14.959  -3.704  1.00  0.00    -0.267 OA
HETATM   30  C   UNL     1      41.502 -15.273   0.277  1.00  0.00     0.143 C 
BRANCH  27  31
HETATM   31  C   UNL     1      38.502 -14.028  -3.503  1.00  0.00     0.032 A 
HETATM   32  C   UNL     1      37.487 -14.914  -3.880  1.00  0.00     0.017 A 
HETATM   33  C   UNL     1      36.267 -14.414  -4.337  1.00  0.00     0.001 A 
HETATM   34  C   UNL     1      36.053 -13.036  -4.396  1.00  0.00     0.000 A 
HETATM   35  C   UNL     1      37.053 -12.152  -3.990  1.00  0.00     0.001 A 
HETATM   36  C   UNL     1      38.277 -12.647  -3.537  1.00  0.00     0.017 A 
ENDBRANCH  27  31
ENDBRANCH   4  23
TORSDOF 7
ENDMDL
MODEL 9
REMARK VINA RESULT:      -7.7      5.049      9.064
REMARK  7 active torsions:
REMARK  status: ('A' for Active; 'I' for Inactive)
REMARK    1  A    between atoms: O_2  and  C_3 
REMARK    2  A    between atoms: C_6  and  C_7 
REMARK       I    between atoms: C_7  and  N_8 
REMARK    3  A    between atoms: N_8  and  C_9 
REMARK    4  A    between atoms: C_9  and  N_10 
REMARK    5  A    between atoms: N_10  and  C_11 
REMARK    6  A    between atoms: C_14  and  N_15 
REMARK       I    between atoms: N_18  and  C_19 
REMARK    7  A    between atoms: C_19  and  C_20 
ROOT
HETATM    1  C   UNL     1      39.228 -11.993   4.943  1.00  0.00     0.034 C 
HETATM    2  C   UNL     1      39.435 -12.616   6.170  1.00  0.00     0.032 C 
HETATM    3  C   UNL     1      40.079 -13.856   6.230  1.00  0.00     0.031 C 
HETATM    4  C   UNL     1      40.534 -14.511   5.076  1.00  0.00     0.030 C 
HETATM    5  C   UNL     1      40.142 -13.951   3.848  1.00  0.00     0.031 C 
HETATM    6  C   UNL     1      39.483 -12.709   3.775  1.00  0.00     0.032 C 
ENDROOT
BRANCH   1   7
HETATM    7  N   UNL     1      38.884 -10.611   4.868  1.00  0.00    -0.333 N 
HETATM    8  H   UNL     1      38.501 -10.332   3.975  1.00  0.00     0.168 HD
BRANCH   7   9
HETATM    9  C   UNL     1      39.679  -9.634   5.436  1.00  0.00     0.179 C 
HETATM   10  S   UNL     1      41.149  -9.028   4.880  1.00  0.00    -0.040 SA
BRANCH   9  11
HETATM   11  N   UNL     1      39.215  -8.993   6.576  1.00  0.00    -0.299 N 
HETATM   12  C   UNL     1      39.260  -8.996   7.964  1.00  0.00     0.257 C 
HETATM   13  O   UNL     1      38.594  -8.162   8.581  1.00  0.00    -0.267 OA
HETATM   14  H   UNL     1      38.667  -8.185   6.296  1.00  0.00     0.171 HD
BRANCH  12  15
HETATM   15  C   UNL     1      40.127  -9.878   8.747  1.00  0.00     0.032 A 
HETATM   16  C   UNL     1      41.510  -9.706   8.585  1.00  0.00     0.020 A 
HETATM   17  C   UNL     1      42.398 -10.249   9.513  1.00  0.00     0.038 A 
HETATM   18  C   UNL     1      41.900 -10.943  10.615  1.00  0.00     0.068 A 
HETATM   19  C   UNL     1      40.524 -11.166  10.744  1.00  0.00     0.038 A 
HETATM   20  C   UNL     1      39.629 -10.608   9.826  1.00  0.00     0.020 A 
BRANCH  18  21
HETATM   21  O   UNL     1      42.697 -11.429  11.615  1.00  0.00    -0.356 OA
HETATM   22  C   UNL     1      42.315 -10.954  12.909  1.00  0.00     0.210 C 
ENDBRANCH  18  21
ENDBRANCH  12  15
ENDBRANCH   9  11
ENDBRANCH   7   9
ENDBRANCH   1   7
BRANCH   4  23
HETATM   23  N   UNL     1      41.438 -15.565   5.130  1.00  0.00    -0.378 N 
HETATM   24  C   UNL     1      41.033 -16.940   4.788  1.00  0.00     0.143 C 
HETATM   25  C   UNL     1      42.241 -17.753   4.253  1.00  0.00     0.146 C 
HETATM   26  N   UNL     1      43.458 -17.622   5.074  1.00  0.00    -0.345 N 
HETATM   27  C   UNL     1      44.470 -18.571   5.202  1.00  0.00     0.253 C 
HETATM   28  C   UNL     1      43.776 -16.259   5.503  1.00  0.00     0.146 C 
HETATM   29  O   UNL     1      45.454 -18.405   5.923  1.00  0.00    -0.267 OA
HETATM   30  C   UNL     1      42.570 -15.505   6.075  1.00  0.00     0.143 C 
BRANCH  27  31
HETATM   31  C   UNL     1      44.404 -19.847   4.456  1.00  0.00     0.032 A 
HETATM   32  C   UNL     1      44.281 -19.869   3.063  1.00  0.00     0.017 A 
HETATM   33  C   UNL     1      44.320 -21.088   2.383  1.00  0.00     0.001 A 
HETATM   34  C   UNL     1      44.505 -22.277   3.090  1.00  0.00     0.000 A 
HETATM   35  C   UNL     1      44.659 -22.253   4.476  1.00  0.00     0.001 A 
HETATM   36  C   UNL     1      44.616 -21.038   5.160  1.00  0.00     0.017 A 
ENDBRANCH  27  31
ENDBRANCH   4  23
TORSDOF 7
ENDMDL
MODEL 10
REMARK VINA RESULT:      -7.7      3.148      4.550
REMARK  7 active torsions:
REMARK  status: ('A' for Active; 'I' for Inactive)
REMARK    1  A    between atoms: O_2  and  C_3 
REMARK    2  A    between atoms: C_6  and  C_7 
REMARK       I    between atoms: C_7  and  N_8 
REMARK    3  A    between atoms: N_8  and  C_9 
REMARK    4  A    between atoms: C_9  and  N_10 
REMARK    5  A    between atoms: N_10  and  C_11 
REMARK    6  A    between atoms: C_14  and  N_15 
REMARK       I    between atoms: N_18  and  C_19 
REMARK    7  A    between atoms: C_19  and  C_20 
ROOT
HETATM    1  C   UNL     1      42.239 -16.774   5.006  1.00  0.00     0.034 C 
HETATM    2  C   UNL     1      40.906 -16.459   4.758  1.00  0.00     0.032 C 
HETATM    3  C   UNL     1      40.577 -15.315   4.024  1.00  0.00     0.031 C 
HETATM    4  C   UNL     1      41.560 -14.452   3.518  1.00  0.00     0.030 C 
HETATM    5  C   UNL     1      42.877 -14.692   3.944  1.00  0.00     0.031 C 
HETATM    6  C   UNL     1      43.219 -15.834   4.693  1.00  0.00     0.032 C 
ENDROOT
BRANCH   1   7
HETATM    7  N   UNL     1      42.618 -18.074   5.450  1.00  0.00    -0.333 N 
HETATM    8  H   UNL     1      42.101 -18.399   6.256  1.00  0.00     0.168 HD
BRANCH   7   9
HETATM    9  C   UNL     1      43.939 -18.479   5.466  1.00  0.00     0.179 C 
HETATM   10  S   UNL     1      45.128 -18.124   6.606  1.00  0.00    -0.040 SA
BRANCH   9  11
HETATM   11  N   UNL     1      44.370 -19.346   4.473  1.00  0.00    -0.299 N 
HETATM   12  C   UNL     1      44.267 -19.647   3.120  1.00  0.00     0.257 C 
HETATM   13  O   UNL     1      44.882 -20.619   2.680  1.00  0.00    -0.267 OA
HETATM   14  H   UNL     1      45.058 -19.980   4.868  1.00  0.00     0.171 HD
BRANCH  12  15
HETATM   15  C   UNL     1      43.536 -18.819   2.158  1.00  0.00     0.032 A 
HETATM   16  C   UNL     1      42.157 -19.048   2.051  1.00  0.00     0.020 A 
HETATM   17  C   UNL     1      41.336 -18.107   1.431  1.00  0.00     0.038 A 
HETATM   18  C   UNL     1      41.894 -16.927   0.939  1.00  0.00     0.068 A 
HETATM   19  C   UNL     1      43.277 -16.726   0.992  1.00  0.00     0.038 A 
HETATM   20  C   UNL     1      44.102 -17.658   1.631  1.00  0.00     0.020 A 
BRANCH  18  21
HETATM   21  O   UNL     1      41.147 -15.917   0.397  1.00  0.00    -0.356 OA
HETATM   22  C   UNL     1      41.321 -15.798  -1.018  1.00  0.00     0.210 C 
ENDBRANCH  18  21
ENDBRANCH  12  15
ENDBRANCH   9  11
ENDBRANCH   7   9
ENDBRANCH   1   7
BRANCH   4  23
HETATM   23  N   UNL     1      41.282 -13.506   2.539  1.00  0.00    -0.378 N 
HETATM   24  C   UNL     1      42.359 -12.864   1.765  1.00  0.00     0.143 C 
HETATM   25  C   UNL     1      41.850 -12.434   0.364  1.00  0.00     0.146 C 
HETATM   26  N   UNL     1      40.561 -11.721   0.392  1.00  0.00    -0.345 N 
HETATM   27  C   UNL     1      40.123 -10.776  -0.534  1.00  0.00     0.253 C 
HETATM   28  C   UNL     1      39.541 -12.311   1.262  1.00  0.00     0.146 C 
HETATM   29  O   UNL     1      39.039 -10.202  -0.440  1.00  0.00    -0.267 OA
HETATM   30  C   UNL     1      40.068 -12.674   2.655  1.00  0.00     0.143 C 
BRANCH  27  31
HETATM   31  C   UNL     1      40.964 -10.417  -1.697  1.00  0.00     0.032 A 
HETATM   32  C   UNL     1      40.860 -11.107  -2.909  1.00  0.00     0.017 A 
HETATM   33  C   UNL     1      41.598 -10.679  -4.015  1.00  0.00     0.001 A 
HETATM   34  C   UNL     1      42.416  -9.553  -3.917  1.00  0.00     0.000 A 
HETATM   35  C   UNL     1      42.496  -8.846  -2.717  1.00  0.00     0.001 A 
HETATM   36  C   UNL     1      41.765  -9.273  -1.608  1.00  0.00     0.017 A 
ENDBRANCH  27  31
ENDBRANCH   4  23
TORSDOF 7
ENDMDL
