MODEL 1
REMARK VINA RESULT:      -8.2      0.000      0.000
REMARK  7 active torsions:
REMARK  status: ('A' for Active; 'I' for Inactive)
REMARK    1  A    between atoms: O_2  and  C_3 
REMARK    2  A    between atoms: C_4  and  O_5 
REMARK    3  A    between atoms: C_8  and  C_9 
REMARK    4  A    between atoms: N_10  and  N_11 
REMARK    5  A    between atoms: C_22  and  C_23 
REMARK       I    between atoms: C_23  and  N_24 
REMARK    6  A    between atoms: N_24  and  C_25 
REMARK    7  A    between atoms: C_32  and  N_33 
ROOT
HETATM    1  N   UNL     1      39.702 -12.637   1.604  1.00  0.00    -0.197 N 
HETATM    2  C   UNL     1      40.591 -11.833   0.916  1.00  0.00     0.183 A 
HETATM    3  C   UNL     1      41.307 -12.652   0.059  1.00  0.00     0.125 A 
HETATM    4  N   UNL     1      42.329 -12.172  -0.702  1.00  0.00    -0.242 NA
HETATM    5  C   UNL     1      42.559 -10.856  -0.559  1.00  0.00     0.086 A 
HETATM    6  C   UNL     1      41.820 -10.038   0.337  1.00  0.00     0.088 A 
HETATM    7  N   UNL     1      40.823 -10.512   1.103  1.00  0.00    -0.225 NA
HETATM    8  C   UNL     1      43.574 -10.284  -1.316  1.00  0.00     0.034 A 
HETATM    9  C   UNL     1      43.890  -8.930  -1.208  1.00  0.00     0.002 A 
HETATM   10  C   UNL     1      43.178  -8.132  -0.324  1.00  0.00     0.002 A 
HETATM   11  C   UNL     1      42.150  -8.693   0.437  1.00  0.00     0.034 A 
HETATM   12  C   UNL     1      40.833 -13.984   0.190  1.00  0.00     0.110 C 
HETATM   13  C   UNL     1      39.776 -13.930   1.085  1.00  0.00     0.143 C 
ENDROOT
BRANCH   1  14
HETATM   14  N   UNL     1      38.875 -12.224   2.613  1.00  0.00    -0.176 NA
HETATM   15  C   UNL     1      39.228 -12.544   3.824  1.00  0.00     0.150 C 
BRANCH  15  16
HETATM   16  C   UNL     1      40.484 -13.152   4.324  1.00  0.00    -0.014 A 
HETATM   17  C   UNL     1      40.388 -14.291   5.129  1.00  0.00     0.052 A 
HETATM   18  C   UNL     1      41.546 -14.874   5.655  1.00  0.00     0.102 A 
HETATM   19  C   UNL     1      42.805 -14.292   5.390  1.00  0.00     0.101 A 
HETATM   20  C   UNL     1      42.885 -13.144   4.592  1.00  0.00     0.040 A 
HETATM   21  C   UNL     1      41.725 -12.567   4.069  1.00  0.00     0.016 A 
BRANCH  18  22
HETATM   22  O   UNL     1      41.558 -15.990   6.454  1.00  0.00    -0.353 OA
HETATM   23  C   UNL     1      40.445 -16.869   6.380  1.00  0.00     0.210 C 
ENDBRANCH  18  22
BRANCH  19  24
HETATM   24  O   UNL     1      43.889 -14.923   5.949  1.00  0.00    -0.353 OA
HETATM   25  C   UNL     1      44.636 -14.210   6.923  1.00  0.00     0.210 C 
ENDBRANCH  19  24
ENDBRANCH  15  16
ENDBRANCH   1  14
BRANCH  13  26
HETATM   26  N   UNL     1      38.944 -14.915   1.515  1.00  0.00    -0.383 N 
HETATM   27  H   UNL     1      39.266 -15.884   1.443  1.00  0.00     0.157 HD
HETATM   28  H   UNL     1      37.938 -14.807   1.395  1.00  0.00     0.157 HD
ENDBRANCH  13  26
BRANCH  12  29
HETATM   29  C   UNL     1      41.384 -15.195  -0.400  1.00  0.00     0.258 C 
HETATM   30  N   UNL     1      42.381 -15.779   0.360  1.00  0.00    -0.352 N 
HETATM   31  H   UNL     1      42.679 -15.234   1.165  1.00  0.00     0.163 HD
HETATM   32  O   UNL     1      40.920 -15.719  -1.409  1.00  0.00    -0.267 OA
BRANCH  30  33
HETATM   33  C   UNL     1      42.413 -17.226   0.519  1.00  0.00     0.084 C 
HETATM   34  C   UNL     1      43.747 -17.677   1.126  1.00  0.00     0.025 C 
HETATM   35  C   UNL     1      43.909 -17.250   2.588  1.00  0.00     0.002 C 
HETATM   36  C   UNL     1      42.717 -17.661   3.449  1.00  0.00     0.000 C 
HETATM   37  C   UNL     1      41.386 -17.221   2.850  1.00  0.00     0.002 C 
HETATM   38  C   UNL     1      41.241 -17.693   1.402  1.00  0.00     0.025 C 
ENDBRANCH  30  33
ENDBRANCH  12  29
TORSDOF 7
ENDMDL
MODEL 2
REMARK VINA RESULT:      -7.5      2.497      5.921
REMARK  7 active torsions:
REMARK  status: ('A' for Active; 'I' for Inactive)
REMARK    1  A    between atoms: O_2  and  C_3 
REMARK    2  A    between atoms: C_4  and  O_5 
REMARK    3  A    between atoms: C_8  and  C_9 
REMARK    4  A    between atoms: N_10  and  N_11 
REMARK    5  A    between atoms: C_22  and  C_23 
REMARK       I    between atoms: C_23  and  N_24 
REMARK    6  A    between atoms: N_24  and  C_25 
REMARK    7  A    between atoms: C_32  and  N_33 
ROOT
HETATM    1  N   UNL     1      39.723 -15.332   2.325  1.00  0.00    -0.197 N 
HETATM    2  C   UNL     1      40.272 -14.502   3.284  1.00  0.00     0.183 A 
HETATM    3  C   UNL     1      41.425 -15.114   3.746  1.00  0.00     0.125 A 
HETATM    4  N   UNL     1      42.157 -14.585   4.766  1.00  0.00    -0.242 NA
HETATM    5  C   UNL     1      41.675 -13.430   5.256  1.00  0.00     0.086 A 
HETATM    6  C   UNL     1      40.483 -12.826   4.773  1.00  0.00     0.088 A 
HETATM    7  N   UNL     1      39.748 -13.355   3.780  1.00  0.00    -0.225 NA
HETATM    8  C   UNL     1      42.375 -12.815   6.286  1.00  0.00     0.034 A 
HETATM    9  C   UNL     1      41.928 -11.627   6.864  1.00  0.00     0.002 A 
HETATM   10  C   UNL     1      40.757 -11.042   6.403  1.00  0.00     0.002 A 
HETATM   11  C   UNL     1      40.048 -11.647   5.363  1.00  0.00     0.034 A 
HETATM   12  C   UNL     1      41.616 -16.331   3.041  1.00  0.00     0.110 C 
HETATM   13  C   UNL     1      40.598 -16.395   2.102  1.00  0.00     0.143 C 
ENDROOT
BRANCH   1  14
HETATM   14  N   UNL     1      38.528 -15.130   1.690  1.00  0.00    -0.176 NA
HETATM   15  C   UNL     1      38.546 -14.343   0.653  1.00  0.00     0.150 C 
BRANCH  15  16
HETATM   16  C   UNL     1      39.692 -13.744  -0.072  1.00  0.00    -0.014 A 
HETATM   17  C   UNL     1      40.075 -12.443   0.265  1.00  0.00     0.052 A 
HETATM   18  C   UNL     1      41.126 -11.824  -0.421  1.00  0.00     0.102 A 
HETATM   19  C   UNL     1      41.776 -12.509  -1.470  1.00  0.00     0.101 A 
HETATM   20  C   UNL     1      41.374 -13.807  -1.805  1.00  0.00     0.040 A 
HETATM   21  C   UNL     1      40.324 -14.420  -1.116  1.00  0.00     0.016 A 
BRANCH  18  22
HETATM   22  O   UNL     1      41.576 -10.552  -0.165  1.00  0.00    -0.353 OA
HETATM   23  C   UNL     1      41.015  -9.861   0.941  1.00  0.00     0.210 C 
ENDBRANCH  18  22
BRANCH  19  24
HETATM   24  O   UNL     1      42.792 -11.828  -2.094  1.00  0.00    -0.353 OA
HETATM   25  C   UNL     1      42.538 -11.312  -3.393  1.00  0.00     0.210 C 
ENDBRANCH  19  24
ENDBRANCH  15  16
ENDBRANCH   1  14
BRANCH  13  26
HETATM   26  N   UNL     1      40.354 -17.325   1.141  1.00  0.00    -0.383 N 
HETATM   27  H   UNL     1      41.153 -17.726   0.643  1.00  0.00     0.157 HD
HETATM   28  H   UNL     1      39.513 -17.244   0.571  1.00  0.00     0.157 HD
ENDBRANCH  13  26
BRANCH  12  29
HETATM   29  C   UNL     1      42.604 -17.369   3.293  1.00  0.00     0.258 C 
HETATM   30  N   UNL     1      43.509 -17.045   4.287  1.00  0.00    -0.352 N 
HETATM   31  H   UNL     1      43.442 -16.091   4.632  1.00  0.00     0.163 HD
HETATM   32  O   UNL     1      42.560 -18.477   2.764  1.00  0.00    -0.267 OA
BRANCH  30  33
HETATM   33  C   UNL     1      43.899 -18.053   5.263  1.00  0.00     0.084 C 
HETATM   34  C   UNL     1      45.029 -17.534   6.160  1.00  0.00     0.025 C 
HETATM   35  C   UNL     1      44.573 -16.418   7.104  1.00  0.00     0.002 C 
HETATM   36  C   UNL     1      43.334 -16.806   7.908  1.00  0.00     0.000 C 
HETATM   37  C   UNL     1      42.207 -17.328   7.025  1.00  0.00     0.002 C 
HETATM   38  C   UNL     1      42.686 -18.465   6.120  1.00  0.00     0.025 C 
ENDBRANCH  30  33
ENDBRANCH  12  29
TORSDOF 7
ENDMDL
MODEL 3
REMARK VINA RESULT:      -7.5      2.378      5.900
REMARK  7 active torsions:
REMARK  status: ('A' for Active; 'I' for Inactive)
REMARK    1  A    between atoms: O_2  and  C_3 
REMARK    2  A    between atoms: C_4  and  O_5 
REMARK    3  A    between atoms: C_8  and  C_9 
REMARK    4  A    between atoms: N_10  and  N_11 
REMARK    5  A    between atoms: C_22  and  C_23 
REMARK       I    between atoms: C_23  and  N_24 
REMARK    6  A    between atoms: N_24  and  C_25 
REMARK    7  A    between atoms: C_32  and  N_33 
ROOT
HETATM    1  N   UNL     1      39.696 -15.303   2.360  1.00  0.00    -0.197 N 
HETATM    2  C   UNL     1      40.248 -14.479   3.322  1.00  0.00     0.183 A 
HETATM    3  C   UNL     1      41.410 -15.088   3.767  1.00  0.00     0.125 A 
HETATM    4  N   UNL     1      42.147 -14.565   4.785  1.00  0.00    -0.242 NA
HETATM    5  C   UNL     1      41.662 -13.419   5.293  1.00  0.00     0.086 A 
HETATM    6  C   UNL     1      40.461 -12.819   4.828  1.00  0.00     0.088 A 
HETATM    7  N   UNL     1      39.721 -13.342   3.836  1.00  0.00    -0.225 NA
HETATM    8  C   UNL     1      42.367 -12.810   6.323  1.00  0.00     0.034 A 
HETATM    9  C   UNL     1      41.917 -11.631   6.918  1.00  0.00     0.002 A 
HETATM   10  C   UNL     1      40.737 -11.051   6.475  1.00  0.00     0.002 A 
HETATM   11  C   UNL     1      40.023 -11.649   5.435  1.00  0.00     0.034 A 
HETATM   12  C   UNL     1      41.603 -16.296   3.047  1.00  0.00     0.110 C 
HETATM   13  C   UNL     1      40.577 -16.357   2.117  1.00  0.00     0.143 C 
ENDROOT
BRANCH   1  14
HETATM   14  N   UNL     1      38.494 -15.103   1.738  1.00  0.00    -0.176 NA
HETATM   15  C   UNL     1      38.473 -14.220   0.782  1.00  0.00     0.150 C 
BRANCH  15  16
HETATM   16  C   UNL     1      39.587 -13.494   0.127  1.00  0.00    -0.014 A 
HETATM   17  C   UNL     1      40.253 -14.125  -0.927  1.00  0.00     0.052 A 
HETATM   18  C   UNL     1      41.337 -13.494  -1.548  1.00  0.00     0.102 A 
HETATM   19  C   UNL     1      41.767 -12.231  -1.087  1.00  0.00     0.101 A 
HETATM   20  C   UNL     1      41.099 -11.615  -0.022  1.00  0.00     0.040 A 
HETATM   21  C   UNL     1      40.017 -12.251   0.593  1.00  0.00     0.016 A 
BRANCH  18  22
HETATM   22  O   UNL     1      42.054 -14.029  -2.588  1.00  0.00    -0.353 OA
HETATM   23  C   UNL     1      41.383 -14.922  -3.465  1.00  0.00     0.210 C 
ENDBRANCH  18  22
BRANCH  19  24
HETATM   24  O   UNL     1      42.840 -11.684  -1.747  1.00  0.00    -0.353 OA
HETATM   25  C   UNL     1      42.709 -10.355  -2.230  1.00  0.00     0.210 C 
ENDBRANCH  19  24
ENDBRANCH  15  16
ENDBRANCH   1  14
BRANCH  13  26
HETATM   26  N   UNL     1      40.330 -17.278   1.148  1.00  0.00    -0.383 N 
HETATM   27  H   UNL     1      40.158 -18.245   1.434  1.00  0.00     0.157 HD
HETATM   28  H   UNL     1      40.800 -17.194   0.248  1.00  0.00     0.157 HD
ENDBRANCH  13  26
BRANCH  12  29
HETATM   29  C   UNL     1      42.601 -17.329   3.277  1.00  0.00     0.258 C 
HETATM   30  N   UNL     1      43.504 -17.016   4.277  1.00  0.00    -0.352 N 
HETATM   31  H   UNL     1      43.428 -16.070   4.641  1.00  0.00     0.163 HD
HETATM   32  O   UNL     1      42.568 -18.427   2.727  1.00  0.00    -0.267 OA
BRANCH  30  33
HETATM   33  C   UNL     1      43.904 -18.039   5.233  1.00  0.00     0.084 C 
HETATM   34  C   UNL     1      45.018 -17.521   6.150  1.00  0.00     0.025 C 
HETATM   35  C   UNL     1      44.536 -16.434   7.116  1.00  0.00     0.002 C 
HETATM   36  C   UNL     1      43.298 -16.862   7.901  1.00  0.00     0.000 C 
HETATM   37  C   UNL     1      42.187 -17.384   6.997  1.00  0.00     0.002 C 
HETATM   38  C   UNL     1      42.693 -18.492   6.071  1.00  0.00     0.025 C 
ENDBRANCH  30  33
ENDBRANCH  12  29
TORSDOF 7
ENDMDL
MODEL 4
REMARK VINA RESULT:      -7.1      1.361      2.032
REMARK  7 active torsions:
REMARK  status: ('A' for Active; 'I' for Inactive)
REMARK    1  A    between atoms: O_2  and  C_3 
REMARK    2  A    between atoms: C_4  and  O_5 
REMARK    3  A    between atoms: C_8  and  C_9 
REMARK    4  A    between atoms: N_10  and  N_11 
REMARK    5  A    between atoms: C_22  and  C_23 
REMARK       I    between atoms: C_23  and  N_24 
REMARK    6  A    between atoms: N_24  and  C_25 
REMARK    7  A    between atoms: C_32  and  N_33 
ROOT
HETATM    1  N   UNL     1      39.256 -12.345   0.786  1.00  0.00    -0.197 N 
HETATM    2  C   UNL     1      40.303 -11.562   0.340  1.00  0.00     0.183 A 
HETATM    3  C   UNL     1      41.210 -12.403  -0.283  1.00  0.00     0.125 A 
HETATM    4  N   UNL     1      42.401 -11.945  -0.758  1.00  0.00    -0.242 NA
HETATM    5  C   UNL     1      42.601 -10.628  -0.585  1.00  0.00     0.086 A 
HETATM    6  C   UNL     1      41.661  -9.786   0.068  1.00  0.00     0.088 A 
HETATM    7  N   UNL     1      40.492 -10.237   0.555  1.00  0.00    -0.225 NA
HETATM    8  C   UNL     1      43.785 -10.078  -1.060  1.00  0.00     0.034 A 
HETATM    9  C   UNL     1      44.077  -8.724  -0.899  1.00  0.00     0.002 A 
HETATM   10  C   UNL     1      43.166  -7.903  -0.250  1.00  0.00     0.002 A 
HETATM   11  C   UNL     1      41.968  -8.441   0.225  1.00  0.00     0.034 A 
HETATM   12  C   UNL     1      40.704 -13.729  -0.255  1.00  0.00     0.110 C 
HETATM   13  C   UNL     1      39.449 -13.649   0.330  1.00  0.00     0.143 C 
ENDROOT
BRANCH   1  14
HETATM   14  N   UNL     1      38.197 -11.905   1.532  1.00  0.00    -0.176 NA
HETATM   15  C   UNL     1      38.340 -11.945   2.825  1.00  0.00     0.150 C 
BRANCH  15  16
HETATM   16  C   UNL     1      39.539 -12.238   3.646  1.00  0.00    -0.014 A 
HETATM   17  C   UNL     1      40.064 -11.210   4.434  1.00  0.00     0.052 A 
HETATM   18  C   UNL     1      41.218 -11.431   5.192  1.00  0.00     0.102 A 
HETATM   19  C   UNL     1      41.862 -12.687   5.137  1.00  0.00     0.101 A 
HETATM   20  C   UNL     1      41.332 -13.703   4.334  1.00  0.00     0.040 A 
HETATM   21  C   UNL     1      40.179 -13.476   3.578  1.00  0.00     0.016 A 
BRANCH  18  22
HETATM   22  O   UNL     1      41.810 -10.489   5.997  1.00  0.00    -0.353 OA
HETATM   23  C   UNL     1      41.506  -9.124   5.750  1.00  0.00     0.210 C 
ENDBRANCH  18  22
BRANCH  19  24
HETATM   24  O   UNL     1      42.992 -12.818   5.907  1.00  0.00    -0.353 OA
HETATM   25  C   UNL     1      43.570 -14.110   6.014  1.00  0.00     0.210 C 
ENDBRANCH  19  24
ENDBRANCH  15  16
ENDBRANCH   1  14
BRANCH  13  26
HETATM   26  N   UNL     1      38.522 -14.620   0.546  1.00  0.00    -0.383 N 
HETATM   27  H   UNL     1      37.972 -14.579   1.408  1.00  0.00     0.157 HD
HETATM   28  H   UNL     1      38.708 -15.568   0.222  1.00  0.00     0.157 HD
ENDBRANCH  13  26
BRANCH  12  29
HETATM   29  C   UNL     1      41.376 -14.956  -0.654  1.00  0.00     0.258 C 
HETATM   30  N   UNL     1      42.175 -15.498   0.336  1.00  0.00    -0.352 N 
HETATM   31  H   UNL     1      42.281 -14.920   1.165  1.00  0.00     0.163 HD
HETATM   32  O   UNL     1      41.155 -15.524  -1.721  1.00  0.00    -0.267 OA
BRANCH  30  33
HETATM   33  C   UNL     1      42.173 -16.938   0.555  1.00  0.00     0.084 C 
HETATM   34  C   UNL     1      43.448 -17.379   1.284  1.00  0.00     0.025 C 
HETATM   35  C   UNL     1      43.501 -16.892   2.736  1.00  0.00     0.002 C 
HETATM   36  C   UNL     1      42.239 -17.253   3.516  1.00  0.00     0.000 C 
HETATM   37  C   UNL     1      40.966 -16.823   2.795  1.00  0.00     0.002 C 
HETATM   38  C   UNL     1      40.928 -17.354   1.361  1.00  0.00     0.025 C 
ENDBRANCH  30  33
ENDBRANCH  12  29
TORSDOF 7
ENDMDL
MODEL 5
REMARK VINA RESULT:      -7.1      2.492      5.755
REMARK  7 active torsions:
REMARK  status: ('A' for Active; 'I' for Inactive)
REMARK    1  A    between atoms: O_2  and  C_3 
REMARK    2  A    between atoms: C_4  and  O_5 
REMARK    3  A    between atoms: C_8  and  C_9 
REMARK    4  A    between atoms: N_10  and  N_11 
REMARK    5  A    between atoms: C_22  and  C_23 
REMARK       I    between atoms: C_23  and  N_24 
REMARK    6  A    between atoms: N_24  and  C_25 
REMARK    7  A    between atoms: C_32  and  N_33 
ROOT
HETATM    1  N   UNL     1      40.400 -14.436   0.502  1.00  0.00    -0.197 N 
HETATM    2  C   UNL     1      40.378 -13.934   1.790  1.00  0.00     0.183 A 
HETATM    3  C   UNL     1      41.334 -14.624   2.516  1.00  0.00     0.125 A 
HETATM    4  N   UNL     1      41.501 -14.421   3.853  1.00  0.00    -0.242 NA
HETATM    5  C   UNL     1      40.682 -13.497   4.383  1.00  0.00     0.086 A 
HETATM    6  C   UNL     1      39.699 -12.811   3.619  1.00  0.00     0.088 A 
HETATM    7  N   UNL     1      39.519 -13.021   2.305  1.00  0.00    -0.225 NA
HETATM    8  C   UNL     1      40.802 -13.217   5.738  1.00  0.00     0.034 A 
HETATM    9  C   UNL     1      39.973 -12.288   6.367  1.00  0.00     0.002 A 
HETATM   10  C   UNL     1      39.004 -11.627   5.627  1.00  0.00     0.002 A 
HETATM   11  C   UNL     1      38.878 -11.893   4.261  1.00  0.00     0.034 A 
HETATM   12  C   UNL     1      41.987 -15.548   1.660  1.00  0.00     0.110 C 
HETATM   13  C   UNL     1      41.453 -15.345   0.396  1.00  0.00     0.143 C 
ENDROOT
BRANCH   1  14
HETATM   14  N   UNL     1      39.542 -14.081  -0.503  1.00  0.00    -0.176 NA
HETATM   15  C   UNL     1      39.754 -12.929  -1.070  1.00  0.00     0.150 C 
BRANCH  15  16
HETATM   16  C   UNL     1      40.886 -11.985  -0.921  1.00  0.00    -0.014 A 
HETATM   17  C   UNL     1      40.706 -10.865  -0.105  1.00  0.00     0.052 A 
HETATM   18  C   UNL     1      41.735  -9.926   0.032  1.00  0.00     0.102 A 
HETATM   19  C   UNL     1      42.942 -10.104  -0.677  1.00  0.00     0.101 A 
HETATM   20  C   UNL     1      43.105 -11.225  -1.501  1.00  0.00     0.040 A 
HETATM   21  C   UNL     1      42.074 -12.158  -1.633  1.00  0.00     0.016 A 
BRANCH  18  22
HETATM   22  O   UNL     1      41.656  -8.796   0.808  1.00  0.00    -0.353 OA
HETATM   23  C   UNL     1      40.363  -8.326   1.162  1.00  0.00     0.210 C 
ENDBRANCH  18  22
BRANCH  19  24
HETATM   24  O   UNL     1      43.897  -9.135  -0.491  1.00  0.00    -0.353 OA
HETATM   25  C   UNL     1      43.935  -8.061  -1.418  1.00  0.00     0.210 C 
ENDBRANCH  19  24
ENDBRANCH  15  16
ENDBRANCH   1  14
BRANCH  13  26
HETATM   26  N   UNL     1      41.768 -15.929  -0.790  1.00  0.00    -0.383 N 
HETATM   27  H   UNL     1      42.621 -15.625  -1.267  1.00  0.00     0.157 HD
HETATM   28  H   UNL     1      41.020 -16.206  -1.424  1.00  0.00     0.157 HD
ENDBRANCH  13  26
BRANCH  12  29
HETATM   29  C   UNL     1      42.948 -16.580   2.018  1.00  0.00     0.258 C 
HETATM   30  N   UNL     1      43.387 -16.500   3.327  1.00  0.00    -0.352 N 
HETATM   31  H   UNL     1      43.075 -15.675   3.832  1.00  0.00     0.163 HD
HETATM   32  O   UNL     1      43.244 -17.508   1.269  1.00  0.00    -0.267 OA
BRANCH  30  33
HETATM   33  C   UNL     1      43.533 -17.717   4.113  1.00  0.00     0.084 C 
HETATM   34  C   UNL     1      44.239 -17.423   5.442  1.00  0.00     0.025 C 
HETATM   35  C   UNL     1      43.381 -16.592   6.401  1.00  0.00     0.002 C 
HETATM   36  C   UNL     1      41.993 -17.194   6.609  1.00  0.00     0.000 C 
HETATM   37  C   UNL     1      41.285 -17.494   5.292  1.00  0.00     0.002 C 
HETATM   38  C   UNL     1      42.155 -18.354   4.373  1.00  0.00     0.025 C 
ENDBRANCH  30  33
ENDBRANCH  12  29
TORSDOF 7
ENDMDL
MODEL 6
REMARK VINA RESULT:      -7.0      3.092      6.107
REMARK  7 active torsions:
REMARK  status: ('A' for Active; 'I' for Inactive)
REMARK    1  A    between atoms: O_2  and  C_3 
REMARK    2  A    between atoms: C_4  and  O_5 
REMARK    3  A    between atoms: C_8  and  C_9 
REMARK    4  A    between atoms: N_10  and  N_11 
REMARK    5  A    between atoms: C_22  and  C_23 
REMARK       I    between atoms: C_23  and  N_24 
REMARK    6  A    between atoms: N_24  and  C_25 
REMARK    7  A    between atoms: C_32  and  N_33 
ROOT
HETATM    1  N   UNL     1      40.876 -14.280  -1.405  1.00  0.00    -0.197 N 
HETATM    2  C   UNL     1      41.508 -13.051  -1.440  1.00  0.00     0.183 A 
HETATM    3  C   UNL     1      42.108 -12.863  -0.206  1.00  0.00     0.125 A 
HETATM    4  N   UNL     1      42.744 -11.701   0.110  1.00  0.00    -0.242 NA
HETATM    5  C   UNL     1      42.749 -10.784  -0.871  1.00  0.00     0.086 A 
HETATM    6  C   UNL     1      42.116 -10.995  -2.126  1.00  0.00     0.088 A 
HETATM    7  N   UNL     1      41.472 -12.133  -2.435  1.00  0.00    -0.225 NA
HETATM    8  C   UNL     1      43.395  -9.577  -0.635  1.00  0.00     0.034 A 
HETATM    9  C   UNL     1      43.426  -8.566  -1.595  1.00  0.00     0.002 A 
HETATM   10  C   UNL     1      42.797  -8.764  -2.815  1.00  0.00     0.002 A 
HETATM   11  C   UNL     1      42.151  -9.976  -3.069  1.00  0.00     0.034 A 
HETATM   12  C   UNL     1      41.874 -14.007   0.600  1.00  0.00     0.110 C 
HETATM   13  C   UNL     1      41.188 -14.908  -0.200  1.00  0.00     0.143 C 
ENDROOT
BRANCH   1  14
HETATM   14  N   UNL     1      40.091 -14.797  -2.400  1.00  0.00    -0.176 NA
HETATM   15  C   UNL     1      38.826 -14.493  -2.362  1.00  0.00     0.150 C 
BRANCH  15  16
HETATM   16  C   UNL     1      38.101 -13.528  -1.501  1.00  0.00    -0.014 A 
HETATM   17  C   UNL     1      37.867 -12.245  -2.004  1.00  0.00     0.052 A 
HETATM   18  C   UNL     1      37.222 -11.290  -1.210  1.00  0.00     0.102 A 
HETATM   19  C   UNL     1      36.834 -11.622   0.107  1.00  0.00     0.101 A 
HETATM   20  C   UNL     1      37.086 -12.907   0.602  1.00  0.00     0.040 A 
HETATM   21  C   UNL     1      37.730 -13.856  -0.196  1.00  0.00     0.016 A 
BRANCH  18  22
HETATM   22  O   UNL     1      36.947 -10.006  -1.611  1.00  0.00    -0.353 OA
HETATM   23  C   UNL     1      36.026  -9.830  -2.678  1.00  0.00     0.210 C 
ENDBRANCH  18  22
BRANCH  19  24
HETATM   24  O   UNL     1      36.213 -10.625   0.819  1.00  0.00    -0.353 OA
HETATM   25  C   UNL     1      34.805 -10.714   0.984  1.00  0.00     0.210 C 
ENDBRANCH  19  24
ENDBRANCH  15  16
ENDBRANCH   1  14
BRANCH  13  26
HETATM   26  N   UNL     1      40.772 -16.174   0.068  1.00  0.00    -0.383 N 
HETATM   27  H   UNL     1      40.856 -16.877  -0.671  1.00  0.00     0.157 HD
HETATM   28  H   UNL     1      39.970 -16.317   0.680  1.00  0.00     0.157 HD
ENDBRANCH  13  26
BRANCH  12  29
HETATM   29  C   UNL     1      42.185 -14.192   2.010  1.00  0.00     0.258 C 
HETATM   30  N   UNL     1      41.977 -13.060   2.777  1.00  0.00    -0.352 N 
HETATM   31  H   UNL     1      41.747 -12.222   2.249  1.00  0.00     0.163 HD
HETATM   32  O   UNL     1      42.480 -15.282   2.494  1.00  0.00    -0.267 OA
BRANCH  30  33
HETATM   33  C   UNL     1      41.355 -13.182   4.088  1.00  0.00     0.084 C 
HETATM   34  C   UNL     1      41.697 -11.973   4.967  1.00  0.00     0.025 C 
HETATM   35  C   UNL     1      41.035 -10.680   4.483  1.00  0.00     0.002 C 
HETATM   36  C   UNL     1      39.529 -10.837   4.283  1.00  0.00     0.000 C 
HETATM   37  C   UNL     1      39.180 -12.041   3.414  1.00  0.00     0.002 C 
HETATM   38  C   UNL     1      39.828 -13.321   3.945  1.00  0.00     0.025 C 
ENDBRANCH  30  33
ENDBRANCH  12  29
TORSDOF 7
ENDMDL
MODEL 7
REMARK VINA RESULT:      -7.0      3.121      5.560
REMARK  7 active torsions:
REMARK  status: ('A' for Active; 'I' for Inactive)
REMARK    1  A    between atoms: O_2  and  C_3 
REMARK    2  A    between atoms: C_4  and  O_5 
REMARK    3  A    between atoms: C_8  and  C_9 
REMARK    4  A    between atoms: N_10  and  N_11 
REMARK    5  A    between atoms: C_22  and  C_23 
REMARK       I    between atoms: C_23  and  N_24 
REMARK    6  A    between atoms: N_24  and  C_25 
REMARK    7  A    between atoms: C_32  and  N_33 
ROOT
HETATM    1  N   UNL     1      40.764 -14.040  -1.807  1.00  0.00    -0.197 N 
HETATM    2  C   UNL     1      41.417 -12.823  -1.807  1.00  0.00     0.183 A 
HETATM    3  C   UNL     1      42.120 -12.733  -0.617  1.00  0.00     0.125 A 
HETATM    4  N   UNL     1      42.803 -11.607  -0.273  1.00  0.00    -0.242 NA
HETATM    5  C   UNL     1      42.748 -10.621  -1.184  1.00  0.00     0.086 A 
HETATM    6  C   UNL     1      42.009 -10.731  -2.393  1.00  0.00     0.088 A 
HETATM    7  N   UNL     1      41.318 -11.834  -2.728  1.00  0.00    -0.225 NA
HETATM    8  C   UNL     1      43.436  -9.444  -0.917  1.00  0.00     0.034 A 
HETATM    9  C   UNL     1      43.409  -8.367  -1.802  1.00  0.00     0.002 A 
HETATM   10  C   UNL     1      42.678  -8.467  -2.977  1.00  0.00     0.002 A 
HETATM   11  C   UNL     1      41.988  -9.648  -3.261  1.00  0.00     0.034 A 
HETATM   12  C   UNL     1      41.929 -13.929   0.123  1.00  0.00     0.110 C 
HETATM   13  C   UNL     1      41.161 -14.759  -0.679  1.00  0.00     0.143 C 
ENDROOT
BRANCH   1  14
HETATM   14  N   UNL     1      39.889 -14.473  -2.766  1.00  0.00    -0.176 NA
HETATM   15  C   UNL     1      38.635 -14.174  -2.589  1.00  0.00     0.150 C 
BRANCH  15  16
HETATM   16  C   UNL     1      37.997 -13.286  -1.587  1.00  0.00    -0.014 A 
HETATM   17  C   UNL     1      37.772 -11.953  -1.939  1.00  0.00     0.052 A 
HETATM   18  C   UNL     1      37.209 -11.070  -1.011  1.00  0.00     0.102 A 
HETATM   19  C   UNL     1      36.895 -11.527   0.287  1.00  0.00     0.101 A 
HETATM   20  C   UNL     1      37.137 -12.863   0.630  1.00  0.00     0.040 A 
HETATM   21  C   UNL     1      37.699 -13.739  -0.301  1.00  0.00     0.016 A 
BRANCH  18  22
HETATM   22  O   UNL     1      36.950  -9.745  -1.259  1.00  0.00    -0.353 OA
HETATM   23  C   UNL     1      35.968  -9.435  -2.238  1.00  0.00     0.210 C 
ENDBRANCH  18  22
BRANCH  19  24
HETATM   24  O   UNL     1      36.351 -10.596   1.137  1.00  0.00    -0.353 OA
HETATM   25  C   UNL     1      34.936 -10.543   1.239  1.00  0.00     0.210 C 
ENDBRANCH  19  24
ENDBRANCH  15  16
ENDBRANCH   1  14
BRANCH  13  26
HETATM   26  N   UNL     1      40.741 -16.035  -0.468  1.00  0.00    -0.383 N 
HETATM   27  H   UNL     1      41.405 -16.700  -0.061  1.00  0.00     0.157 HD
HETATM   28  H   UNL     1      40.084 -16.459  -1.120  1.00  0.00     0.157 HD
ENDBRANCH  13  26
BRANCH  12  29
HETATM   29  C   UNL     1      42.351 -14.220   1.485  1.00  0.00     0.258 C 
HETATM   30  N   UNL     1      42.413 -15.572   1.770  1.00  0.00    -0.352 N 
HETATM   31  H   UNL     1      42.051 -16.180   1.040  1.00  0.00     0.163 HD
HETATM   32  O   UNL     1      42.737 -13.354   2.266  1.00  0.00    -0.267 OA
BRANCH  30  33
HETATM   33  C   UNL     1      43.530 -16.094   2.544  1.00  0.00     0.084 C 
HETATM   34  C   UNL     1      43.040 -16.710   3.860  1.00  0.00     0.025 C 
HETATM   35  C   UNL     1      42.240 -17.999   3.651  1.00  0.00     0.002 C 
HETATM   36  C   UNL     1      42.986 -19.013   2.785  1.00  0.00     0.000 C 
HETATM   37  C   UNL     1      43.482 -18.407   1.477  1.00  0.00     0.002 C 
HETATM   38  C   UNL     1      44.306 -17.142   1.723  1.00  0.00     0.025 C 
ENDBRANCH  30  33
ENDBRANCH  12  29
TORSDOF 7
ENDMDL
MODEL 8
REMARK VINA RESULT:      -6.9      2.549      5.681
REMARK  7 active torsions:
REMARK  status: ('A' for Active; 'I' for Inactive)
REMARK    1  A    between atoms: O_2  and  C_3 
REMARK    2  A    between atoms: C_4  and  O_5 
REMARK    3  A    between atoms: C_8  and  C_9 
REMARK    4  A    between atoms: N_10  and  N_11 
REMARK    5  A    between atoms: C_22  and  C_23 
REMARK       I    between atoms: C_23  and  N_24 
REMARK    6  A    between atoms: N_24  and  C_25 
REMARK    7  A    between atoms: C_32  and  N_33 
ROOT
HETATM    1  N   UNL     1      38.719 -12.516   1.876  1.00  0.00    -0.197 N 
HETATM    2  C   UNL     1      39.112 -13.277   0.792  1.00  0.00     0.183 A 
HETATM    3  C   UNL     1      40.198 -14.037   1.194  1.00  0.00     0.125 A 
HETATM    4  N   UNL     1      40.875 -14.834   0.323  1.00  0.00    -0.242 NA
HETATM    5  C   UNL     1      40.390 -14.830  -0.929  1.00  0.00     0.086 A 
HETATM    6  C   UNL     1      39.281 -14.033  -1.322  1.00  0.00     0.088 A 
HETATM    7  N   UNL     1      38.621 -13.230  -0.470  1.00  0.00    -0.225 NA
HETATM    8  C   UNL     1      41.013 -15.634  -1.876  1.00  0.00     0.034 A 
HETATM    9  C   UNL     1      40.583 -15.667  -3.202  1.00  0.00     0.002 A 
HETATM   10  C   UNL     1      39.509 -14.879  -3.591  1.00  0.00     0.002 A 
HETATM   11  C   UNL     1      38.869 -14.073  -2.648  1.00  0.00     0.034 A 
HETATM   12  C   UNL     1      40.466 -13.769   2.562  1.00  0.00     0.110 C 
HETATM   13  C   UNL     1      39.477 -12.895   2.984  1.00  0.00     0.143 C 
ENDROOT
BRANCH   1  14
HETATM   14  N   UNL     1      37.735 -11.566   1.865  1.00  0.00    -0.176 NA
HETATM   15  C   UNL     1      38.072 -10.384   1.435  1.00  0.00     0.150 C 
BRANCH  15  16
HETATM   16  C   UNL     1      39.324  -9.924   0.789  1.00  0.00    -0.014 A 
HETATM   17  C   UNL     1      39.379  -9.919  -0.608  1.00  0.00     0.052 A 
HETATM   18  C   UNL     1      40.555  -9.530  -1.259  1.00  0.00     0.102 A 
HETATM   19  C   UNL     1      41.689  -9.170  -0.499  1.00  0.00     0.101 A 
HETATM   20  C   UNL     1      41.623  -9.191   0.899  1.00  0.00     0.040 A 
HETATM   21  C   UNL     1      40.446  -9.580   1.543  1.00  0.00     0.016 A 
BRANCH  18  22
HETATM   22  O   UNL     1      40.710  -9.491  -2.623  1.00  0.00    -0.353 OA
HETATM   23  C   UNL     1      40.517 -10.699  -3.345  1.00  0.00     0.210 C 
ENDBRANCH  18  22
BRANCH  19  24
HETATM   24  O   UNL     1      42.803  -8.807  -1.217  1.00  0.00    -0.353 OA
HETATM   25  C   UNL     1      43.896  -9.713  -1.238  1.00  0.00     0.210 C 
ENDBRANCH  19  24
ENDBRANCH  15  16
ENDBRANCH   1  14
BRANCH  13  26
HETATM   26  N   UNL     1      39.242 -12.370   4.216  1.00  0.00    -0.383 N 
HETATM   27  H   UNL     1      38.270 -12.237   4.507  1.00  0.00     0.157 HD
HETATM   28  H   UNL     1      39.881 -11.672   4.592  1.00  0.00     0.157 HD
ENDBRANCH  13  26
BRANCH  12  29
HETATM   29  C   UNL     1      41.596 -14.221   3.361  1.00  0.00     0.258 C 
HETATM   30  N   UNL     1      41.861 -15.573   3.232  1.00  0.00    -0.352 N 
HETATM   31  H   UNL     1      41.174 -16.094   2.694  1.00  0.00     0.163 HD
HETATM   32  O   UNL     1      42.322 -13.454   3.988  1.00  0.00    -0.267 OA
BRANCH  30  33
HETATM   33  C   UNL     1      43.240 -16.029   3.125  1.00  0.00     0.084 C 
HETATM   34  C   UNL     1      43.555 -17.065   4.209  1.00  0.00     0.025 C 
HETATM   35  C   UNL     1      42.822 -18.393   3.994  1.00  0.00     0.002 C 
HETATM   36  C   UNL     1      43.031 -18.951   2.588  1.00  0.00     0.000 C 
HETATM   37  C   UNL     1      42.725 -17.924   1.503  1.00  0.00     0.002 C 
HETATM   38  C   UNL     1      43.499 -16.624   1.728  1.00  0.00     0.025 C 
ENDBRANCH  30  33
ENDBRANCH  12  29
TORSDOF 7
ENDMDL
MODEL 9
REMARK VINA RESULT:      -6.8      2.482      5.478
REMARK  7 active torsions:
REMARK  status: ('A' for Active; 'I' for Inactive)
REMARK    1  A    between atoms: O_2  and  C_3 
REMARK    2  A    between atoms: C_4  and  O_5 
REMARK    3  A    between atoms: C_8  and  C_9 
REMARK    4  A    between atoms: N_10  and  N_11 
REMARK    5  A    between atoms: C_22  and  C_23 
REMARK       I    between atoms: C_23  and  N_24 
REMARK    6  A    between atoms: N_24  and  C_25 
REMARK    7  A    between atoms: C_32  and  N_33 
ROOT
HETATM    1  N   UNL     1      38.668 -13.542   1.942  1.00  0.00    -0.197 N 
HETATM    2  C   UNL     1      39.259 -12.452   2.552  1.00  0.00     0.183 A 
HETATM    3  C   UNL     1      40.323 -12.927   3.301  1.00  0.00     0.125 A 
HETATM    4  N   UNL     1      41.062 -12.105   4.096  1.00  0.00    -0.242 NA
HETATM    5  C   UNL     1      40.682 -10.816   4.070  1.00  0.00     0.086 A 
HETATM    6  C   UNL     1      39.579 -10.354   3.303  1.00  0.00     0.088 A 
HETATM    7  N   UNL     1      38.836 -11.166   2.532  1.00  0.00    -0.225 NA
HETATM    8  C   UNL     1      41.398  -9.908   4.840  1.00  0.00     0.034 A 
HETATM    9  C   UNL     1      41.052  -8.558   4.885  1.00  0.00     0.002 A 
HETATM   10  C   UNL     1      39.967  -8.106   4.147  1.00  0.00     0.002 A 
HETATM   11  C   UNL     1      39.243  -9.008   3.363  1.00  0.00     0.034 A 
HETATM   12  C   UNL     1      40.417 -14.333   3.130  1.00  0.00     0.110 C 
HETATM   13  C   UNL     1      39.438 -14.675   2.209  1.00  0.00     0.143 C 
ENDROOT
BRANCH   1  14
HETATM   14  N   UNL     1      37.528 -13.508   1.186  1.00  0.00    -0.176 NA
HETATM   15  C   UNL     1      37.655 -13.093  -0.041  1.00  0.00     0.150 C 
BRANCH  15  16
HETATM   16  C   UNL     1      38.876 -12.798  -0.828  1.00  0.00    -0.014 A 
HETATM   17  C   UNL     1      39.542 -13.867  -1.433  1.00  0.00     0.052 A 
HETATM   18  C   UNL     1      40.721 -13.639  -2.152  1.00  0.00     0.102 A 
HETATM   19  C   UNL     1      41.244 -12.331  -2.240  1.00  0.00     0.101 A 
HETATM   20  C   UNL     1      40.573 -11.271  -1.619  1.00  0.00     0.040 A 
HETATM   21  C   UNL     1      39.397 -11.505  -0.903  1.00  0.00     0.016 A 
BRANCH  18  22
HETATM   22  O   UNL     1      41.447 -14.620  -2.781  1.00  0.00    -0.353 OA
HETATM   23  C   UNL     1      40.862 -15.909  -2.891  1.00  0.00     0.210 C 
ENDBRANCH  18  22
BRANCH  19  24
HETATM   24  O   UNL     1      42.407 -12.196  -2.959  1.00  0.00    -0.353 OA
HETATM   25  C   UNL     1      42.339 -11.504  -4.197  1.00  0.00     0.210 C 
ENDBRANCH  19  24
ENDBRANCH  15  16
ENDBRANCH   1  14
BRANCH  13  26
HETATM   26  N   UNL     1      39.139 -15.881   1.659  1.00  0.00    -0.383 N 
HETATM   27  H   UNL     1      39.901 -16.425   1.246  1.00  0.00     0.157 HD
HETATM   28  H   UNL     1      38.244 -16.007   1.189  1.00  0.00     0.157 HD
ENDBRANCH  13  26
BRANCH  12  29
HETATM   29  C   UNL     1      41.282 -15.268   3.834  1.00  0.00     0.258 C 
HETATM   30  N   UNL     1      41.915 -16.173   3.001  1.00  0.00    -0.352 N 
HETATM   31  H   UNL     1      41.612 -16.146   2.031  1.00  0.00     0.163 HD
HETATM   32  O   UNL     1      41.526 -15.180   5.034  1.00  0.00    -0.267 OA
BRANCH  30  33
HETATM   33  C   UNL     1      43.315 -16.502   3.227  1.00  0.00     0.084 C 
HETATM   34  C   UNL     1      43.447 -17.828   3.984  1.00  0.00     0.025 C 
HETATM   35  C   UNL     1      43.026 -19.038   3.143  1.00  0.00     0.002 C 
HETATM   36  C   UNL     1      43.730 -19.077   1.789  1.00  0.00     0.000 C 
HETATM   37  C   UNL     1      43.609 -17.759   1.031  1.00  0.00     0.002 C 
HETATM   38  C   UNL     1      44.070 -16.577   1.886  1.00  0.00     0.025 C 
ENDBRANCH  30  33
ENDBRANCH  12  29
TORSDOF 7
ENDMDL
MODEL 10
REMARK VINA RESULT:      -6.7      3.097      5.019
REMARK  7 active torsions:
REMARK  status: ('A' for Active; 'I' for Inactive)
REMARK    1  A    between atoms: O_2  and  C_3 
REMARK    2  A    between atoms: C_4  and  O_5 
REMARK    3  A    between atoms: C_8  and  C_9 
REMARK    4  A    between atoms: N_10  and  N_11 
REMARK    5  A    between atoms: C_22  and  C_23 
REMARK       I    between atoms: C_23  and  N_24 
REMARK    6  A    between atoms: N_24  and  C_25 
REMARK    7  A    between atoms: C_32  and  N_33 
ROOT
HETATM    1  N   UNL     1      38.918 -14.123   0.369  1.00  0.00    -0.197 N 
HETATM    2  C   UNL     1      39.746 -13.620  -0.616  1.00  0.00     0.183 A 
HETATM    3  C   UNL     1      41.048 -13.737  -0.158  1.00  0.00     0.125 A 
HETATM    4  N   UNL     1      42.102 -13.247  -0.867  1.00  0.00    -0.242 NA
HETATM    5  C   UNL     1      41.769 -12.670  -2.034  1.00  0.00     0.086 A 
HETATM    6  C   UNL     1      40.425 -12.550  -2.478  1.00  0.00     0.088 A 
HETATM    7  N   UNL     1      39.380 -13.016  -1.772  1.00  0.00    -0.225 NA
HETATM    8  C   UNL     1      42.791 -12.162  -2.827  1.00  0.00     0.034 A 
HETATM    9  C   UNL     1      42.525 -11.528  -4.041  1.00  0.00     0.002 A 
HETATM   10  C   UNL     1      41.212 -11.398  -4.470  1.00  0.00     0.002 A 
HETATM   11  C   UNL     1      40.177 -11.912  -3.685  1.00  0.00     0.034 A 
HETATM   12  C   UNL     1      41.034 -14.354   1.120  1.00  0.00     0.110 C 
HETATM   13  C   UNL     1      39.709 -14.667   1.381  1.00  0.00     0.143 C 
ENDROOT
BRANCH   1  14
HETATM   14  N   UNL     1      37.550 -14.106   0.342  1.00  0.00    -0.176 NA
HETATM   15  C   UNL     1      36.972 -13.025   0.779  1.00  0.00     0.150 C 
BRANCH  15  16
HETATM   16  C   UNL     1      37.556 -11.716   1.158  1.00  0.00    -0.014 A 
HETATM   17  C   UNL     1      37.633 -10.722   0.178  1.00  0.00     0.052 A 
HETATM   18  C   UNL     1      38.213  -9.485   0.482  1.00  0.00     0.102 A 
HETATM   19  C   UNL     1      38.742  -9.258   1.771  1.00  0.00     0.101 A 
HETATM   20  C   UNL     1      38.669 -10.267   2.738  1.00  0.00     0.040 A 
HETATM   21  C   UNL     1      38.088 -11.500   2.430  1.00  0.00     0.016 A 
BRANCH  18  22
HETATM   22  O   UNL     1      38.335  -8.447  -0.408  1.00  0.00    -0.353 OA
HETATM   23  C   UNL     1      38.526  -8.769  -1.778  1.00  0.00     0.210 C 
ENDBRANCH  18  22
BRANCH  19  24
HETATM   24  O   UNL     1      39.298  -8.021   1.983  1.00  0.00    -0.353 OA
HETATM   25  C   UNL     1      40.707  -7.951   2.143  1.00  0.00     0.210 C 
ENDBRANCH  19  24
ENDBRANCH  15  16
ENDBRANCH   1  14
BRANCH  13  26
HETATM   26  N   UNL     1      39.157 -15.315   2.441  1.00  0.00    -0.383 N 
HETATM   27  H   UNL     1      39.284 -16.329   2.507  1.00  0.00     0.157 HD
HETATM   28  H   UNL     1      38.269 -14.988   2.819  1.00  0.00     0.157 HD
ENDBRANCH  13  26
BRANCH  12  29
HETATM   29  C   UNL     1      42.146 -14.542   2.039  1.00  0.00     0.258 C 
HETATM   30  N   UNL     1      42.326 -15.857   2.430  1.00  0.00    -0.352 N 
HETATM   31  H   UNL     1      41.599 -16.497   2.122  1.00  0.00     0.163 HD
HETATM   32  O   UNL     1      42.929 -13.644   2.336  1.00  0.00    -0.267 OA
BRANCH  30  33
HETATM   33  C   UNL     1      43.672 -16.406   2.513  1.00  0.00     0.084 C 
HETATM   34  C   UNL     1      43.853 -17.208   3.807  1.00  0.00     0.025 C 
HETATM   35  C   UNL     1      43.039 -18.505   3.822  1.00  0.00     0.002 C 
HETATM   36  C   UNL     1      43.282 -19.358   2.579  1.00  0.00     0.000 C 
HETATM   37  C   UNL     1      43.109 -18.567   1.287  1.00  0.00     0.002 C 
HETATM   38  C   UNL     1      43.962 -17.297   1.290  1.00  0.00     0.025 C 
ENDBRANCH  30  33
ENDBRANCH  12  29
TORSDOF 7
ENDMDL
