MODEL 1
REMARK VINA RESULT:      -8.0      0.000      0.000
REMARK  11 active torsions:
REMARK  status: ('A' for Active; 'I' for Inactive)
REMARK    1  A    between atoms: C_3  and  O_4 
REMARK    2  A    between atoms: O_4  and  C_5 
REMARK    3  A    between atoms: C_10  and  C_11 
REMARK    4  A    between atoms: C_11  and  C_12 
REMARK    5  A    between atoms: C_13  and  C_14 
REMARK    6  A    between atoms: C_17  and  O_18 
REMARK    7  A    between atoms: N_21  and  C_22 
REMARK    8  A    between atoms: C_22  and  C_23 
REMARK    9  A    between atoms: C_23  and  C_24 
REMARK   10  A    between atoms: C_24  and  N_25 
REMARK   11  A    between atoms: C_34  and  O_35 
ROOT
HETATM    1  C   UNL     1      41.220 -13.799   2.942  1.00  0.00     0.059 A 
HETATM    2  C   UNL     1      41.088 -14.640   1.697  1.00  0.00     0.161 A 
HETATM    3  N   UNL     1      41.594 -13.719   0.691  1.00  0.00    -0.333 N 
HETATM    4  C   UNL     1      42.105 -12.576   1.253  1.00  0.00     0.278 A 
HETATM    5  O   UNL     1      42.599 -11.647   0.632  1.00  0.00    -0.265 OA
HETATM    6  C   UNL     1      41.802 -12.612   2.704  1.00  0.00     0.146 A 
ENDROOT
BRANCH   1   7
HETATM    7  C   UNL     1      40.552 -14.309   4.161  1.00  0.00     0.193 C 
HETATM    8  O   UNL     1      39.522 -13.771   4.554  1.00  0.00    -0.287 OA
BRANCH   7   9
HETATM    9  C   UNL     1      41.174 -15.382   4.966  1.00  0.00     0.015 A 
HETATM   10  C   UNL     1      40.607 -16.656   5.078  1.00  0.00     0.018 A 
HETATM   11  C   UNL     1      41.310 -17.666   5.740  1.00  0.00     0.038 A 
HETATM   12  C   UNL     1      42.565 -17.400   6.295  1.00  0.00     0.075 A 
HETATM   13  C   UNL     1      43.092 -16.100   6.274  1.00  0.00    -0.028 A 
HETATM   14  C   UNL     1      44.382 -15.775   6.976  1.00  0.00     0.051 C 
HETATM   15  C   UNL     1      42.387 -15.095   5.603  1.00  0.00     0.025 A 
BRANCH  12  16
HETATM   16  O   UNL     1      43.309 -18.369   6.911  1.00  0.00    -0.346 OA
BRANCH  16  17
HETATM   17  C   UNL     1      43.599 -19.526   6.107  1.00  0.00     0.121 C 
HETATM   18  C   UNL     1      44.901 -19.365   5.316  1.00  0.00     0.040 C 
HETATM   19  C   UNL     1      43.735 -20.699   7.074  1.00  0.00     0.040 C 
ENDBRANCH  16  17
ENDBRANCH  12  16
ENDBRANCH   7   9
ENDBRANCH   1   7
BRANCH   2  20
HETATM   20  C   UNL     1      41.872 -15.939   1.747  1.00  0.00    -0.030 A 
HETATM   21  C   UNL     1      43.246 -15.903   2.044  1.00  0.00     0.012 A 
HETATM   22  C   UNL     1      44.001 -17.077   2.104  1.00  0.00     0.037 A 
HETATM   23  C   UNL     1      43.384 -18.298   1.863  1.00  0.00     0.065 A 
HETATM   24  C   UNL     1      42.032 -18.361   1.552  1.00  0.00     0.037 A 
HETATM   25  C   UNL     1      41.278 -17.187   1.485  1.00  0.00     0.012 A 
BRANCH  23  26
HETATM   26  O   UNL     1      44.075 -19.470   1.919  1.00  0.00    -0.361 OA
HETATM   27  H   UNL     1      44.429 -19.588   2.816  1.00  0.00     0.217 HD
ENDBRANCH  23  26
ENDBRANCH   2  20
BRANCH   6  28
HETATM   28  O   UNL     1      41.976 -11.511   3.489  1.00  0.00    -0.355 OA
HETATM   29  H   UNL     1      42.829 -11.542   3.954  1.00  0.00     0.218 HD
ENDBRANCH   6  28
BRANCH   3  30
HETATM   30  C   UNL     1      41.501 -13.964  -0.736  1.00  0.00     0.129 C 
BRANCH  30  31
HETATM   31  C   UNL     1      40.493 -13.059  -1.456  1.00  0.00     0.048 C 
BRANCH  31  32
HETATM   32  C   UNL     1      40.555 -13.000  -2.986  1.00  0.00     0.236 C 
BRANCH  32  33
HETATM   33  N   UNL     1      39.559 -13.887  -3.679  1.00  0.00    -0.067 N 
HETATM   34  H   UNL     1      39.512 -13.570  -4.670  1.00  0.00     0.280 HD
HETATM   35  C   UNL     1      39.872 -15.371  -3.640  1.00  0.00     0.261 C 
HETATM   36  C   UNL     1      38.799 -16.150  -4.410  1.00  0.00     0.195 C 
HETATM   37  O   UNL     1      37.494 -15.890  -3.883  1.00  0.00    -0.388 OA
HETATM   38  C   UNL     1      37.156 -14.502  -3.988  1.00  0.00     0.195 C 
HETATM   39  C   UNL     1      38.134 -13.643  -3.177  1.00  0.00     0.261 C 
ENDBRANCH  32  33
ENDBRANCH  31  32
ENDBRANCH  30  31
ENDBRANCH   3  30
TORSDOF 11
ENDMDL
MODEL 2
REMARK VINA RESULT:      -8.0      3.499      7.836
REMARK  11 active torsions:
REMARK  status: ('A' for Active; 'I' for Inactive)
REMARK    1  A    between atoms: C_3  and  O_4 
REMARK    2  A    between atoms: O_4  and  C_5 
REMARK    3  A    between atoms: C_10  and  C_11 
REMARK    4  A    between atoms: C_11  and  C_12 
REMARK    5  A    between atoms: C_13  and  C_14 
REMARK    6  A    between atoms: C_17  and  O_18 
REMARK    7  A    between atoms: N_21  and  C_22 
REMARK    8  A    between atoms: C_22  and  C_23 
REMARK    9  A    between atoms: C_23  and  C_24 
REMARK   10  A    between atoms: C_24  and  N_25 
REMARK   11  A    between atoms: C_34  and  O_35 
ROOT
HETATM    1  C   UNL     1      41.116 -12.990   3.568  1.00  0.00     0.059 A 
HETATM    2  C   UNL     1      41.610 -12.879   4.988  1.00  0.00     0.161 A 
HETATM    3  N   UNL     1      40.486 -12.200   5.615  1.00  0.00    -0.333 N 
HETATM    4  C   UNL     1      39.422 -12.071   4.759  1.00  0.00     0.278 A 
HETATM    5  O   UNL     1      38.354 -11.547   5.037  1.00  0.00    -0.265 OA
HETATM    6  C   UNL     1      39.862 -12.532   3.419  1.00  0.00     0.146 A 
ENDROOT
BRANCH   1   7
HETATM    7  C   UNL     1      42.110 -13.404   2.551  1.00  0.00     0.193 C 
HETATM    8  O   UNL     1      42.594 -12.561   1.803  1.00  0.00    -0.287 OA
BRANCH   7   9
HETATM    9  C   UNL     1      42.436 -14.833   2.357  1.00  0.00     0.015 A 
HETATM   10  C   UNL     1      43.695 -15.360   2.665  1.00  0.00     0.018 A 
HETATM   11  C   UNL     1      43.900 -16.740   2.589  1.00  0.00     0.038 A 
HETATM   12  C   UNL     1      42.857 -17.584   2.196  1.00  0.00     0.075 A 
HETATM   13  C   UNL     1      41.625 -17.052   1.788  1.00  0.00    -0.028 A 
HETATM   14  C   UNL     1      40.539 -17.940   1.245  1.00  0.00     0.051 C 
HETATM   15  C   UNL     1      41.423 -15.670   1.874  1.00  0.00     0.025 A 
BRANCH  12  16
HETATM   16  O   UNL     1      42.999 -18.944   2.151  1.00  0.00    -0.346 OA
BRANCH  16  17
HETATM   17  C   UNL     1      44.118 -19.471   2.888  1.00  0.00     0.121 C 
HETATM   18  C   UNL     1      43.872 -19.449   4.399  1.00  0.00     0.040 C 
HETATM   19  C   UNL     1      44.297 -20.914   2.424  1.00  0.00     0.040 C 
ENDBRANCH  16  17
ENDBRANCH  12  16
ENDBRANCH   7   9
ENDBRANCH   1   7
BRANCH   2  20
HETATM   20  C   UNL     1      41.919 -14.216   5.639  1.00  0.00    -0.030 A 
HETATM   21  C   UNL     1      43.205 -14.446   6.160  1.00  0.00     0.012 A 
HETATM   22  C   UNL     1      43.528 -15.661   6.771  1.00  0.00     0.037 A 
HETATM   23  C   UNL     1      42.563 -16.657   6.860  1.00  0.00     0.065 A 
HETATM   24  C   UNL     1      41.291 -16.462   6.340  1.00  0.00     0.037 A 
HETATM   25  C   UNL     1      40.970 -15.250   5.723  1.00  0.00     0.012 A 
BRANCH  23  26
HETATM   26  O   UNL     1      42.826 -17.854   7.454  1.00  0.00    -0.361 OA
HETATM   27  H   UNL     1      42.125 -18.485   7.223  1.00  0.00     0.217 HD
ENDBRANCH  23  26
ENDBRANCH   2  20
BRANCH   6  28
HETATM   28  O   UNL     1      39.101 -12.309   2.311  1.00  0.00    -0.355 OA
HETATM   29  H   UNL     1      39.654 -12.101   1.540  1.00  0.00     0.218 HD
ENDBRANCH   6  28
BRANCH   3  30
HETATM   30  C   UNL     1      40.527 -11.665   6.964  1.00  0.00     0.129 C 
BRANCH  30  31
HETATM   31  C   UNL     1      41.640 -10.634   7.189  1.00  0.00     0.048 C 
BRANCH  31  32
HETATM   32  C   UNL     1      42.035 -10.318   8.636  1.00  0.00     0.236 C 
BRANCH  32  33
HETATM   33  N   UNL     1      42.863 -11.384   9.296  1.00  0.00    -0.067 N 
HETATM   34  H   UNL     1      42.251 -12.221   9.398  1.00  0.00     0.280 HD
HETATM   35  C   UNL     1      44.131 -11.773   8.559  1.00  0.00     0.261 C 
HETATM   36  C   UNL     1      44.855 -12.888   9.323  1.00  0.00     0.195 C 
HETATM   37  O   UNL     1      45.149 -12.489  10.665  1.00  0.00    -0.388 OA
HETATM   38  C   UNL     1      43.952 -12.195  11.396  1.00  0.00     0.195 C 
HETATM   39  C   UNL     1      43.194 -11.029  10.748  1.00  0.00     0.261 C 
ENDBRANCH  32  33
ENDBRANCH  31  32
ENDBRANCH  30  31
ENDBRANCH   3  30
TORSDOF 11
ENDMDL
MODEL 3
REMARK VINA RESULT:      -7.9      2.549      5.539
REMARK  11 active torsions:
REMARK  status: ('A' for Active; 'I' for Inactive)
REMARK    1  A    between atoms: C_3  and  O_4 
REMARK    2  A    between atoms: O_4  and  C_5 
REMARK    3  A    between atoms: C_10  and  C_11 
REMARK    4  A    between atoms: C_11  and  C_12 
REMARK    5  A    between atoms: C_13  and  C_14 
REMARK    6  A    between atoms: C_17  and  O_18 
REMARK    7  A    between atoms: N_21  and  C_22 
REMARK    8  A    between atoms: C_22  and  C_23 
REMARK    9  A    between atoms: C_23  and  C_24 
REMARK   10  A    between atoms: C_24  and  N_25 
REMARK   11  A    between atoms: C_34  and  O_35 
ROOT
HETATM    1  C   UNL     1      42.213 -15.637   6.269  1.00  0.00     0.059 A 
HETATM    2  C   UNL     1      42.979 -14.487   5.664  1.00  0.00     0.161 A 
HETATM    3  N   UNL     1      41.901 -13.746   5.028  1.00  0.00    -0.333 N 
HETATM    4  C   UNL     1      40.669 -14.267   5.336  1.00  0.00     0.278 A 
HETATM    5  O   UNL     1      39.600 -13.828   4.939  1.00  0.00    -0.265 OA
HETATM    6  C   UNL     1      40.887 -15.526   6.090  1.00  0.00     0.146 A 
ENDROOT
BRANCH   1   7
HETATM    7  C   UNL     1      43.016 -16.767   6.792  1.00  0.00     0.193 C 
HETATM    8  O   UNL     1      43.216 -16.856   7.999  1.00  0.00    -0.287 OA
BRANCH   7   9
HETATM    9  C   UNL     1      43.667 -17.718   5.866  1.00  0.00     0.015 A 
HETATM   10  C   UNL     1      44.405 -18.816   6.320  1.00  0.00     0.018 A 
HETATM   11  C   UNL     1      44.881 -19.753   5.400  1.00  0.00     0.038 A 
HETATM   12  C   UNL     1      44.631 -19.586   4.035  1.00  0.00     0.075 A 
HETATM   13  C   UNL     1      43.981 -18.435   3.565  1.00  0.00    -0.028 A 
HETATM   14  C   UNL     1      43.817 -18.184   2.092  1.00  0.00     0.051 C 
HETATM   15  C   UNL     1      43.499 -17.504   4.493  1.00  0.00     0.025 A 
BRANCH  12  16
HETATM   16  O   UNL     1      45.038 -20.501   3.102  1.00  0.00    -0.346 OA
BRANCH  16  17
HETATM   17  C   UNL     1      44.131 -21.595   2.878  1.00  0.00     0.121 C 
HETATM   18  C   UNL     1      44.024 -21.958   1.394  1.00  0.00     0.040 C 
HETATM   19  C   UNL     1      44.694 -22.785   3.652  1.00  0.00     0.040 C 
ENDBRANCH  16  17
ENDBRANCH  12  16
ENDBRANCH   7   9
ENDBRANCH   1   7
BRANCH   2  20
HETATM   20  C   UNL     1      43.740 -13.653   6.679  1.00  0.00    -0.030 A 
HETATM   21  C   UNL     1      45.122 -13.856   6.840  1.00  0.00     0.012 A 
HETATM   22  C   UNL     1      45.859 -13.105   7.759  1.00  0.00     0.037 A 
HETATM   23  C   UNL     1      45.213 -12.146   8.529  1.00  0.00     0.065 A 
HETATM   24  C   UNL     1      43.847 -11.936   8.403  1.00  0.00     0.037 A 
HETATM   25  C   UNL     1      43.109 -12.691   7.489  1.00  0.00     0.012 A 
BRANCH  23  26
HETATM   26  O   UNL     1      45.889 -11.382   9.432  1.00  0.00    -0.361 OA
HETATM   27  H   UNL     1      45.364 -10.590   9.636  1.00  0.00     0.217 HD
ENDBRANCH  23  26
ENDBRANCH   2  20
BRANCH   6  28
HETATM   28  O   UNL     1      39.861 -16.389   6.333  1.00  0.00    -0.355 OA
HETATM   29  H   UNL     1      40.131 -17.309   6.181  1.00  0.00     0.218 HD
ENDBRANCH   6  28
BRANCH   3  30
HETATM   30  C   UNL     1      42.121 -12.635   4.121  1.00  0.00     0.129 C 
BRANCH  30  31
HETATM   31  C   UNL     1      42.517 -13.061   2.702  1.00  0.00     0.048 C 
BRANCH  31  32
HETATM   32  C   UNL     1      41.914 -14.359   2.154  1.00  0.00     0.236 C 
BRANCH  32  33
HETATM   33  N   UNL     1      41.373 -14.247   0.756  1.00  0.00    -0.067 N 
HETATM   34  H   UNL     1      40.336 -14.203   0.837  1.00  0.00     0.280 HD
HETATM   35  C   UNL     1      41.867 -13.052  -0.038  1.00  0.00     0.261 C 
HETATM   36  C   UNL     1      41.212 -13.043  -1.424  1.00  0.00     0.195 C 
HETATM   37  O   UNL     1      41.470 -14.263  -2.126  1.00  0.00    -0.388 OA
HETATM   38  C   UNL     1      40.937 -15.392  -1.423  1.00  0.00     0.195 C 
HETATM   39  C   UNL     1      41.596 -15.532  -0.045  1.00  0.00     0.261 C 
ENDBRANCH  32  33
ENDBRANCH  31  32
ENDBRANCH  30  31
ENDBRANCH   3  30
TORSDOF 11
ENDMDL
MODEL 4
REMARK VINA RESULT:      -7.8      2.395      5.394
REMARK  11 active torsions:
REMARK  status: ('A' for Active; 'I' for Inactive)
REMARK    1  A    between atoms: C_3  and  O_4 
REMARK    2  A    between atoms: O_4  and  C_5 
REMARK    3  A    between atoms: C_10  and  C_11 
REMARK    4  A    between atoms: C_11  and  C_12 
REMARK    5  A    between atoms: C_13  and  C_14 
REMARK    6  A    between atoms: C_17  and  O_18 
REMARK    7  A    between atoms: N_21  and  C_22 
REMARK    8  A    between atoms: C_22  and  C_23 
REMARK    9  A    between atoms: C_23  and  C_24 
REMARK   10  A    between atoms: C_24  and  N_25 
REMARK   11  A    between atoms: C_34  and  O_35 
ROOT
HETATM    1  C   UNL     1      40.808 -14.145   0.785  1.00  0.00     0.059 A 
HETATM    2  C   UNL     1      39.839 -13.518  -0.185  1.00  0.00     0.161 A 
HETATM    3  N   UNL     1      40.473 -12.228  -0.410  1.00  0.00    -0.333 N 
HETATM    4  C   UNL     1      41.705 -12.151   0.191  1.00  0.00     0.278 A 
HETATM    5  O   UNL     1      42.448 -11.183   0.151  1.00  0.00    -0.265 OA
HETATM    6  C   UNL     1      41.884 -13.374   1.011  1.00  0.00     0.146 A 
ENDROOT
BRANCH   1   7
HETATM    7  C   UNL     1      40.363 -15.387   1.458  1.00  0.00     0.193 C 
HETATM    8  O   UNL     1      39.199 -15.485   1.834  1.00  0.00    -0.287 OA
BRANCH   7   9
HETATM    9  C   UNL     1      41.331 -16.457   1.778  1.00  0.00     0.015 A 
HETATM   10  C   UNL     1      42.164 -17.025   0.808  1.00  0.00     0.018 A 
HETATM   11  C   UNL     1      43.151 -17.934   1.196  1.00  0.00     0.038 A 
HETATM   12  C   UNL     1      43.295 -18.282   2.542  1.00  0.00     0.075 A 
HETATM   13  C   UNL     1      42.398 -17.795   3.504  1.00  0.00    -0.028 A 
HETATM   14  C   UNL     1      42.466 -18.259   4.933  1.00  0.00     0.051 C 
HETATM   15  C   UNL     1      41.417 -16.878   3.110  1.00  0.00     0.025 A 
BRANCH  12  16
HETATM   16  O   UNL     1      44.277 -19.132   2.974  1.00  0.00    -0.346 OA
BRANCH  16  17
HETATM   17  C   UNL     1      43.889 -20.514   3.084  1.00  0.00     0.121 C 
HETATM   18  C   UNL     1      44.078 -21.271   1.766  1.00  0.00     0.040 C 
HETATM   19  C   UNL     1      44.785 -21.128   4.156  1.00  0.00     0.040 C 
ENDBRANCH  16  17
ENDBRANCH  12  16
ENDBRANCH   7   9
ENDBRANCH   1   7
BRANCH   2  20
HETATM   20  C   UNL     1      39.655 -14.309  -1.469  1.00  0.00    -0.030 A 
HETATM   21  C   UNL     1      38.417 -14.262  -2.135  1.00  0.00     0.012 A 
HETATM   22  C   UNL     1      38.209 -14.971  -3.321  1.00  0.00     0.037 A 
HETATM   23  C   UNL     1      39.243 -15.736  -3.847  1.00  0.00     0.065 A 
HETATM   24  C   UNL     1      40.470 -15.813  -3.202  1.00  0.00     0.037 A 
HETATM   25  C   UNL     1      40.675 -15.110  -2.013  1.00  0.00     0.012 A 
BRANCH  23  26
HETATM   26  O   UNL     1      39.092 -16.437  -5.005  1.00  0.00    -0.361 OA
HETATM   27  H   UNL     1      39.147 -17.388  -4.811  1.00  0.00     0.217 HD
ENDBRANCH  23  26
ENDBRANCH   2  20
BRANCH   6  28
HETATM   28  O   UNL     1      42.906 -13.479   1.907  1.00  0.00    -0.355 OA
HETATM   29  H   UNL     1      42.910 -12.731   2.526  1.00  0.00     0.218 HD
ENDBRANCH   6  28
BRANCH   3  30
HETATM   30  C   UNL     1      39.837 -11.138  -1.126  1.00  0.00     0.129 C 
BRANCH  30  31
HETATM   31  C   UNL     1      39.274 -10.041  -0.213  1.00  0.00     0.048 C 
BRANCH  31  32
HETATM   32  C   UNL     1      38.171 -10.434   0.775  1.00  0.00     0.236 C 
BRANCH  32  33
HETATM   33  N   UNL     1      38.616 -10.484   2.210  1.00  0.00    -0.067 N 
HETATM   34  H   UNL     1      39.634 -10.264   2.217  1.00  0.00     0.280 HD
HETATM   35  C   UNL     1      37.890  -9.539   3.149  1.00  0.00     0.261 C 
HETATM   36  C   UNL     1      38.465  -9.669   4.564  1.00  0.00     0.195 C 
HETATM   37  O   UNL     1      38.381 -11.018   5.034  1.00  0.00    -0.388 OA
HETATM   38  C   UNL     1      39.130 -11.909   4.198  1.00  0.00     0.195 C 
HETATM   39  C   UNL     1      38.573 -11.908   2.769  1.00  0.00     0.261 C 
ENDBRANCH  32  33
ENDBRANCH  31  32
ENDBRANCH  30  31
ENDBRANCH   3  30
TORSDOF 11
ENDMDL
MODEL 5
REMARK VINA RESULT:      -7.7      1.771      2.284
REMARK  11 active torsions:
REMARK  status: ('A' for Active; 'I' for Inactive)
REMARK    1  A    between atoms: C_3  and  O_4 
REMARK    2  A    between atoms: O_4  and  C_5 
REMARK    3  A    between atoms: C_10  and  C_11 
REMARK    4  A    between atoms: C_11  and  C_12 
REMARK    5  A    between atoms: C_13  and  C_14 
REMARK    6  A    between atoms: C_17  and  O_18 
REMARK    7  A    between atoms: N_21  and  C_22 
REMARK    8  A    between atoms: C_22  and  C_23 
REMARK    9  A    between atoms: C_23  and  C_24 
REMARK   10  A    between atoms: C_24  and  N_25 
REMARK   11  A    between atoms: C_34  and  O_35 
ROOT
HETATM    1  C   UNL     1      41.229 -13.933   2.846  1.00  0.00     0.059 A 
HETATM    2  C   UNL     1      41.074 -14.837   1.649  1.00  0.00     0.161 A 
HETATM    3  N   UNL     1      41.552 -13.966   0.586  1.00  0.00    -0.333 N 
HETATM    4  C   UNL     1      42.068 -12.793   1.077  1.00  0.00     0.278 A 
HETATM    5  O   UNL     1      42.542 -11.894   0.399  1.00  0.00    -0.265 OA
HETATM    6  C   UNL     1      41.798 -12.757   2.535  1.00  0.00     0.146 A 
ENDROOT
BRANCH   1   7
HETATM    7  C   UNL     1      40.593 -14.384   4.105  1.00  0.00     0.193 C 
HETATM    8  O   UNL     1      39.593 -13.805   4.516  1.00  0.00    -0.287 OA
BRANCH   7   9
HETATM    9  C   UNL     1      41.214 -15.447   4.923  1.00  0.00     0.015 A 
HETATM   10  C   UNL     1      40.643 -16.716   5.058  1.00  0.00     0.018 A 
HETATM   11  C   UNL     1      41.345 -17.719   5.732  1.00  0.00     0.038 A 
HETATM   12  C   UNL     1      42.604 -17.450   6.276  1.00  0.00     0.075 A 
HETATM   13  C   UNL     1      43.137 -16.153   6.232  1.00  0.00    -0.028 A 
HETATM   14  C   UNL     1      44.432 -15.823   6.921  1.00  0.00     0.051 C 
HETATM   15  C   UNL     1      42.432 -15.155   5.549  1.00  0.00     0.025 A 
BRANCH  12  16
HETATM   16  O   UNL     1      43.347 -18.413   6.903  1.00  0.00    -0.346 OA
BRANCH  16  17
HETATM   17  C   UNL     1      43.652 -19.571   6.106  1.00  0.00     0.121 C 
HETATM   18  C   UNL     1      44.982 -19.424   5.361  1.00  0.00     0.040 C 
HETATM   19  C   UNL     1      43.741 -20.748   7.075  1.00  0.00     0.040 C 
ENDBRANCH  16  17
ENDBRANCH  12  16
ENDBRANCH   7   9
ENDBRANCH   1   7
BRANCH   2  20
HETATM   20  C   UNL     1      41.867 -16.128   1.746  1.00  0.00    -0.030 A 
HETATM   21  C   UNL     1      43.242 -16.071   2.036  1.00  0.00     0.012 A 
HETATM   22  C   UNL     1      44.006 -17.237   2.139  1.00  0.00     0.037 A 
HETATM   23  C   UNL     1      43.396 -18.470   1.949  1.00  0.00     0.065 A 
HETATM   24  C   UNL     1      42.044 -18.555   1.646  1.00  0.00     0.037 A 
HETATM   25  C   UNL     1      41.282 -17.389   1.536  1.00  0.00     0.012 A 
BRANCH  23  26
HETATM   26  O   UNL     1      44.095 -19.635   2.048  1.00  0.00    -0.361 OA
HETATM   27  H   UNL     1      43.623 -20.240   2.644  1.00  0.00     0.217 HD
ENDBRANCH  23  26
ENDBRANCH   2  20
BRANCH   6  28
HETATM   28  O   UNL     1      41.984 -11.617   3.259  1.00  0.00    -0.355 OA
HETATM   29  H   UNL     1      41.372 -10.917   2.978  1.00  0.00     0.218 HD
ENDBRANCH   6  28
BRANCH   3  30
HETATM   30  C   UNL     1      41.427 -14.283  -0.824  1.00  0.00     0.129 C 
BRANCH  30  31
HETATM   31  C   UNL     1      40.041 -13.984  -1.407  1.00  0.00     0.048 C 
BRANCH  31  32
HETATM   32  C   UNL     1      39.730 -12.535  -1.798  1.00  0.00     0.236 C 
BRANCH  32  33
HETATM   33  N   UNL     1      40.892 -11.795  -2.397  1.00  0.00    -0.067 N 
HETATM   34  H   UNL     1      41.730 -12.036  -1.827  1.00  0.00     0.280 HD
HETATM   35  C   UNL     1      41.173 -12.097  -3.857  1.00  0.00     0.261 C 
HETATM   36  C   UNL     1      42.398 -11.304  -4.326  1.00  0.00     0.195 C 
HETATM   37  O   UNL     1      42.214  -9.899  -4.123  1.00  0.00    -0.388 OA
HETATM   38  C   UNL     1      42.027  -9.593  -2.736  1.00  0.00     0.195 C 
HETATM   39  C   UNL     1      40.769 -10.283  -2.194  1.00  0.00     0.261 C 
ENDBRANCH  32  33
ENDBRANCH  31  32
ENDBRANCH  30  31
ENDBRANCH   3  30
TORSDOF 11
ENDMDL
MODEL 6
REMARK VINA RESULT:      -7.6      3.691      7.384
REMARK  11 active torsions:
REMARK  status: ('A' for Active; 'I' for Inactive)
REMARK    1  A    between atoms: C_3  and  O_4 
REMARK    2  A    between atoms: O_4  and  C_5 
REMARK    3  A    between atoms: C_10  and  C_11 
REMARK    4  A    between atoms: C_11  and  C_12 
REMARK    5  A    between atoms: C_13  and  C_14 
REMARK    6  A    between atoms: C_17  and  O_18 
REMARK    7  A    between atoms: N_21  and  C_22 
REMARK    8  A    between atoms: C_22  and  C_23 
REMARK    9  A    between atoms: C_23  and  C_24 
REMARK   10  A    between atoms: C_24  and  N_25 
REMARK   11  A    between atoms: C_34  and  O_35 
ROOT
HETATM    1  C   UNL     1      41.705 -15.186   5.650  1.00  0.00     0.059 A 
HETATM    2  C   UNL     1      40.700 -14.310   4.947  1.00  0.00     0.161 A 
HETATM    3  N   UNL     1      41.120 -12.993   5.401  1.00  0.00    -0.333 N 
HETATM    4  C   UNL     1      42.287 -13.048   6.122  1.00  0.00     0.278 A 
HETATM    5  O   UNL     1      42.858 -12.085   6.610  1.00  0.00    -0.265 OA
HETATM    6  C   UNL     1      42.624 -14.478   6.328  1.00  0.00     0.146 A 
ENDROOT
BRANCH   1   7
HETATM    7  C   UNL     1      41.439 -16.643   5.639  1.00  0.00     0.193 C 
HETATM    8  O   UNL     1      40.445 -17.078   6.212  1.00  0.00    -0.287 OA
BRANCH   7   9
HETATM    9  C   UNL     1      42.413 -17.581   5.042  1.00  0.00     0.015 A 
HETATM   10  C   UNL     1      43.092 -18.538   5.803  1.00  0.00     0.018 A 
HETATM   11  C   UNL     1      43.896 -19.483   5.162  1.00  0.00     0.038 A 
HETATM   12  C   UNL     1      44.031 -19.462   3.771  1.00  0.00     0.075 A 
HETATM   13  C   UNL     1      43.436 -18.443   3.013  1.00  0.00    -0.028 A 
HETATM   14  C   UNL     1      43.676 -18.338   1.532  1.00  0.00     0.051 C 
HETATM   15  C   UNL     1      42.624 -17.505   3.660  1.00  0.00     0.025 A 
BRANCH  12  16
HETATM   16  O   UNL     1      44.772 -20.395   3.097  1.00  0.00    -0.346 OA
BRANCH  16  17
HETATM   17  C   UNL     1      44.092 -21.631   2.812  1.00  0.00     0.121 C 
HETATM   18  C   UNL     1      44.208 -22.023   1.336  1.00  0.00     0.040 C 
HETATM   19  C   UNL     1      44.760 -22.698   3.675  1.00  0.00     0.040 C 
ENDBRANCH  16  17
ENDBRANCH  12  16
ENDBRANCH   7   9
ENDBRANCH   1   7
BRANCH   2  20
HETATM   20  C   UNL     1      40.721 -14.439   3.434  1.00  0.00    -0.030 A 
HETATM   21  C   UNL     1      41.873 -14.054   2.726  1.00  0.00     0.012 A 
HETATM   22  C   UNL     1      41.934 -14.163   1.335  1.00  0.00     0.037 A 
HETATM   23  C   UNL     1      40.837 -14.656   0.641  1.00  0.00     0.065 A 
HETATM   24  C   UNL     1      39.681 -15.029   1.313  1.00  0.00     0.037 A 
HETATM   25  C   UNL     1      39.617 -14.914   2.703  1.00  0.00     0.012 A 
BRANCH  23  26
HETATM   26  O   UNL     1      40.851 -14.790  -0.715  1.00  0.00    -0.361 OA
HETATM   27  H   UNL     1      39.977 -14.551  -1.068  1.00  0.00     0.217 HD
ENDBRANCH  23  26
ENDBRANCH   2  20
BRANCH   6  28
HETATM   28  O   UNL     1      43.598 -14.854   7.202  1.00  0.00    -0.355 OA
HETATM   29  H   UNL     1      43.314 -14.725   8.123  1.00  0.00     0.218 HD
ENDBRANCH   6  28
BRANCH   3  30
HETATM   30  C   UNL     1      40.351 -11.784   5.171  1.00  0.00     0.129 C 
BRANCH  30  31
HETATM   31  C   UNL     1      39.343 -11.469   6.285  1.00  0.00     0.048 C 
BRANCH  31  32
HETATM   32  C   UNL     1      39.642 -10.276   7.198  1.00  0.00     0.236 C 
BRANCH  32  33
HETATM   33  N   UNL     1      40.499 -10.608   8.388  1.00  0.00    -0.067 N 
HETATM   34  H   UNL     1      40.823 -11.590   8.261  1.00  0.00     0.280 HD
HETATM   35  C   UNL     1      41.699  -9.705   8.598  1.00  0.00     0.261 C 
HETATM   36  C   UNL     1      42.498 -10.177   9.818  1.00  0.00     0.195 C 
HETATM   37  O   UNL     1      41.678 -10.214  10.990  1.00  0.00    -0.388 OA
HETATM   38  C   UNL     1      40.584 -11.126  10.832  1.00  0.00     0.195 C 
HETATM   39  C   UNL     1      39.676 -10.688   9.676  1.00  0.00     0.261 C 
ENDBRANCH  32  33
ENDBRANCH  31  32
ENDBRANCH  30  31
ENDBRANCH   3  30
TORSDOF 11
ENDMDL
MODEL 7
REMARK VINA RESULT:      -7.6      2.821      7.800
REMARK  11 active torsions:
REMARK  status: ('A' for Active; 'I' for Inactive)
REMARK    1  A    between atoms: C_3  and  O_4 
REMARK    2  A    between atoms: O_4  and  C_5 
REMARK    3  A    between atoms: C_10  and  C_11 
REMARK    4  A    between atoms: C_11  and  C_12 
REMARK    5  A    between atoms: C_13  and  C_14 
REMARK    6  A    between atoms: C_17  and  O_18 
REMARK    7  A    between atoms: N_21  and  C_22 
REMARK    8  A    between atoms: C_22  and  C_23 
REMARK    9  A    between atoms: C_23  and  C_24 
REMARK   10  A    between atoms: C_24  and  N_25 
REMARK   11  A    between atoms: C_34  and  O_35 
ROOT
HETATM    1  C   UNL     1      41.462 -14.610   4.967  1.00  0.00     0.059 A 
HETATM    2  C   UNL     1      42.192 -15.789   4.374  1.00  0.00     0.161 A 
HETATM    3  N   UNL     1      41.715 -16.864   5.230  1.00  0.00    -0.333 N 
HETATM    4  C   UNL     1      40.733 -16.439   6.088  1.00  0.00     0.278 A 
HETATM    5  O   UNL     1      40.158 -17.143   6.905  1.00  0.00    -0.265 OA
HETATM    6  C   UNL     1      40.620 -14.966   5.951  1.00  0.00     0.146 A 
ENDROOT
BRANCH   1   7
HETATM    7  C   UNL     1      41.896 -13.267   4.518  1.00  0.00     0.193 C 
HETATM    8  O   UNL     1      42.591 -12.580   5.259  1.00  0.00    -0.287 OA
BRANCH   7   9
HETATM    9  C   UNL     1      41.408 -12.708   3.240  1.00  0.00     0.015 A 
HETATM   10  C   UNL     1      42.227 -12.596   2.112  1.00  0.00     0.018 A 
HETATM   11  C   UNL     1      41.673 -12.187   0.897  1.00  0.00     0.038 A 
HETATM   12  C   UNL     1      40.311 -11.880   0.814  1.00  0.00     0.075 A 
HETATM   13  C   UNL     1      39.507 -11.891   1.963  1.00  0.00    -0.028 A 
HETATM   14  C   UNL     1      38.073 -11.443   1.911  1.00  0.00     0.051 C 
HETATM   15  C   UNL     1      40.067 -12.310   3.176  1.00  0.00     0.025 A 
BRANCH  12  16
HETATM   16  O   UNL     1      39.716 -11.519  -0.364  1.00  0.00    -0.346 OA
BRANCH  16  17
HETATM   17  C   UNL     1      39.802 -12.493  -1.420  1.00  0.00     0.121 C 
HETATM   18  C   UNL     1      38.812 -13.645  -1.222  1.00  0.00     0.040 C 
HETATM   19  C   UNL     1      39.469 -11.755  -2.714  1.00  0.00     0.040 C 
ENDBRANCH  16  17
ENDBRANCH  12  16
ENDBRANCH   7   9
ENDBRANCH   1   7
BRANCH   2  20
HETATM   20  C   UNL     1      41.883 -16.030   2.907  1.00  0.00    -0.030 A 
HETATM   21  C   UNL     1      40.550 -15.963   2.464  1.00  0.00     0.012 A 
HETATM   22  C   UNL     1      40.225 -16.173   1.122  1.00  0.00     0.037 A 
HETATM   23  C   UNL     1      41.235 -16.457   0.212  1.00  0.00     0.065 A 
HETATM   24  C   UNL     1      42.558 -16.545   0.624  1.00  0.00     0.037 A 
HETATM   25  C   UNL     1      42.883 -16.341   1.968  1.00  0.00     0.012 A 
BRANCH  23  26
HETATM   26  O   UNL     1      40.970 -16.660  -1.108  1.00  0.00    -0.361 OA
HETATM   27  H   UNL     1      40.073 -17.024  -1.201  1.00  0.00     0.217 HD
ENDBRANCH  23  26
ENDBRANCH   2  20
BRANCH   6  28
HETATM   28  O   UNL     1      39.895 -14.228   6.838  1.00  0.00    -0.355 OA
HETATM   29  H   UNL     1      40.472 -13.692   7.405  1.00  0.00     0.218 HD
ENDBRANCH   6  28
BRANCH   3  30
HETATM   30  C   UNL     1      42.270 -18.205   5.214  1.00  0.00     0.129 C 
BRANCH  30  31
HETATM   31  C   UNL     1      43.722 -18.281   5.704  1.00  0.00     0.048 C 
BRANCH  31  32
HETATM   32  C   UNL     1      44.763 -18.885   4.755  1.00  0.00     0.236 C 
BRANCH  32  33
HETATM   33  N   UNL     1      44.336 -20.175   4.111  1.00  0.00    -0.067 N 
HETATM   34  H   UNL     1      43.350 -20.345   4.400  1.00  0.00     0.280 HD
HETATM   35  C   UNL     1      44.429 -20.208   2.597  1.00  0.00     0.261 C 
HETATM   36  C   UNL     1      43.933 -21.561   2.074  1.00  0.00     0.195 C 
HETATM   37  O   UNL     1      44.672 -22.640   2.653  1.00  0.00    -0.388 OA
HETATM   38  C   UNL     1      44.528 -22.667   4.078  1.00  0.00     0.195 C 
HETATM   39  C   UNL     1      45.075 -21.377   4.703  1.00  0.00     0.261 C 
ENDBRANCH  32  33
ENDBRANCH  31  32
ENDBRANCH  30  31
ENDBRANCH   3  30
TORSDOF 11
ENDMDL
MODEL 8
REMARK VINA RESULT:      -7.6      3.034      4.974
REMARK  11 active torsions:
REMARK  status: ('A' for Active; 'I' for Inactive)
REMARK    1  A    between atoms: C_3  and  O_4 
REMARK    2  A    between atoms: O_4  and  C_5 
REMARK    3  A    between atoms: C_10  and  C_11 
REMARK    4  A    between atoms: C_11  and  C_12 
REMARK    5  A    between atoms: C_13  and  C_14 
REMARK    6  A    between atoms: C_17  and  O_18 
REMARK    7  A    between atoms: N_21  and  C_22 
REMARK    8  A    between atoms: C_22  and  C_23 
REMARK    9  A    between atoms: C_23  and  C_24 
REMARK   10  A    between atoms: C_24  and  N_25 
REMARK   11  A    between atoms: C_34  and  O_35 
ROOT
HETATM    1  C   UNL     1      40.675 -13.471   0.394  1.00  0.00     0.059 A 
HETATM    2  C   UNL     1      40.008 -12.886  -0.825  1.00  0.00     0.161 A 
HETATM    3  N   UNL     1      40.979 -11.871  -1.207  1.00  0.00    -0.333 N 
HETATM    4  C   UNL     1      42.120 -11.943  -0.448  1.00  0.00     0.278 A 
HETATM    5  O   UNL     1      43.092 -11.213  -0.569  1.00  0.00    -0.265 OA
HETATM    6  C   UNL     1      41.888 -12.941   0.624  1.00  0.00     0.146 A 
ENDROOT
BRANCH   1   7
HETATM    7  C   UNL     1      39.854 -14.377   1.230  1.00  0.00     0.193 C 
HETATM    8  O   UNL     1      38.694 -14.073   1.487  1.00  0.00    -0.287 OA
BRANCH   7   9
HETATM    9  C   UNL     1      40.452 -15.582   1.844  1.00  0.00     0.015 A 
HETATM   10  C   UNL     1      40.990 -16.622   1.079  1.00  0.00     0.018 A 
HETATM   11  C   UNL     1      41.661 -17.668   1.715  1.00  0.00     0.038 A 
HETATM   12  C   UNL     1      41.783 -17.680   3.108  1.00  0.00     0.075 A 
HETATM   13  C   UNL     1      41.158 -16.694   3.886  1.00  0.00    -0.028 A 
HETATM   14  C   UNL     1      41.176 -16.765   5.388  1.00  0.00     0.051 C 
HETATM   15  C   UNL     1      40.494 -15.644   3.242  1.00  0.00     0.025 A 
BRANCH  12  16
HETATM   16  O   UNL     1      42.471 -18.660   3.771  1.00  0.00    -0.346 OA
BRANCH  16  17
HETATM   17  C   UNL     1      43.904 -18.576   3.677  1.00  0.00     0.121 C 
HETATM   18  C   UNL     1      44.571 -18.556   5.056  1.00  0.00     0.040 C 
HETATM   19  C   UNL     1      44.358 -19.816   2.912  1.00  0.00     0.040 C 
ENDBRANCH  16  17
ENDBRANCH  12  16
ENDBRANCH   7   9
ENDBRANCH   1   7
BRANCH   2  20
HETATM   20  C   UNL     1      39.753 -13.894  -1.931  1.00  0.00    -0.030 A 
HETATM   21  C   UNL     1      38.514 -13.887  -2.597  1.00  0.00     0.012 A 
HETATM   22  C   UNL     1      38.243 -14.795  -3.623  1.00  0.00     0.037 A 
HETATM   23  C   UNL     1      39.212 -15.722  -3.988  1.00  0.00     0.065 A 
HETATM   24  C   UNL     1      40.437 -15.762  -3.337  1.00  0.00     0.037 A 
HETATM   25  C   UNL     1      40.706 -14.859  -2.306  1.00  0.00     0.012 A 
BRANCH  23  26
HETATM   26  O   UNL     1      38.998 -16.621  -4.988  1.00  0.00    -0.361 OA
HETATM   27  H   UNL     1      38.041 -16.736  -5.114  1.00  0.00     0.217 HD
ENDBRANCH  23  26
ENDBRANCH   2  20
BRANCH   6  28
HETATM   28  O   UNL     1      42.751 -13.065   1.671  1.00  0.00    -0.355 OA
HETATM   29  H   UNL     1      43.657 -12.832   1.411  1.00  0.00     0.218 HD
ENDBRANCH   6  28
BRANCH   3  30
HETATM   30  C   UNL     1      40.727 -10.866  -2.223  1.00  0.00     0.129 C 
BRANCH  30  31
HETATM   31  C   UNL     1      41.344 -11.197  -3.588  1.00  0.00     0.048 C 
BRANCH  31  32
HETATM   32  C   UNL     1      42.440 -10.265  -4.118  1.00  0.00     0.236 C 
BRANCH  32  33
HETATM   33  N   UNL     1      42.347  -9.978  -5.591  1.00  0.00    -0.067 N 
HETATM   34  H   UNL     1      43.050 -10.585  -6.061  1.00  0.00     0.280 HD
HETATM   35  C   UNL     1      40.983 -10.211  -6.214  1.00  0.00     0.261 C 
HETATM   36  C   UNL     1      41.041  -9.915  -7.717  1.00  0.00     0.195 C 
HETATM   37  O   UNL     1      41.491  -8.579  -7.963  1.00  0.00    -0.388 OA
HETATM   38  C   UNL     1      42.812  -8.370  -7.448  1.00  0.00     0.195 C 
HETATM   39  C   UNL     1      42.837  -8.568  -5.927  1.00  0.00     0.261 C 
ENDBRANCH  32  33
ENDBRANCH  31  32
ENDBRANCH  30  31
ENDBRANCH   3  30
TORSDOF 11
ENDMDL
MODEL 9
REMARK VINA RESULT:      -7.5      2.360      3.942
REMARK  11 active torsions:
REMARK  status: ('A' for Active; 'I' for Inactive)
REMARK    1  A    between atoms: C_3  and  O_4 
REMARK    2  A    between atoms: O_4  and  C_5 
REMARK    3  A    between atoms: C_10  and  C_11 
REMARK    4  A    between atoms: C_11  and  C_12 
REMARK    5  A    between atoms: C_13  and  C_14 
REMARK    6  A    between atoms: C_17  and  O_18 
REMARK    7  A    between atoms: N_21  and  C_22 
REMARK    8  A    between atoms: C_22  and  C_23 
REMARK    9  A    between atoms: C_23  and  C_24 
REMARK   10  A    between atoms: C_24  and  N_25 
REMARK   11  A    between atoms: C_34  and  O_35 
ROOT
HETATM    1  C   UNL     1      41.539 -15.084   5.413  1.00  0.00     0.059 A 
HETATM    2  C   UNL     1      40.532 -14.485   4.464  1.00  0.00     0.161 A 
HETATM    3  N   UNL     1      40.775 -13.065   4.668  1.00  0.00    -0.333 N 
HETATM    4  C   UNL     1      41.861 -12.842   5.477  1.00  0.00     0.278 A 
HETATM    5  O   UNL     1      42.285 -11.743   5.800  1.00  0.00    -0.265 OA
HETATM    6  C   UNL     1      42.310 -14.155   6.002  1.00  0.00     0.146 A 
ENDROOT
BRANCH   1   7
HETATM    7  C   UNL     1      41.415 -16.535   5.683  1.00  0.00     0.193 C 
HETATM    8  O   UNL     1      40.537 -16.934   6.440  1.00  0.00    -0.287 OA
BRANCH   7   9
HETATM    9  C   UNL     1      42.406 -17.488   5.137  1.00  0.00     0.015 A 
HETATM   10  C   UNL     1      43.063 -18.424   5.942  1.00  0.00     0.018 A 
HETATM   11  C   UNL     1      43.885 -19.385   5.348  1.00  0.00     0.038 A 
HETATM   12  C   UNL     1      44.057 -19.401   3.961  1.00  0.00     0.075 A 
HETATM   13  C   UNL     1      43.483 -18.403   3.160  1.00  0.00    -0.028 A 
HETATM   14  C   UNL     1      43.762 -18.337   1.684  1.00  0.00     0.051 C 
HETATM   15  C   UNL     1      42.654 -17.448   3.760  1.00  0.00     0.025 A 
BRANCH  12  16
HETATM   16  O   UNL     1      44.816 -20.350   3.332  1.00  0.00    -0.346 OA
BRANCH  16  17
HETATM   17  C   UNL     1      44.133 -21.580   3.026  1.00  0.00     0.121 C 
HETATM   18  C   UNL     1      44.309 -21.986   1.560  1.00  0.00     0.040 C 
HETATM   19  C   UNL     1      44.747 -22.649   3.926  1.00  0.00     0.040 C 
ENDBRANCH  16  17
ENDBRANCH  12  16
ENDBRANCH   7   9
ENDBRANCH   1   7
BRANCH   2  20
HETATM   20  C   UNL     1      40.721 -14.907   3.018  1.00  0.00    -0.030 A 
HETATM   21  C   UNL     1      41.902 -14.546   2.344  1.00  0.00     0.012 A 
HETATM   22  C   UNL     1      42.116 -14.919   1.015  1.00  0.00     0.037 A 
HETATM   23  C   UNL     1      41.146 -15.657   0.349  1.00  0.00     0.065 A 
HETATM   24  C   UNL     1      39.964 -16.015   0.986  1.00  0.00     0.037 A 
HETATM   25  C   UNL     1      39.746 -15.635   2.312  1.00  0.00     0.012 A 
BRANCH  23  26
HETATM   26  O   UNL     1      41.312 -16.054  -0.943  1.00  0.00    -0.361 OA
HETATM   27  H   UNL     1      42.229 -16.352  -1.069  1.00  0.00     0.217 HD
ENDBRANCH  23  26
ENDBRANCH   2  20
BRANCH   6  28
HETATM   28  O   UNL     1      43.220 -14.237   7.012  1.00  0.00    -0.355 OA
HETATM   29  H   UNL     1      42.954 -14.897   7.674  1.00  0.00     0.218 HD
ENDBRANCH   6  28
BRANCH   3  30
HETATM   30  C   UNL     1      39.921 -12.022   4.131  1.00  0.00     0.129 C 
BRANCH  30  31
HETATM   31  C   UNL     1      40.285 -11.597   2.703  1.00  0.00     0.048 C 
BRANCH  31  32
HETATM   32  C   UNL     1      39.174 -11.624   1.647  1.00  0.00     0.236 C 
BRANCH  32  33
HETATM   33  N   UNL     1      39.523 -12.393   0.404  1.00  0.00    -0.067 N 
HETATM   34  H   UNL     1      40.032 -13.248   0.711  1.00  0.00     0.280 HD
HETATM   35  C   UNL     1      38.345 -12.793  -0.465  1.00  0.00     0.261 C 
HETATM   36  C   UNL     1      38.840 -13.596  -1.673  1.00  0.00     0.195 C 
HETATM   37  O   UNL     1      39.801 -12.854  -2.429  1.00  0.00    -0.388 OA
HETATM   38  C   UNL     1      40.955 -12.538  -1.640  1.00  0.00     0.195 C 
HETATM   39  C   UNL     1      40.568 -11.662  -0.442  1.00  0.00     0.261 C 
ENDBRANCH  32  33
ENDBRANCH  31  32
ENDBRANCH  30  31
ENDBRANCH   3  30
TORSDOF 11
ENDMDL
MODEL 10
REMARK VINA RESULT:      -7.4      2.408      4.619
REMARK  11 active torsions:
REMARK  status: ('A' for Active; 'I' for Inactive)
REMARK    1  A    between atoms: C_3  and  O_4 
REMARK    2  A    between atoms: O_4  and  C_5 
REMARK    3  A    between atoms: C_10  and  C_11 
REMARK    4  A    between atoms: C_11  and  C_12 
REMARK    5  A    between atoms: C_13  and  C_14 
REMARK    6  A    between atoms: C_17  and  O_18 
REMARK    7  A    between atoms: N_21  and  C_22 
REMARK    8  A    between atoms: C_22  and  C_23 
REMARK    9  A    between atoms: C_23  and  C_24 
REMARK   10  A    between atoms: C_24  and  N_25 
REMARK   11  A    between atoms: C_34  and  O_35 
ROOT
HETATM    1  C   UNL     1      41.155 -14.876   2.454  1.00  0.00     0.059 A 
HETATM    2  C   UNL     1      40.723 -13.433   2.531  1.00  0.00     0.161 A 
HETATM    3  N   UNL     1      39.393 -13.515   1.946  1.00  0.00    -0.333 N 
HETATM    4  C   UNL     1      39.016 -14.813   1.710  1.00  0.00     0.278 A 
HETATM    5  O   UNL     1      37.946 -15.159   1.232  1.00  0.00    -0.265 OA
HETATM    6  C   UNL     1      40.187 -15.681   1.985  1.00  0.00     0.146 A 
ENDROOT
BRANCH   1   7
HETATM    7  C   UNL     1      42.584 -15.156   2.724  1.00  0.00     0.193 C 
HETATM    8  O   UNL     1      43.369 -14.221   2.842  1.00  0.00    -0.287 OA
BRANCH   7   9
HETATM    9  C   UNL     1      43.087 -16.546   2.741  1.00  0.00     0.015 A 
HETATM   10  C   UNL     1      43.497 -17.206   1.578  1.00  0.00     0.018 A 
HETATM   11  C   UNL     1      44.089 -18.467   1.676  1.00  0.00     0.038 A 
HETATM   12  C   UNL     1      44.258 -19.069   2.927  1.00  0.00     0.075 A 
HETATM   13  C   UNL     1      43.756 -18.457   4.085  1.00  0.00    -0.028 A 
HETATM   14  C   UNL     1      43.820 -19.151   5.417  1.00  0.00     0.051 C 
HETATM   15  C   UNL     1      43.171 -17.190   3.981  1.00  0.00     0.025 A 
BRANCH  12  16
HETATM   16  O   UNL     1      44.873 -20.282   3.074  1.00  0.00    -0.346 OA
BRANCH  16  17
HETATM   17  C   UNL     1      44.036 -21.429   2.838  1.00  0.00     0.121 C 
HETATM   18  C   UNL     1      44.107 -21.904   1.384  1.00  0.00     0.040 C 
HETATM   19  C   UNL     1      44.551 -22.533   3.758  1.00  0.00     0.040 C 
ENDBRANCH  16  17
ENDBRANCH  12  16
ENDBRANCH   7   9
ENDBRANCH   1   7
BRANCH   2  20
HETATM   20  C   UNL     1      40.706 -12.870   3.941  1.00  0.00    -0.030 A 
HETATM   21  C   UNL     1      39.997 -13.552   4.947  1.00  0.00     0.012 A 
HETATM   22  C   UNL     1      39.962 -13.069   6.257  1.00  0.00     0.037 A 
HETATM   23  C   UNL     1      40.636 -11.895   6.570  1.00  0.00     0.065 A 
HETATM   24  C   UNL     1      41.330 -11.194   5.594  1.00  0.00     0.037 A 
HETATM   25  C   UNL     1      41.360 -11.672   4.282  1.00  0.00     0.012 A 
BRANCH  23  26
HETATM   26  O   UNL     1      40.639 -11.390   7.835  1.00  0.00    -0.361 OA
HETATM   27  H   UNL     1      41.044 -12.038   8.435  1.00  0.00     0.217 HD
ENDBRANCH  23  26
ENDBRANCH   2  20
BRANCH   6  28
HETATM   28  O   UNL     1      40.193 -16.993   1.620  1.00  0.00    -0.355 OA
HETATM   29  H   UNL     1      41.087 -17.286   1.376  1.00  0.00     0.218 HD
ENDBRANCH   6  28
BRANCH   3  30
HETATM   30  C   UNL     1      38.600 -12.350   1.596  1.00  0.00     0.129 C 
BRANCH  30  31
HETATM   31  C   UNL     1      38.851 -11.835   0.173  1.00  0.00     0.048 C 
BRANCH  31  32
HETATM   32  C   UNL     1      38.014 -12.438  -0.960  1.00  0.00     0.236 C 
BRANCH  32  33
HETATM   33  N   UNL     1      38.653 -13.615  -1.642  1.00  0.00    -0.067 N 
HETATM   34  H   UNL     1      38.490 -14.442  -1.031  1.00  0.00     0.280 HD
HETATM   35  C   UNL     1      38.144 -13.913  -3.040  1.00  0.00     0.261 C 
HETATM   36  C   UNL     1      38.853 -15.151  -3.599  1.00  0.00     0.195 C 
HETATM   37  O   UNL     1      40.273 -14.977  -3.601  1.00  0.00    -0.388 OA
HETATM   38  C   UNL     1      40.776 -14.773  -2.274  1.00  0.00     0.195 C 
HETATM   39  C   UNL     1      40.180 -13.502  -1.658  1.00  0.00     0.261 C 
ENDBRANCH  32  33
ENDBRANCH  31  32
ENDBRANCH  30  31
ENDBRANCH   3  30
TORSDOF 11
ENDMDL
