MODEL 1
REMARK VINA RESULT:     -10.3      0.000      0.000
REMARK  7 active torsions:
REMARK  status: ('A' for Active; 'I' for Inactive)
REMARK    1  A    between atoms: C_9  and  C_10 
REMARK       I    between atoms: C_10  and  N_11 
REMARK    2  A    between atoms: N_11  and  C_12 
REMARK    3  A    between atoms: C_12  and  C_13 
REMARK    4  A    between atoms: C_12  and  C_22 
REMARK       I    between atoms: C_13  and  N_14 
REMARK    5  A    between atoms: N_14  and  C_15 
REMARK    6  A    between atoms: C_15  and  C_16 
REMARK    7  A    between atoms: C_22  and  C_23 
ROOT
HETATM    1  C   UNL     1      43.142 -14.748   6.148  1.00  0.00     0.180 C 
ENDROOT
BRANCH   1   2
HETATM    2  N   UNL     1      43.479 -16.158   5.864  1.00  0.00    -0.346 N 
HETATM    3  C   UNL     1      43.018 -17.181   6.658  1.00  0.00     0.249 C 
HETATM    4  O   UNL     1      42.461 -17.034   7.746  1.00  0.00    -0.271 OA
HETATM    5  H   UNL     1      43.611 -16.347   4.877  1.00  0.00     0.163 HD
BRANCH   3   6
HETATM    6  C   UNL     1      43.154 -18.597   6.089  1.00  0.00     0.281 C 
HETATM    7  N   UNL     1      44.068 -19.405   6.991  1.00  0.00    -0.058 N 
HETATM    8  C   UNL     1      44.108 -20.837   6.635  1.00  0.00     0.272 C 
HETATM    9  H   UNL     1      45.009 -18.990   6.945  1.00  0.00     0.278 HD
HETATM   10  H   UNL     1      43.768 -19.248   7.966  1.00  0.00     0.278 HD
HETATM   11  C   UNL     1      44.284 -21.062   5.158  1.00  0.00    -0.026 A 
HETATM   12  C   UNL     1      44.082 -20.021   4.226  1.00  0.00    -0.048 A 
HETATM   13  C   UNL     1      44.607 -22.346   4.695  1.00  0.00     0.009 A 
HETATM   14  C   UNL     1      44.240 -20.279   2.857  1.00  0.00     0.008 A 
HETATM   15  C   UNL     1      43.739 -18.619   4.677  1.00  0.00     0.082 C 
HETATM   16  C   UNL     1      44.567 -21.559   2.413  1.00  0.00     0.001 A 
HETATM   17  C   UNL     1      44.747 -22.591   3.329  1.00  0.00     0.001 A 
ENDBRANCH   3   6
ENDBRANCH   1   2
BRANCH   1  18
HETATM   18  C   UNL     1      44.379 -14.116   6.828  1.00  0.00     0.241 C 
HETATM   19  N   UNL     1      44.135 -13.163   7.780  1.00  0.00    -0.353 N 
HETATM   20  H   UNL     1      43.196 -12.892   8.051  1.00  0.00     0.162 HD
HETATM   21  O   UNL     1      45.520 -14.525   6.588  1.00  0.00    -0.271 OA
BRANCH  19  22
HETATM   22  C   UNL     1      45.211 -12.620   8.579  1.00  0.00     0.187 C 
BRANCH  22  23
HETATM   23  C   UNL     1      44.684 -11.998   9.819  1.00  0.00     0.070 A 
HETATM   24  O   UNL     1      44.257 -12.826  10.821  1.00  0.00    -0.325 OA
HETATM   25  C   UNL     1      43.820 -12.031  11.832  1.00  0.00     0.142 A 
HETATM   26  C   UNL     1      43.968 -10.705  11.502  1.00  0.00     0.027 A 
HETATM   27  C   UNL     1      44.528 -10.681  10.204  1.00  0.00     0.036 A 
ENDBRANCH  22  23
ENDBRANCH  19  22
ENDBRANCH   1  18
BRANCH   1  28
HETATM   28  C   UNL     1      42.580 -13.956   4.955  1.00  0.00     0.075 C 
BRANCH  28  29
HETATM   29  C   UNL     1      41.769 -14.820   4.030  1.00  0.00    -0.028 A 
HETATM   30  C   UNL     1      42.256 -15.666   2.981  1.00  0.00    -0.002 A 
HETATM   31  C   UNL     1      41.150 -16.301   2.410  1.00  0.00     0.042 A 
HETATM   32  C   UNL     1      43.533 -15.950   2.453  1.00  0.00     0.014 A 
HETATM   33  C   UNL     1      41.259 -17.215   1.356  1.00  0.00     0.030 A 
HETATM   34  N   UNL     1      40.033 -15.833   3.058  1.00  0.00    -0.365 N 
HETATM   35  C   UNL     1      42.538 -17.482   0.857  1.00  0.00     0.002 A 
HETATM   36  C   UNL     1      43.659 -16.856   1.393  1.00  0.00     0.001 A 
HETATM   37  H   UNL     1      39.084 -16.099   2.829  1.00  0.00     0.165 HD
HETATM   38  C   UNL     1      40.391 -14.945   4.036  1.00  0.00     0.096 A 
ENDBRANCH  28  29
ENDBRANCH   1  28
TORSDOF 7
ENDMDL
MODEL 2
REMARK VINA RESULT:      -9.5      1.583      8.084
REMARK  7 active torsions:
REMARK  status: ('A' for Active; 'I' for Inactive)
REMARK    1  A    between atoms: C_9  and  C_10 
REMARK       I    between atoms: C_10  and  N_11 
REMARK    2  A    between atoms: N_11  and  C_12 
REMARK    3  A    between atoms: C_12  and  C_13 
REMARK    4  A    between atoms: C_12  and  C_22 
REMARK       I    between atoms: C_13  and  N_14 
REMARK    5  A    between atoms: N_14  and  C_15 
REMARK    6  A    between atoms: C_15  and  C_16 
REMARK    7  A    between atoms: C_22  and  C_23 
ROOT
HETATM    1  C   UNL     1      43.834 -15.145   6.382  1.00  0.00     0.180 C 
ENDROOT
BRANCH   1   2
HETATM    2  N   UNL     1      43.939 -14.388   7.647  1.00  0.00    -0.346 N 
HETATM    3  C   UNL     1      44.845 -13.367   7.799  1.00  0.00     0.249 C 
HETATM    4  O   UNL     1      45.753 -13.105   7.010  1.00  0.00    -0.271 OA
HETATM    5  H   UNL     1      43.060 -14.321   8.146  1.00  0.00     0.163 HD
BRANCH   3   6
HETATM    6  C   UNL     1      44.642 -12.453   9.013  1.00  0.00     0.281 C 
HETATM    7  N   UNL     1      44.354 -13.311  10.231  1.00  0.00    -0.058 N 
HETATM    8  C   UNL     1      44.335 -12.536  11.488  1.00  0.00     0.272 C 
HETATM    9  H   UNL     1      43.454 -13.786  10.081  1.00  0.00     0.278 HD
HETATM   10  H   UNL     1      45.046 -14.076  10.249  1.00  0.00     0.278 HD
HETATM   11  C   UNL     1      43.530 -11.270  11.376  1.00  0.00    -0.026 A 
HETATM   12  C   UNL     1      43.149 -10.749  10.120  1.00  0.00    -0.048 A 
HETATM   13  C   UNL     1      43.194 -10.566  12.542  1.00  0.00     0.009 A 
HETATM   14  C   UNL     1      42.414  -9.557  10.061  1.00  0.00     0.008 A 
HETATM   15  C   UNL     1      43.482 -11.475   8.835  1.00  0.00     0.082 C 
HETATM   16  C   UNL     1      42.083  -8.873  11.229  1.00  0.00     0.001 A 
HETATM   17  C   UNL     1      42.475  -9.374  12.466  1.00  0.00     0.001 A 
ENDBRANCH   3   6
ENDBRANCH   1   2
BRANCH   1  18
HETATM   18  C   UNL     1      43.529 -16.614   6.760  1.00  0.00     0.241 C 
HETATM   19  N   UNL     1      44.376 -17.565   6.256  1.00  0.00    -0.353 N 
HETATM   20  H   UNL     1      45.179 -17.329   5.683  1.00  0.00     0.162 HD
HETATM   21  O   UNL     1      42.624 -16.897   7.551  1.00  0.00    -0.271 OA
BRANCH  19  22
HETATM   22  C   UNL     1      44.268 -18.946   6.668  1.00  0.00     0.187 C 
BRANCH  22  23
HETATM   23  C   UNL     1      44.446 -19.856   5.509  1.00  0.00     0.070 A 
HETATM   24  O   UNL     1      44.637 -21.187   5.761  1.00  0.00    -0.325 OA
HETATM   25  C   UNL     1      44.779 -21.802   4.558  1.00  0.00     0.142 A 
HETATM   26  C   UNL     1      44.673 -20.890   3.534  1.00  0.00     0.027 A 
HETATM   27  C   UNL     1      44.455 -19.634   4.146  1.00  0.00     0.036 A 
ENDBRANCH  22  23
ENDBRANCH  19  22
ENDBRANCH   1  18
BRANCH   1  28
HETATM   28  C   UNL     1      42.894 -14.535   5.329  1.00  0.00     0.075 C 
BRANCH  28  29
HETATM   29  C   UNL     1      42.203 -15.587   4.506  1.00  0.00    -0.028 A 
HETATM   30  C   UNL     1      42.723 -16.277   3.363  1.00  0.00    -0.002 A 
HETATM   31  C   UNL     1      41.748 -17.185   2.944  1.00  0.00     0.042 A 
HETATM   32  C   UNL     1      43.930 -16.213   2.634  1.00  0.00     0.014 A 
HETATM   33  C   UNL     1      41.925 -18.041   1.851  1.00  0.00     0.030 A 
HETATM   34  N   UNL     1      40.663 -17.029   3.774  1.00  0.00    -0.365 N 
HETATM   35  C   UNL     1      43.133 -17.960   1.152  1.00  0.00     0.002 A 
HETATM   36  C   UNL     1      44.121 -17.056   1.533  1.00  0.00     0.001 A 
HETATM   37  H   UNL     1      39.794 -17.538   3.682  1.00  0.00     0.165 HD
HETATM   38  C   UNL     1      40.925 -16.074   4.719  1.00  0.00     0.096 A 
ENDBRANCH  28  29
ENDBRANCH   1  28
TORSDOF 7
ENDMDL
MODEL 3
REMARK VINA RESULT:      -9.2      3.338      7.351
REMARK  7 active torsions:
REMARK  status: ('A' for Active; 'I' for Inactive)
REMARK    1  A    between atoms: C_9  and  C_10 
REMARK       I    between atoms: C_10  and  N_11 
REMARK    2  A    between atoms: N_11  and  C_12 
REMARK    3  A    between atoms: C_12  and  C_13 
REMARK    4  A    between atoms: C_12  and  C_22 
REMARK       I    between atoms: C_13  and  N_14 
REMARK    5  A    between atoms: N_14  and  C_15 
REMARK    6  A    between atoms: C_15  and  C_16 
REMARK    7  A    between atoms: C_22  and  C_23 
ROOT
HETATM    1  C   UNL     1      40.949 -14.581   2.795  1.00  0.00     0.180 C 
ENDROOT
BRANCH   1   2
HETATM    2  N   UNL     1      41.657 -15.839   2.478  1.00  0.00    -0.346 N 
HETATM    3  C   UNL     1      43.028 -15.921   2.519  1.00  0.00     0.249 C 
HETATM    4  O   UNL     1      43.790 -14.961   2.632  1.00  0.00    -0.271 OA
HETATM    5  H   UNL     1      41.125 -16.668   2.716  1.00  0.00     0.163 HD
BRANCH   3   6
HETATM    6  C   UNL     1      43.625 -17.333   2.495  1.00  0.00     0.281 C 
HETATM    7  N   UNL     1      42.722 -18.235   1.674  1.00  0.00    -0.058 N 
HETATM    8  C   UNL     1      43.310 -19.567   1.430  1.00  0.00     0.272 C 
HETATM    9  H   UNL     1      41.822 -18.317   2.166  1.00  0.00     0.278 HD
HETATM   10  H   UNL     1      42.491 -17.739   0.800  1.00  0.00     0.278 HD
HETATM   11  C   UNL     1      43.890 -20.182   2.675  1.00  0.00    -0.026 A 
HETATM   12  C   UNL     1      44.136 -19.410   3.831  1.00  0.00    -0.048 A 
HETATM   13  C   UNL     1      44.241 -21.540   2.668  1.00  0.00     0.009 A 
HETATM   14  C   UNL     1      44.693 -20.019   4.963  1.00  0.00     0.008 A 
HETATM   15  C   UNL     1      43.768 -17.943   3.888  1.00  0.00     0.082 C 
HETATM   16  C   UNL     1      45.031 -21.371   4.943  1.00  0.00     0.001 A 
HETATM   17  C   UNL     1      44.808 -22.129   3.798  1.00  0.00     0.001 A 
ENDBRANCH   3   6
ENDBRANCH   1   2
BRANCH   1  18
HETATM   18  C   UNL     1      39.840 -14.407   1.731  1.00  0.00     0.241 C 
HETATM   19  N   UNL     1      40.154 -13.643   0.638  1.00  0.00    -0.353 N 
HETATM   20  H   UNL     1      41.070 -13.227   0.511  1.00  0.00     0.162 HD
HETATM   21  O   UNL     1      38.765 -15.007   1.823  1.00  0.00    -0.271 OA
BRANCH  19  22
HETATM   22  C   UNL     1      39.244 -13.541  -0.481  1.00  0.00     0.187 C 
BRANCH  22  23
HETATM   23  C   UNL     1      39.702 -14.389  -1.610  1.00  0.00     0.070 A 
HETATM   24  O   UNL     1      38.903 -14.468  -2.718  1.00  0.00    -0.325 OA
HETATM   25  C   UNL     1      39.526 -15.296  -3.597  1.00  0.00     0.142 A 
HETATM   26  C   UNL     1      40.718 -15.744  -3.077  1.00  0.00     0.027 A 
HETATM   27  C   UNL     1      40.835 -15.157  -1.796  1.00  0.00     0.036 A 
ENDBRANCH  22  23
ENDBRANCH  19  22
ENDBRANCH   1  18
BRANCH   1  28
HETATM   28  C   UNL     1      40.479 -14.444   4.253  1.00  0.00     0.075 C 
BRANCH  28  29
HETATM   29  C   UNL     1      41.627 -14.451   5.224  1.00  0.00    -0.028 A 
HETATM   30  C   UNL     1      42.052 -15.535   6.060  1.00  0.00    -0.002 A 
HETATM   31  C   UNL     1      43.175 -15.101   6.768  1.00  0.00     0.042 A 
HETATM   32  C   UNL     1      41.585 -16.847   6.290  1.00  0.00     0.014 A 
HETATM   33  C   UNL     1      43.862 -15.915   7.676  1.00  0.00     0.030 A 
HETATM   34  N   UNL     1      43.402 -13.795   6.408  1.00  0.00    -0.365 N 
HETATM   35  C   UNL     1      43.381 -17.211   7.880  1.00  0.00     0.002 A 
HETATM   36  C   UNL     1      42.256 -17.672   7.202  1.00  0.00     0.001 A 
HETATM   37  H   UNL     1      44.137 -13.215   6.793  1.00  0.00     0.165 HD
HETATM   38  C   UNL     1      42.481 -13.393   5.479  1.00  0.00     0.096 A 
ENDBRANCH  28  29
ENDBRANCH   1  28
TORSDOF 7
ENDMDL
MODEL 4
REMARK VINA RESULT:      -9.1      2.344      5.931
REMARK  7 active torsions:
REMARK  status: ('A' for Active; 'I' for Inactive)
REMARK    1  A    between atoms: C_9  and  C_10 
REMARK       I    between atoms: C_10  and  N_11 
REMARK    2  A    between atoms: N_11  and  C_12 
REMARK    3  A    between atoms: C_12  and  C_13 
REMARK    4  A    between atoms: C_12  and  C_22 
REMARK       I    between atoms: C_13  and  N_14 
REMARK    5  A    between atoms: N_14  and  C_15 
REMARK    6  A    between atoms: C_15  and  C_16 
REMARK    7  A    between atoms: C_22  and  C_23 
ROOT
HETATM    1  C   UNL     1      44.088 -14.843   6.023  1.00  0.00     0.180 C 
ENDROOT
BRANCH   1   2
HETATM    2  N   UNL     1      43.116 -14.106   5.189  1.00  0.00    -0.346 N 
HETATM    3  C   UNL     1      43.423 -13.706   3.912  1.00  0.00     0.249 C 
HETATM    4  O   UNL     1      44.547 -13.746   3.410  1.00  0.00    -0.271 OA
HETATM    5  H   UNL     1      42.153 -14.346   5.393  1.00  0.00     0.163 HD
BRANCH   3   6
HETATM    6  C   UNL     1      42.248 -13.250   3.041  1.00  0.00     0.281 C 
HETATM    7  N   UNL     1      41.626 -12.013   3.662  1.00  0.00    -0.058 N 
HETATM    8  C   UNL     1      40.609 -11.383   2.796  1.00  0.00     0.272 C 
HETATM    9  H   UNL     1      41.219 -12.282   4.568  1.00  0.00     0.278 HD
HETATM   10  H   UNL     1      42.391 -11.365   3.909  1.00  0.00     0.278 HD
HETATM   11  C   UNL     1      39.641 -12.382   2.221  1.00  0.00    -0.026 A 
HETATM   12  C   UNL     1      39.912 -13.767   2.244  1.00  0.00    -0.048 A 
HETATM   13  C   UNL     1      38.469 -11.921   1.602  1.00  0.00     0.009 A 
HETATM   14  C   UNL     1      38.990 -14.661   1.681  1.00  0.00     0.008 A 
HETATM   15  C   UNL     1      41.159 -14.312   2.905  1.00  0.00     0.082 C 
HETATM   16  C   UNL     1      37.828 -14.187   1.076  1.00  0.00     0.001 A 
HETATM   17  C   UNL     1      37.569 -12.821   1.034  1.00  0.00     0.001 A 
ENDBRANCH   3   6
ENDBRANCH   1   2
BRANCH   1  18
HETATM   18  C   UNL     1      44.779 -13.804   6.936  1.00  0.00     0.241 C 
HETATM   19  N   UNL     1      44.044 -13.327   7.988  1.00  0.00    -0.353 N 
HETATM   20  H   UNL     1      43.101 -13.647   8.182  1.00  0.00     0.162 HD
HETATM   21  O   UNL     1      45.965 -13.499   6.775  1.00  0.00    -0.271 OA
BRANCH  19  22
HETATM   22  C   UNL     1      44.645 -12.469   8.984  1.00  0.00     0.187 C 
BRANCH  22  23
HETATM   23  C   UNL     1      43.669 -11.460   9.467  1.00  0.00     0.070 A 
HETATM   24  O   UNL     1      42.998 -10.718   8.534  1.00  0.00    -0.325 OA
HETATM   25  C   UNL     1      42.180  -9.872   9.213  1.00  0.00     0.142 A 
HETATM   26  C   UNL     1      42.305 -10.065  10.569  1.00  0.00     0.027 A 
HETATM   27  C   UNL     1      43.264 -11.091  10.735  1.00  0.00     0.036 A 
ENDBRANCH  22  23
ENDBRANCH  19  22
ENDBRANCH   1  18
BRANCH   1  28
HETATM   28  C   UNL     1      43.525 -16.076   6.750  1.00  0.00     0.075 C 
BRANCH  28  29
HETATM   29  C   UNL     1      43.976 -17.364   6.119  1.00  0.00    -0.028 A 
HETATM   30  C   UNL     1      43.624 -17.868   4.824  1.00  0.00    -0.002 A 
HETATM   31  C   UNL     1      44.301 -19.077   4.648  1.00  0.00     0.042 A 
HETATM   32  C   UNL     1      42.787 -17.415   3.781  1.00  0.00     0.014 A 
HETATM   33  C   UNL     1      44.198 -19.843   3.482  1.00  0.00     0.030 A 
HETATM   34  N   UNL     1      45.005 -19.320   5.803  1.00  0.00    -0.365 N 
HETATM   35  C   UNL     1      43.367 -19.367   2.463  1.00  0.00     0.002 A 
HETATM   36  C   UNL     1      42.667 -18.173   2.611  1.00  0.00     0.001 A 
HETATM   37  H   UNL     1      45.563 -20.147   5.969  1.00  0.00     0.165 HD
HETATM   38  C   UNL     1      44.821 -18.297   6.693  1.00  0.00     0.096 A 
ENDBRANCH  28  29
ENDBRANCH   1  28
TORSDOF 7
ENDMDL
MODEL 5
REMARK VINA RESULT:      -9.1      1.503      2.052
REMARK  7 active torsions:
REMARK  status: ('A' for Active; 'I' for Inactive)
REMARK    1  A    between atoms: C_9  and  C_10 
REMARK       I    between atoms: C_10  and  N_11 
REMARK    2  A    between atoms: N_11  and  C_12 
REMARK    3  A    between atoms: C_12  and  C_13 
REMARK    4  A    between atoms: C_12  and  C_22 
REMARK       I    between atoms: C_13  and  N_14 
REMARK    5  A    between atoms: N_14  and  C_15 
REMARK    6  A    between atoms: C_15  and  C_16 
REMARK    7  A    between atoms: C_22  and  C_23 
ROOT
HETATM    1  C   UNL     1      42.757 -14.828   5.995  1.00  0.00     0.180 C 
ENDROOT
BRANCH   1   2
HETATM    2  N   UNL     1      43.449 -15.896   5.244  1.00  0.00    -0.346 N 
HETATM    3  C   UNL     1      44.115 -16.911   5.887  1.00  0.00     0.249 C 
HETATM    4  O   UNL     1      44.360 -16.942   7.094  1.00  0.00    -0.271 OA
HETATM    5  H   UNL     1      43.014 -16.104   4.353  1.00  0.00     0.163 HD
BRANCH   3   6
HETATM    6  C   UNL     1      44.506 -18.119   5.029  1.00  0.00     0.281 C 
HETATM    7  N   UNL     1      43.659 -18.122   3.770  1.00  0.00    -0.058 N 
HETATM    8  C   UNL     1      44.093 -19.136   2.787  1.00  0.00     0.272 C 
HETATM    9  H   UNL     1      42.680 -18.278   4.046  1.00  0.00     0.278 HD
HETATM   10  H   UNL     1      43.666 -17.167   3.382  1.00  0.00     0.278 HD
HETATM   11  C   UNL     1      44.339 -20.482   3.414  1.00  0.00    -0.026 A 
HETATM   12  C   UNL     1      44.466 -20.631   4.812  1.00  0.00    -0.048 A 
HETATM   13  C   UNL     1      44.495 -21.604   2.586  1.00  0.00     0.009 A 
HETATM   14  C   UNL     1      44.712 -21.901   5.352  1.00  0.00     0.008 A 
HETATM   15  C   UNL     1      44.300 -19.452   5.746  1.00  0.00     0.082 C 
HETATM   16  C   UNL     1      44.858 -23.006   4.517  1.00  0.00     0.001 A 
HETATM   17  C   UNL     1      44.753 -22.858   3.137  1.00  0.00     0.001 A 
ENDBRANCH   3   6
ENDBRANCH   1   2
BRANCH   1  18
HETATM   18  C   UNL     1      43.843 -13.836   6.474  1.00  0.00     0.241 C 
HETATM   19  N   UNL     1      43.971 -13.674   7.828  1.00  0.00    -0.353 N 
HETATM   20  H   UNL     1      43.404 -14.188   8.493  1.00  0.00     0.162 HD
HETATM   21  O   UNL     1      44.614 -13.296   5.674  1.00  0.00    -0.271 OA
BRANCH  19  22
HETATM   22  C   UNL     1      45.050 -12.887   8.381  1.00  0.00     0.187 C 
BRANCH  22  23
HETATM   23  C   UNL     1      44.575 -12.080   9.533  1.00  0.00     0.070 A 
HETATM   24  O   UNL     1      44.246 -10.771   9.308  1.00  0.00    -0.325 OA
HETATM   25  C   UNL     1      43.853 -10.251  10.499  1.00  0.00     0.142 A 
HETATM   26  C   UNL     1      43.913 -11.206  11.487  1.00  0.00     0.027 A 
HETATM   27  C   UNL     1      44.377 -12.388  10.865  1.00  0.00     0.036 A 
ENDBRANCH  22  23
ENDBRANCH  19  22
ENDBRANCH   1  18
BRANCH   1  28
HETATM   28  C   UNL     1      41.563 -14.185   5.270  1.00  0.00     0.075 C 
BRANCH  28  29
HETATM   29  C   UNL     1      41.784 -14.090   3.785  1.00  0.00    -0.028 A 
HETATM   30  C   UNL     1      41.471 -15.077   2.794  1.00  0.00    -0.002 A 
HETATM   31  C   UNL     1      41.817 -14.544   1.551  1.00  0.00     0.042 A 
HETATM   32  C   UNL     1      40.931 -16.380   2.834  1.00  0.00     0.014 A 
HETATM   33  C   UNL     1      41.634 -15.237   0.349  1.00  0.00     0.030 A 
HETATM   34  N   UNL     1      42.355 -13.299   1.777  1.00  0.00    -0.365 N 
HETATM   35  C   UNL     1      41.092 -16.524   0.418  1.00  0.00     0.002 A 
HETATM   36  C   UNL     1      40.749 -17.091   1.641  1.00  0.00     0.001 A 
HETATM   37  H   UNL     1      42.723 -12.695   1.054  1.00  0.00     0.165 HD
HETATM   38  C   UNL     1      42.337 -13.013   3.115  1.00  0.00     0.096 A 
ENDBRANCH  28  29
ENDBRANCH   1  28
TORSDOF 7
ENDMDL
MODEL 6
REMARK VINA RESULT:      -9.0      3.188      4.809
REMARK  7 active torsions:
REMARK  status: ('A' for Active; 'I' for Inactive)
REMARK    1  A    between atoms: C_9  and  C_10 
REMARK       I    between atoms: C_10  and  N_11 
REMARK    2  A    between atoms: N_11  and  C_12 
REMARK    3  A    between atoms: C_12  and  C_13 
REMARK    4  A    between atoms: C_12  and  C_22 
REMARK       I    between atoms: C_13  and  N_14 
REMARK    5  A    between atoms: N_14  and  C_15 
REMARK    6  A    between atoms: C_15  and  C_16 
REMARK    7  A    between atoms: C_22  and  C_23 
ROOT
HETATM    1  C   UNL     1      40.908 -15.310   2.112  1.00  0.00     0.180 C 
ENDROOT
BRANCH   1   2
HETATM    2  N   UNL     1      41.760 -16.514   2.034  1.00  0.00    -0.346 N 
HETATM    3  C   UNL     1      43.039 -16.523   2.536  1.00  0.00     0.249 C 
HETATM    4  O   UNL     1      43.655 -15.527   2.917  1.00  0.00    -0.271 OA
HETATM    5  H   UNL     1      41.233 -17.379   2.063  1.00  0.00     0.163 HD
BRANCH   3   6
HETATM    6  C   UNL     1      43.698 -17.898   2.693  1.00  0.00     0.281 C 
HETATM    7  N   UNL     1      43.014 -18.880   1.760  1.00  0.00    -0.058 N 
HETATM    8  C   UNL     1      43.703 -20.185   1.696  1.00  0.00     0.272 C 
HETATM    9  H   UNL     1      42.042 -18.996   2.076  1.00  0.00     0.278 HD
HETATM   10  H   UNL     1      42.931 -18.431   0.836  1.00  0.00     0.278 HD
HETATM   11  C   UNL     1      44.063 -20.718   3.056  1.00  0.00    -0.026 A 
HETATM   12  C   UNL     1      44.044 -19.890   4.199  1.00  0.00    -0.048 A 
HETATM   13  C   UNL     1      44.475 -22.054   3.181  1.00  0.00     0.009 A 
HETATM   14  C   UNL     1      44.404 -20.424   5.445  1.00  0.00     0.008 A 
HETATM   15  C   UNL     1      43.601 -18.446   4.116  1.00  0.00     0.082 C 
HETATM   16  C   UNL     1      44.805 -21.754   5.553  1.00  0.00     0.001 A 
HETATM   17  C   UNL     1      44.843 -22.566   4.424  1.00  0.00     0.001 A 
ENDBRANCH   3   6
ENDBRANCH   1   2
BRANCH   1  18
HETATM   18  C   UNL     1      40.775 -14.947   3.610  1.00  0.00     0.241 C 
HETATM   19  N   UNL     1      40.620 -15.991   4.482  1.00  0.00    -0.353 N 
HETATM   20  H   UNL     1      40.613 -16.958   4.177  1.00  0.00     0.162 HD
HETATM   21  O   UNL     1      40.901 -13.782   3.999  1.00  0.00    -0.271 OA
BRANCH  19  22
HETATM   22  C   UNL     1      40.637 -15.772   5.911  1.00  0.00     0.187 C 
BRANCH  22  23
HETATM   23  C   UNL     1      41.961 -16.128   6.482  1.00  0.00     0.070 A 
HETATM   24  O   UNL     1      42.042 -17.248   7.263  1.00  0.00    -0.325 OA
HETATM   25  C   UNL     1      43.335 -17.356   7.666  1.00  0.00     0.142 A 
HETATM   26  C   UNL     1      44.090 -16.329   7.149  1.00  0.00     0.027 A 
HETATM   27  C   UNL     1      43.205 -15.537   6.382  1.00  0.00     0.036 A 
ENDBRANCH  22  23
ENDBRANCH  19  22
ENDBRANCH   1  18
BRANCH   1  28
HETATM   28  C   UNL     1      41.329 -14.148   1.196  1.00  0.00     0.075 C 
BRANCH  28  29
HETATM   29  C   UNL     1      40.308 -13.867   0.128  1.00  0.00    -0.028 A 
HETATM   30  C   UNL     1      40.201 -14.490  -1.158  1.00  0.00    -0.002 A 
HETATM   31  C   UNL     1      39.087 -13.940  -1.797  1.00  0.00     0.042 A 
HETATM   32  C   UNL     1      40.949 -15.468  -1.848  1.00  0.00     0.014 A 
HETATM   33  C   UNL     1      38.676 -14.329  -3.076  1.00  0.00     0.030 A 
HETATM   34  N   UNL     1      38.561 -12.992  -0.951  1.00  0.00    -0.365 N 
HETATM   35  C   UNL     1      39.432 -15.304  -3.733  1.00  0.00     0.002 A 
HETATM   36  C   UNL     1      40.555 -15.863  -3.132  1.00  0.00     0.001 A 
HETATM   37  H   UNL     1      37.764 -12.409  -1.171  1.00  0.00     0.165 HD
HETATM   38  C   UNL     1      39.283 -12.942   0.210  1.00  0.00     0.096 A 
ENDBRANCH  28  29
ENDBRANCH   1  28
TORSDOF 7
ENDMDL
MODEL 7
REMARK VINA RESULT:      -9.0      2.294      8.595
REMARK  7 active torsions:
REMARK  status: ('A' for Active; 'I' for Inactive)
REMARK    1  A    between atoms: C_9  and  C_10 
REMARK       I    between atoms: C_10  and  N_11 
REMARK    2  A    between atoms: N_11  and  C_12 
REMARK    3  A    between atoms: C_12  and  C_13 
REMARK    4  A    between atoms: C_12  and  C_22 
REMARK       I    between atoms: C_13  and  N_14 
REMARK    5  A    between atoms: N_14  and  C_15 
REMARK    6  A    between atoms: C_15  and  C_16 
REMARK    7  A    between atoms: C_22  and  C_23 
ROOT
HETATM    1  C   UNL     1      44.145 -15.072   6.517  1.00  0.00     0.180 C 
ENDROOT
BRANCH   1   2
HETATM    2  N   UNL     1      43.922 -14.155   7.653  1.00  0.00    -0.346 N 
HETATM    3  C   UNL     1      44.848 -13.201   7.999  1.00  0.00     0.249 C 
HETATM    4  O   UNL     1      45.991 -13.129   7.547  1.00  0.00    -0.271 OA
HETATM    5  H   UNL     1      42.944 -13.945   7.811  1.00  0.00     0.163 HD
BRANCH   3   6
HETATM    6  C   UNL     1      44.373 -12.112   8.967  1.00  0.00     0.281 C 
HETATM    7  N   UNL     1      44.058 -12.748  10.308  1.00  0.00    -0.058 N 
HETATM    8  C   UNL     1      43.778 -11.754  11.364  1.00  0.00     0.272 C 
HETATM    9  H   UNL     1      43.257 -13.381  10.180  1.00  0.00     0.278 HD
HETATM   10  H   UNL     1      44.841 -13.374  10.552  1.00  0.00     0.278 HD
HETATM   11  C   UNL     1      42.826 -10.681  10.911  1.00  0.00    -0.026 A 
HETATM   12  C   UNL     1      42.535 -10.484   9.544  1.00  0.00    -0.048 A 
HETATM   13  C   UNL     1      42.256  -9.825  11.865  1.00  0.00     0.009 A 
HETATM   14  C   UNL     1      41.655  -9.461   9.165  1.00  0.00     0.008 A 
HETATM   15  C   UNL     1      43.121 -11.386   8.479  1.00  0.00     0.082 C 
HETATM   16  C   UNL     1      41.092  -8.623  10.125  1.00  0.00     0.001 A 
HETATM   17  C   UNL     1      41.394  -8.802  11.471  1.00  0.00     0.001 A 
ENDBRANCH   3   6
ENDBRANCH   1   2
BRANCH   1  18
HETATM   18  C   UNL     1      43.923 -16.508   7.045  1.00  0.00     0.241 C 
HETATM   19  N   UNL     1      44.329 -17.531   6.229  1.00  0.00    -0.353 N 
HETATM   20  H   UNL     1      44.774 -17.367   5.332  1.00  0.00     0.162 HD
HETATM   21  O   UNL     1      43.490 -16.712   8.183  1.00  0.00    -0.271 OA
BRANCH  19  22
HETATM   22  C   UNL     1      44.304 -18.901   6.689  1.00  0.00     0.187 C 
BRANCH  22  23
HETATM   23  C   UNL     1      44.469 -19.841   5.552  1.00  0.00     0.070 A 
HETATM   24  O   UNL     1      44.647 -21.167   5.837  1.00  0.00    -0.325 OA
HETATM   25  C   UNL     1      44.779 -21.813   4.649  1.00  0.00     0.142 A 
HETATM   26  C   UNL     1      44.679 -20.926   3.603  1.00  0.00     0.027 A 
HETATM   27  C   UNL     1      44.475 -19.652   4.184  1.00  0.00     0.036 A 
ENDBRANCH  22  23
ENDBRANCH  19  22
ENDBRANCH   1  18
BRANCH   1  28
HETATM   28  C   UNL     1      43.373 -14.724   5.233  1.00  0.00     0.075 C 
BRANCH  28  29
HETATM   29  C   UNL     1      41.926 -14.418   5.505  1.00  0.00    -0.028 A 
HETATM   30  C   UNL     1      41.288 -13.135   5.471  1.00  0.00    -0.002 A 
HETATM   31  C   UNL     1      39.935 -13.334   5.755  1.00  0.00     0.042 A 
HETATM   32  C   UNL     1      41.731 -11.816   5.233  1.00  0.00     0.014 A 
HETATM   33  C   UNL     1      39.005 -12.290   5.795  1.00  0.00     0.030 A 
HETATM   34  N   UNL     1      39.763 -14.677   5.991  1.00  0.00    -0.365 N 
HETATM   35  C   UNL     1      39.470 -10.995   5.549  1.00  0.00     0.002 A 
HETATM   36  C   UNL     1      40.815 -10.758   5.276  1.00  0.00     0.001 A 
HETATM   37  H   UNL     1      38.884 -15.104   6.254  1.00  0.00     0.165 HD
HETATM   38  C   UNL     1      40.951 -15.340   5.840  1.00  0.00     0.096 A 
ENDBRANCH  28  29
ENDBRANCH   1  28
TORSDOF 7
ENDMDL
MODEL 8
REMARK VINA RESULT:      -9.0      2.259      3.762
REMARK  7 active torsions:
REMARK  status: ('A' for Active; 'I' for Inactive)
REMARK    1  A    between atoms: C_9  and  C_10 
REMARK       I    between atoms: C_10  and  N_11 
REMARK    2  A    between atoms: N_11  and  C_12 
REMARK    3  A    between atoms: C_12  and  C_13 
REMARK    4  A    between atoms: C_12  and  C_22 
REMARK       I    between atoms: C_13  and  N_14 
REMARK    5  A    between atoms: N_14  and  C_15 
REMARK    6  A    between atoms: C_15  and  C_16 
REMARK    7  A    between atoms: C_22  and  C_23 
ROOT
HETATM    1  C   UNL     1      42.420 -14.814   5.679  1.00  0.00     0.180 C 
ENDROOT
BRANCH   1   2
HETATM    2  N   UNL     1      42.875 -16.180   5.347  1.00  0.00    -0.346 N 
HETATM    3  C   UNL     1      42.982 -17.155   6.309  1.00  0.00     0.249 C 
HETATM    4  O   UNL     1      42.899 -16.962   7.522  1.00  0.00    -0.271 OA
HETATM    5  H   UNL     1      42.627 -16.466   4.407  1.00  0.00     0.163 HD
BRANCH   3   6
HETATM    6  C   UNL     1      43.143 -18.593   5.804  1.00  0.00     0.281 C 
HETATM    7  N   UNL     1      44.095 -19.334   6.724  1.00  0.00    -0.058 N 
HETATM    8  C   UNL     1      44.165 -20.781   6.435  1.00  0.00     0.272 C 
HETATM    9  H   UNL     1      45.024 -18.899   6.638  1.00  0.00     0.278 HD
HETATM   10  H   UNL     1      43.811 -19.138   7.696  1.00  0.00     0.278 HD
HETATM   11  C   UNL     1      44.316 -21.071   4.966  1.00  0.00    -0.026 A 
HETATM   12  C   UNL     1      44.068 -20.081   3.991  1.00  0.00    -0.048 A 
HETATM   13  C   UNL     1      44.662 -22.367   4.557  1.00  0.00     0.009 A 
HETATM   14  C   UNL     1      44.205 -20.400   2.633  1.00  0.00     0.008 A 
HETATM   15  C   UNL     1      43.699 -18.667   4.383  1.00  0.00     0.082 C 
HETATM   16  C   UNL     1      44.555 -21.690   2.242  1.00  0.00     0.001 A 
HETATM   17  C   UNL     1      44.781 -22.673   3.202  1.00  0.00     0.001 A 
ENDBRANCH   3   6
ENDBRANCH   1   2
BRANCH   1  18
HETATM   18  C   UNL     1      43.685 -13.981   5.995  1.00  0.00     0.241 C 
HETATM   19  N   UNL     1      43.974 -13.786   7.320  1.00  0.00    -0.353 N 
HETATM   20  H   UNL     1      43.410 -14.181   8.064  1.00  0.00     0.162 HD
HETATM   21  O   UNL     1      44.440 -13.598   5.097  1.00  0.00    -0.271 OA
BRANCH  19  22
HETATM   22  C   UNL     1      45.210 -13.152   7.723  1.00  0.00     0.187 C 
BRANCH  22  23
HETATM   23  C   UNL     1      45.045 -12.460   9.026  1.00  0.00     0.070 A 
HETATM   24  O   UNL     1      44.409 -13.132  10.033  1.00  0.00    -0.325 OA
HETATM   25  C   UNL     1      44.376 -12.298  11.106  1.00  0.00     0.142 A 
HETATM   26  C   UNL     1      44.990 -11.104  10.808  1.00  0.00     0.027 A 
HETATM   27  C   UNL     1      45.425 -11.208   9.467  1.00  0.00     0.036 A 
ENDBRANCH  22  23
ENDBRANCH  19  22
ENDBRANCH   1  18
BRANCH   1  28
HETATM   28  C   UNL     1      41.460 -14.177   4.659  1.00  0.00     0.075 C 
BRANCH  28  29
HETATM   29  C   UNL     1      41.298 -12.698   4.878  1.00  0.00    -0.028 A 
HETATM   30  C   UNL     1      40.620 -12.049   5.961  1.00  0.00    -0.002 A 
HETATM   31  C   UNL     1      40.752 -10.672   5.770  1.00  0.00     0.042 A 
HETATM   32  C   UNL     1      39.899 -12.499   7.087  1.00  0.00     0.014 A 
HETATM   33  C   UNL     1      40.216  -9.727   6.653  1.00  0.00     0.030 A 
HETATM   34  N   UNL     1      41.446 -10.488   4.598  1.00  0.00    -0.365 N 
HETATM   35  C   UNL     1      39.512 -10.202   7.763  1.00  0.00     0.002 A 
HETATM   36  C   UNL     1      39.349 -11.567   7.977  1.00  0.00     0.001 A 
HETATM   37  H   UNL     1      41.660  -9.586   4.194  1.00  0.00     0.165 HD
HETATM   38  C   UNL     1      41.784 -11.698   4.055  1.00  0.00     0.096 A 
ENDBRANCH  28  29
ENDBRANCH   1  28
TORSDOF 7
ENDMDL
MODEL 9
REMARK VINA RESULT:      -8.9      4.530      8.162
REMARK  7 active torsions:
REMARK  status: ('A' for Active; 'I' for Inactive)
REMARK    1  A    between atoms: C_9  and  C_10 
REMARK       I    between atoms: C_10  and  N_11 
REMARK    2  A    between atoms: N_11  and  C_12 
REMARK    3  A    between atoms: C_12  and  C_13 
REMARK    4  A    between atoms: C_12  and  C_22 
REMARK       I    between atoms: C_13  and  N_14 
REMARK    5  A    between atoms: N_14  and  C_15 
REMARK    6  A    between atoms: C_15  and  C_16 
REMARK    7  A    between atoms: C_22  and  C_23 
ROOT
HETATM    1  C   UNL     1      41.041 -14.878   1.119  1.00  0.00     0.180 C 
ENDROOT
BRANCH   1   2
HETATM    2  N   UNL     1      41.739 -16.098   1.575  1.00  0.00    -0.346 N 
HETATM    3  C   UNL     1      42.269 -16.192   2.839  1.00  0.00     0.249 C 
HETATM    4  O   UNL     1      42.385 -15.254   3.628  1.00  0.00    -0.271 OA
HETATM    5  H   UNL     1      41.387 -16.944   1.144  1.00  0.00     0.163 HD
BRANCH   3   6
HETATM    6  C   UNL     1      42.671 -17.596   3.304  1.00  0.00     0.281 C 
HETATM    7  N   UNL     1      43.881 -17.486   4.214  1.00  0.00    -0.058 N 
HETATM    8  C   UNL     1      44.226 -18.764   4.869  1.00  0.00     0.272 C 
HETATM    9  H   UNL     1      44.670 -17.138   3.653  1.00  0.00     0.278 HD
HETATM   10  H   UNL     1      43.697 -16.731   4.892  1.00  0.00     0.278 HD
HETATM   11  C   UNL     1      44.234 -19.922   3.909  1.00  0.00    -0.026 A 
HETATM   12  C   UNL     1      43.642 -19.824   2.631  1.00  0.00    -0.048 A 
HETATM   13  C   UNL     1      44.797 -21.142   4.313  1.00  0.00     0.009 A 
HETATM   14  C   UNL     1      43.657 -20.934   1.775  1.00  0.00     0.008 A 
HETATM   15  C   UNL     1      43.028 -18.528   2.148  1.00  0.00     0.082 C 
HETATM   16  C   UNL     1      44.225 -22.137   2.189  1.00  0.00     0.001 A 
HETATM   17  C   UNL     1      44.791 -22.242   3.456  1.00  0.00     0.001 A 
ENDBRANCH   3   6
ENDBRANCH   1   2
BRANCH   1  18
HETATM   18  C   UNL     1      41.312 -14.743  -0.398  1.00  0.00     0.241 C 
HETATM   19  N   UNL     1      40.804 -15.729  -1.201  1.00  0.00    -0.353 N 
HETATM   20  H   UNL     1      40.258 -16.502  -0.835  1.00  0.00     0.162 HD
HETATM   21  O   UNL     1      41.874 -13.746  -0.861  1.00  0.00    -0.271 OA
BRANCH  19  22
HETATM   22  C   UNL     1      40.872 -15.620  -2.641  1.00  0.00     0.187 C 
BRANCH  22  23
HETATM   23  C   UNL     1      39.546 -15.259  -3.204  1.00  0.00     0.070 A 
HETATM   24  O   UNL     1      39.023 -14.037  -2.879  1.00  0.00    -0.325 OA
HETATM   25  C   UNL     1      37.819 -13.944  -3.501  1.00  0.00     0.142 A 
HETATM   26  C   UNL     1      37.563 -15.081  -4.230  1.00  0.00     0.027 A 
HETATM   27  C   UNL     1      38.678 -15.930  -4.042  1.00  0.00     0.036 A 
ENDBRANCH  22  23
ENDBRANCH  19  22
ENDBRANCH   1  18
BRANCH   1  28
HETATM   28  C   UNL     1      39.562 -14.779   1.527  1.00  0.00     0.075 C 
BRANCH  28  29
HETATM   29  C   UNL     1      39.200 -13.407   2.027  1.00  0.00    -0.028 A 
HETATM   30  C   UNL     1      38.115 -12.580   1.588  1.00  0.00    -0.002 A 
HETATM   31  C   UNL     1      38.146 -11.411   2.351  1.00  0.00     0.042 A 
HETATM   32  C   UNL     1      37.109 -12.708   0.606  1.00  0.00     0.014 A 
HETATM   33  C   UNL     1      37.216 -10.377   2.197  1.00  0.00     0.030 A 
HETATM   34  N   UNL     1      39.228 -11.504   3.193  1.00  0.00    -0.365 N 
HETATM   35  C   UNL     1      36.227 -10.534   1.221  1.00  0.00     0.002 A 
HETATM   36  C   UNL     1      36.175 -11.680   0.433  1.00  0.00     0.001 A 
HETATM   37  H   UNL     1      39.513 -10.781   3.841  1.00  0.00     0.165 HD
HETATM   38  C   UNL     1      39.868 -12.700   3.011  1.00  0.00     0.096 A 
ENDBRANCH  28  29
ENDBRANCH   1  28
TORSDOF 7
ENDMDL
MODEL 10
REMARK VINA RESULT:      -8.8      3.266      4.761
REMARK  7 active torsions:
REMARK  status: ('A' for Active; 'I' for Inactive)
REMARK    1  A    between atoms: C_9  and  C_10 
REMARK       I    between atoms: C_10  and  N_11 
REMARK    2  A    between atoms: N_11  and  C_12 
REMARK    3  A    between atoms: C_12  and  C_13 
REMARK    4  A    between atoms: C_12  and  C_22 
REMARK       I    between atoms: C_13  and  N_14 
REMARK    5  A    between atoms: N_14  and  C_15 
REMARK    6  A    between atoms: C_15  and  C_16 
REMARK    7  A    between atoms: C_22  and  C_23 
ROOT
HETATM    1  C   UNL     1      41.281 -14.895   1.563  1.00  0.00     0.180 C 
ENDROOT
BRANCH   1   2
HETATM    2  N   UNL     1      41.553 -16.251   2.082  1.00  0.00    -0.346 N 
HETATM    3  C   UNL     1      42.806 -16.811   2.007  1.00  0.00     0.249 C 
HETATM    4  O   UNL     1      43.749 -16.348   1.364  1.00  0.00    -0.271 OA
HETATM    5  H   UNL     1      40.968 -16.503   2.869  1.00  0.00     0.163 HD
BRANCH   3   6
HETATM    6  C   UNL     1      43.042 -18.064   2.856  1.00  0.00     0.281 C 
HETATM    7  N   UNL     1      44.008 -17.725   3.976  1.00  0.00    -0.058 N 
HETATM    8  C   UNL     1      44.149 -18.814   4.964  1.00  0.00     0.272 C 
HETATM    9  H   UNL     1      44.918 -17.495   3.554  1.00  0.00     0.278 HD
HETATM   10  H   UNL     1      43.696 -16.840   4.405  1.00  0.00     0.278 HD
HETATM   11  C   UNL     1      44.344 -20.159   4.318  1.00  0.00    -0.026 A 
HETATM   12  C   UNL     1      44.072 -20.364   2.948  1.00  0.00    -0.048 A 
HETATM   13  C   UNL     1      44.758 -21.243   5.106  1.00  0.00     0.009 A 
HETATM   14  C   UNL     1      44.251 -21.638   2.391  1.00  0.00     0.008 A 
HETATM   15  C   UNL     1      43.630 -19.225   2.056  1.00  0.00     0.082 C 
HETATM   16  C   UNL     1      44.667 -22.704   3.186  1.00  0.00     0.001 A 
HETATM   17  C   UNL     1      44.917 -22.508   4.541  1.00  0.00     0.001 A 
ENDBRANCH   3   6
ENDBRANCH   1   2
BRANCH   1  18
HETATM   18  C   UNL     1      41.970 -13.897   2.524  1.00  0.00     0.241 C 
HETATM   19  N   UNL     1      41.589 -13.949   3.838  1.00  0.00    -0.353 N 
HETATM   20  H   UNL     1      40.907 -14.617   4.180  1.00  0.00     0.162 HD
HETATM   21  O   UNL     1      42.884 -13.163   2.136  1.00  0.00    -0.271 OA
BRANCH  19  22
HETATM   22  C   UNL     1      42.276 -13.166   4.841  1.00  0.00     0.187 C 
BRANCH  22  23
HETATM   23  C   UNL     1      43.065 -14.043   5.743  1.00  0.00     0.070 A 
HETATM   24  O   UNL     1      44.262 -13.572   6.209  1.00  0.00    -0.325 OA
HETATM   25  C   UNL     1      44.790 -14.544   6.997  1.00  0.00     0.142 A 
HETATM   26  C   UNL     1      43.947 -15.630   7.054  1.00  0.00     0.027 A 
HETATM   27  C   UNL     1      42.832 -15.307   6.247  1.00  0.00     0.036 A 
ENDBRANCH  22  23
ENDBRANCH  19  22
ENDBRANCH   1  18
BRANCH   1  28
HETATM   28  C   UNL     1      41.599 -14.687   0.072  1.00  0.00     0.075 C 
BRANCH  28  29
HETATM   29  C   UNL     1      40.390 -14.255  -0.712  1.00  0.00    -0.028 A 
HETATM   30  C   UNL     1      39.881 -14.841  -1.917  1.00  0.00    -0.002 A 
HETATM   31  C   UNL     1      38.728 -14.136  -2.268  1.00  0.00     0.042 A 
HETATM   32  C   UNL     1      40.294 -15.901  -2.751  1.00  0.00     0.014 A 
HETATM   33  C   UNL     1      37.960 -14.448  -3.396  1.00  0.00     0.030 A 
HETATM   34  N   UNL     1      38.562 -13.138  -1.338  1.00  0.00    -0.365 N 
HETATM   35  C   UNL     1      38.389 -15.508  -4.201  1.00  0.00     0.002 A 
HETATM   36  C   UNL     1      39.542 -16.222  -3.888  1.00  0.00     0.001 A 
HETATM   37  H   UNL     1      37.821 -12.449  -1.363  1.00  0.00     0.165 HD
HETATM   38  C   UNL     1      39.552 -13.201  -0.395  1.00  0.00     0.096 A 
ENDBRANCH  28  29
ENDBRANCH   1  28
TORSDOF 7
ENDMDL
