MODEL 1
REMARK VINA RESULT:      -8.8      0.000      0.000
REMARK  4 active torsions:
REMARK  status: ('A' for Active; 'I' for Inactive)
REMARK    1  A    between atoms: N_4  and  C_5 
REMARK    2  A    between atoms: C_13  and  C_14 
REMARK    3  A    between atoms: N_15  and  C_17 
REMARK    4  A    between atoms: C_17  and  C_18 
ROOT
HETATM    1  C   UNL     1      42.098 -12.366   4.649  1.00  0.00     0.095 C 
HETATM    2  C   UNL     1      41.762 -13.771   4.336  1.00  0.00     0.144 A 
HETATM    3  N   UNL     1      40.904 -14.127   3.375  1.00  0.00    -0.156 NA
HETATM    4  N   UNL     1      40.944 -15.469   3.435  1.00  0.00    -0.247 N 
HETATM    5  C   UNL     1      41.744 -15.891   4.475  1.00  0.00     0.156 A 
HETATM    6  N   UNL     1      42.269 -14.823   5.043  1.00  0.00    -0.215 NA
ENDROOT
BRANCH   5   7
HETATM    7  C   UNL     1      41.913 -17.307   4.958  1.00  0.00     0.259 C 
HETATM    8  N   UNL     1      43.318 -17.906   4.874  1.00  0.00    -0.056 N 
HETATM    9  H   UNL     1      43.236 -18.837   5.300  1.00  0.00     0.281 HD
HETATM   10  C   UNL     1      44.334 -17.201   5.744  1.00  0.00     0.236 C 
HETATM   11  C   UNL     1      43.884 -17.285   7.197  1.00  0.00     0.028 C 
HETATM   12  C   UNL     1      42.465 -16.770   7.406  1.00  0.00     0.004 C 
HETATM   13  C   UNL     1      41.474 -17.417   6.434  1.00  0.00     0.041 C 
BRANCH   8  14
HETATM   14  C   UNL     1      43.814 -18.231   3.481  1.00  0.00     0.274 C 
BRANCH  14  15
HETATM   15  C   UNL     1      44.030 -19.675   3.130  1.00  0.00    -0.033 A 
HETATM   16  C   UNL     1      44.671 -20.540   4.031  1.00  0.00     0.009 A 
HETATM   17  C   UNL     1      44.854 -21.887   3.716  1.00  0.00     0.001 A 
HETATM   18  C   UNL     1      44.393 -22.389   2.503  1.00  0.00     0.000 A 
HETATM   19  C   UNL     1      43.737 -21.549   1.607  1.00  0.00     0.001 A 
HETATM   20  C   UNL     1      43.551 -20.200   1.919  1.00  0.00     0.009 A 
ENDBRANCH  14  15
ENDBRANCH   8  14
ENDBRANCH   5   7
BRANCH   4  21
HETATM   21  C   UNL     1      40.156 -16.225   2.468  1.00  0.00     0.115 C 
HETATM   22  C   UNL     1      41.022 -17.039   1.486  1.00  0.00     0.055 C 
HETATM   23  C   UNL     1      41.618 -16.219   0.343  1.00  0.00     0.236 C 
HETATM   24  N   UNL     1      40.530 -15.429  -0.342  1.00  0.00    -0.075 N 
HETATM   25  H   UNL     1      39.853 -16.091  -0.748  1.00  0.00     0.279 HD
HETATM   26  C   UNL     1      41.083 -14.659  -1.521  1.00  0.00     0.269 C 
HETATM   27  C   UNL     1      39.806 -14.512   0.607  1.00  0.00     0.236 C 
HETATM   28  C   UNL     1      39.160 -15.333   1.717  1.00  0.00     0.055 C 
ENDBRANCH   4  21
TORSDOF 4
ENDMDL
MODEL 2
REMARK VINA RESULT:      -8.6      2.156      3.140
REMARK  4 active torsions:
REMARK  status: ('A' for Active; 'I' for Inactive)
REMARK    1  A    between atoms: N_4  and  C_5 
REMARK    2  A    between atoms: C_13  and  C_14 
REMARK    3  A    between atoms: N_15  and  C_17 
REMARK    4  A    between atoms: C_17  and  C_18 
ROOT
HETATM    1  C   UNL     1      45.580 -13.034   7.417  1.00  0.00     0.095 C 
HETATM    2  C   UNL     1      44.739 -13.932   6.599  1.00  0.00     0.144 A 
HETATM    3  N   UNL     1      44.197 -13.574   5.431  1.00  0.00    -0.156 NA
HETATM    4  N   UNL     1      43.565 -14.696   5.050  1.00  0.00    -0.247 N 
HETATM    5  C   UNL     1      43.659 -15.668   6.022  1.00  0.00     0.156 A 
HETATM    6  N   UNL     1      44.406 -15.194   7.000  1.00  0.00    -0.215 NA
ENDROOT
BRANCH   5   7
HETATM    7  C   UNL     1      42.953 -16.998   6.031  1.00  0.00     0.259 C 
HETATM    8  N   UNL     1      43.776 -18.224   5.631  1.00  0.00    -0.056 N 
HETATM    9  H   UNL     1      43.143 -19.022   5.760  1.00  0.00     0.281 HD
HETATM   10  C   UNL     1      44.922 -18.521   6.571  1.00  0.00     0.236 C 
HETATM   11  C   UNL     1      44.367 -18.775   7.967  1.00  0.00     0.028 C 
HETATM   12  C   UNL     1      43.472 -17.644   8.460  1.00  0.00     0.004 C 
HETATM   13  C   UNL     1      42.388 -17.286   7.439  1.00  0.00     0.041 C 
BRANCH   8  14
HETATM   14  C   UNL     1      44.134 -18.328   4.164  1.00  0.00     0.274 C 
BRANCH  14  15
HETATM   15  C   UNL     1      44.150 -19.693   3.539  1.00  0.00    -0.033 A 
HETATM   16  C   UNL     1      43.668 -19.887   2.235  1.00  0.00     0.009 A 
HETATM   17  C   UNL     1      43.701 -21.151   1.645  1.00  0.00     0.001 A 
HETATM   18  C   UNL     1      44.222 -22.234   2.344  1.00  0.00     0.000 A 
HETATM   19  C   UNL     1      44.722 -22.055   3.632  1.00  0.00     0.001 A 
HETATM   20  C   UNL     1      44.693 -20.792   4.225  1.00  0.00     0.009 A 
ENDBRANCH  14  15
ENDBRANCH   8  14
ENDBRANCH   5   7
BRANCH   4  21
HETATM   21  C   UNL     1      42.889 -14.701   3.757  1.00  0.00     0.115 C 
HETATM   22  C   UNL     1      42.814 -13.304   3.108  1.00  0.00     0.055 C 
HETATM   23  C   UNL     1      41.714 -12.406   3.670  1.00  0.00     0.236 C 
HETATM   24  N   UNL     1      40.395 -13.138   3.648  1.00  0.00    -0.075 N 
HETATM   25  H   UNL     1      40.157 -13.354   2.670  1.00  0.00     0.279 HD
HETATM   26  C   UNL     1      39.274 -12.247   4.138  1.00  0.00     0.269 C 
HETATM   27  C   UNL     1      40.442 -14.422   4.433  1.00  0.00     0.236 C 
HETATM   28  C   UNL     1      41.499 -15.345   3.839  1.00  0.00     0.055 C 
ENDBRANCH   4  21
TORSDOF 4
ENDMDL
MODEL 3
REMARK VINA RESULT:      -7.5      1.857      4.446
REMARK  4 active torsions:
REMARK  status: ('A' for Active; 'I' for Inactive)
REMARK    1  A    between atoms: N_4  and  C_5 
REMARK    2  A    between atoms: C_13  and  C_14 
REMARK    3  A    between atoms: N_15  and  C_17 
REMARK    4  A    between atoms: C_17  and  C_18 
ROOT
HETATM    1  C   UNL     1      42.122 -12.421   0.879  1.00  0.00     0.095 C 
HETATM    2  C   UNL     1      41.747 -13.464   1.857  1.00  0.00     0.144 A 
HETATM    3  N   UNL     1      41.280 -14.666   1.510  1.00  0.00    -0.156 NA
HETATM    4  N   UNL     1      41.116 -15.267   2.700  1.00  0.00    -0.247 N 
HETATM    5  C   UNL     1      41.396 -14.398   3.732  1.00  0.00     0.156 A 
HETATM    6  N   UNL     1      41.803 -13.259   3.206  1.00  0.00    -0.215 NA
ENDROOT
BRANCH   5   7
HETATM    7  C   UNL     1      41.180 -14.651   5.201  1.00  0.00     0.259 C 
HETATM    8  N   UNL     1      42.113 -13.930   6.175  1.00  0.00    -0.056 N 
HETATM    9  H   UNL     1      41.768 -14.181   7.109  1.00  0.00     0.281 HD
HETATM   10  C   UNL     1      41.984 -12.424   6.139  1.00  0.00     0.236 C 
HETATM   11  C   UNL     1      40.555 -12.040   6.501  1.00  0.00     0.028 C 
HETATM   12  C   UNL     1      39.518 -12.745   5.636  1.00  0.00     0.004 C 
HETATM   13  C   UNL     1      39.740 -14.260   5.597  1.00  0.00     0.041 C 
BRANCH   8  14
HETATM   14  C   UNL     1      43.542 -14.429   6.212  1.00  0.00     0.274 C 
BRANCH  14  15
HETATM   15  C   UNL     1      43.778 -15.857   6.610  1.00  0.00    -0.033 A 
HETATM   16  C   UNL     1      42.796 -16.574   7.313  1.00  0.00     0.009 A 
HETATM   17  C   UNL     1      43.004 -17.908   7.666  1.00  0.00     0.001 A 
HETATM   18  C   UNL     1      44.190 -18.545   7.315  1.00  0.00     0.000 A 
HETATM   19  C   UNL     1      45.166 -17.855   6.601  1.00  0.00     0.001 A 
HETATM   20  C   UNL     1      44.960 -16.520   6.244  1.00  0.00     0.009 A 
ENDBRANCH  14  15
ENDBRANCH   8  14
ENDBRANCH   5   7
BRANCH   4  21
HETATM   21  C   UNL     1      40.662 -16.654   2.716  1.00  0.00     0.115 C 
HETATM   22  C   UNL     1      41.183 -17.448   3.930  1.00  0.00     0.055 C 
HETATM   23  C   UNL     1      42.625 -17.932   3.794  1.00  0.00     0.236 C 
HETATM   24  N   UNL     1      42.797 -18.669   2.489  1.00  0.00    -0.075 N 
HETATM   25  H   UNL     1      42.186 -19.497   2.498  1.00  0.00     0.279 HD
HETATM   26  C   UNL     1      44.202 -19.217   2.359  1.00  0.00     0.269 C 
HETATM   27  C   UNL     1      42.443 -17.815   1.301  1.00  0.00     0.236 C 
HETATM   28  C   UNL     1      40.986 -17.378   1.403  1.00  0.00     0.055 C 
ENDBRANCH   4  21
TORSDOF 4
ENDMDL
MODEL 4
REMARK VINA RESULT:      -7.3      2.007      2.981
REMARK  4 active torsions:
REMARK  status: ('A' for Active; 'I' for Inactive)
REMARK    1  A    between atoms: N_4  and  C_5 
REMARK    2  A    between atoms: C_13  and  C_14 
REMARK    3  A    between atoms: N_15  and  C_17 
REMARK    4  A    between atoms: C_17  and  C_18 
ROOT
HETATM    1  C   UNL     1      40.728  -9.892   1.894  1.00  0.00     0.095 C 
HETATM    2  C   UNL     1      40.577 -11.352   2.071  1.00  0.00     0.144 A 
HETATM    3  N   UNL     1      39.774 -12.107   1.315  1.00  0.00    -0.156 NA
HETATM    4  N   UNL     1      39.988 -13.338   1.808  1.00  0.00    -0.247 N 
HETATM    5  C   UNL     1      40.833 -13.293   2.895  1.00  0.00     0.156 A 
HETATM    6  N   UNL     1      41.215 -12.041   3.061  1.00  0.00    -0.215 NA
ENDROOT
BRANCH   5   7
HETATM    7  C   UNL     1      41.184 -14.439   3.807  1.00  0.00     0.259 C 
HETATM    8  N   UNL     1      42.669 -14.767   3.970  1.00  0.00    -0.056 N 
HETATM    9  H   UNL     1      42.699 -15.523   4.665  1.00  0.00     0.281 HD
HETATM   10  C   UNL     1      43.471 -13.658   4.612  1.00  0.00     0.236 C 
HETATM   11  C   UNL     1      42.907 -13.376   5.999  1.00  0.00     0.028 C 
HETATM   12  C   UNL     1      41.409 -13.092   5.980  1.00  0.00     0.004 C 
HETATM   13  C   UNL     1      40.632 -14.174   5.224  1.00  0.00     0.041 C 
BRANCH   8  14
HETATM   14  C   UNL     1      43.340 -15.403   2.771  1.00  0.00     0.274 C 
BRANCH  14  15
HETATM   15  C   UNL     1      43.534 -16.892   2.782  1.00  0.00    -0.033 A 
HETATM   16  C   UNL     1      43.596 -17.595   3.996  1.00  0.00     0.009 A 
HETATM   17  C   UNL     1      43.756 -18.981   4.008  1.00  0.00     0.001 A 
HETATM   18  C   UNL     1      43.847 -19.684   2.811  1.00  0.00     0.000 A 
HETATM   19  C   UNL     1      43.767 -19.004   1.598  1.00  0.00     0.001 A 
HETATM   20  C   UNL     1      43.605 -17.617   1.582  1.00  0.00     0.009 A 
ENDBRANCH  14  15
ENDBRANCH   8  14
ENDBRANCH   5   7
BRANCH   4  21
HETATM   21  C   UNL     1      39.306 -14.462   1.175  1.00  0.00     0.115 C 
HETATM   22  C   UNL     1      40.236 -15.663   0.909  1.00  0.00     0.055 C 
HETATM   23  C   UNL     1      41.119 -15.514  -0.328  1.00  0.00     0.236 C 
HETATM   24  N   UNL     1      40.272 -15.148  -1.521  1.00  0.00    -0.075 N 
HETATM   25  H   UNL     1      39.608 -15.915  -1.697  1.00  0.00     0.279 HD
HETATM   26  C   UNL     1      41.115 -15.060  -2.775  1.00  0.00     0.269 C 
HETATM   27  C   UNL     1      39.499 -13.875  -1.303  1.00  0.00     0.236 C 
HETATM   28  C   UNL     1      38.572 -14.040  -0.104  1.00  0.00     0.055 C 
ENDBRANCH   4  21
TORSDOF 4
ENDMDL
MODEL 5
REMARK VINA RESULT:      -7.2      2.175      4.020
REMARK  4 active torsions:
REMARK  status: ('A' for Active; 'I' for Inactive)
REMARK    1  A    between atoms: N_4  and  C_5 
REMARK    2  A    between atoms: C_13  and  C_14 
REMARK    3  A    between atoms: N_15  and  C_17 
REMARK    4  A    between atoms: C_17  and  C_18 
ROOT
HETATM    1  C   UNL     1      41.305 -15.035  -2.493  1.00  0.00     0.095 C 
HETATM    2  C   UNL     1      40.839 -15.052  -1.090  1.00  0.00     0.144 A 
HETATM    3  N   UNL     1      39.857 -14.272  -0.630  1.00  0.00    -0.156 NA
HETATM    4  N   UNL     1      39.764 -14.653   0.655  1.00  0.00    -0.247 N 
HETATM    5  C   UNL     1      40.738 -15.577   0.965  1.00  0.00     0.156 A 
HETATM    6  N   UNL     1      41.415 -15.839  -0.135  1.00  0.00    -0.215 NA
ENDROOT
BRANCH   5   7
HETATM    7  C   UNL     1      41.055 -16.120   2.333  1.00  0.00     0.259 C 
HETATM    8  N   UNL     1      42.359 -16.904   2.485  1.00  0.00    -0.056 N 
HETATM    9  H   UNL     1      42.419 -17.130   3.485  1.00  0.00     0.281 HD
HETATM   10  C   UNL     1      43.599 -16.078   2.230  1.00  0.00     0.236 C 
HETATM   11  C   UNL     1      43.638 -14.923   3.223  1.00  0.00     0.028 C 
HETATM   12  C   UNL     1      42.359 -14.093   3.213  1.00  0.00     0.004 C 
HETATM   13  C   UNL     1      41.110 -14.968   3.359  1.00  0.00     0.041 C 
BRANCH   8  14
HETATM   14  C   UNL     1      42.384 -18.274   1.841  1.00  0.00     0.274 C 
BRANCH  14  15
HETATM   15  C   UNL     1      43.215 -19.342   2.493  1.00  0.00    -0.033 A 
HETATM   16  C   UNL     1      43.471 -20.552   1.829  1.00  0.00     0.009 A 
HETATM   17  C   UNL     1      44.260 -21.537   2.424  1.00  0.00     0.001 A 
HETATM   18  C   UNL     1      44.810 -21.324   3.684  1.00  0.00     0.000 A 
HETATM   19  C   UNL     1      44.583 -20.121   4.348  1.00  0.00     0.001 A 
HETATM   20  C   UNL     1      43.795 -19.132   3.754  1.00  0.00     0.009 A 
ENDBRANCH  14  15
ENDBRANCH   8  14
ENDBRANCH   5   7
BRANCH   4  21
HETATM   21  C   UNL     1      38.730 -14.040   1.482  1.00  0.00     0.115 C 
HETATM   22  C   UNL     1      37.360 -13.962   0.778  1.00  0.00     0.055 C 
HETATM   23  C   UNL     1      37.230 -12.812  -0.220  1.00  0.00     0.236 C 
HETATM   24  N   UNL     1      37.631 -11.515   0.438  1.00  0.00    -0.075 N 
HETATM   25  H   UNL     1      36.985 -11.331   1.218  1.00  0.00     0.279 HD
HETATM   26  C   UNL     1      37.447 -10.349  -0.509  1.00  0.00     0.269 C 
HETATM   27  C   UNL     1      39.039 -11.557   0.971  1.00  0.00     0.236 C 
HETATM   28  C   UNL     1      39.157 -12.666   2.011  1.00  0.00     0.055 C 
ENDBRANCH   4  21
TORSDOF 4
ENDMDL
MODEL 6
REMARK VINA RESULT:      -7.2      2.577      4.580
REMARK  4 active torsions:
REMARK  status: ('A' for Active; 'I' for Inactive)
REMARK    1  A    between atoms: N_4  and  C_5 
REMARK    2  A    between atoms: C_13  and  C_14 
REMARK    3  A    between atoms: N_15  and  C_17 
REMARK    4  A    between atoms: C_17  and  C_18 
ROOT
HETATM    1  C   UNL     1      43.160 -10.537  -0.782  1.00  0.00     0.095 C 
HETATM    2  C   UNL     1      42.365 -11.723  -0.399  1.00  0.00     0.144 A 
HETATM    3  N   UNL     1      41.481 -12.311  -1.211  1.00  0.00    -0.156 NA
HETATM    4  N   UNL     1      41.044 -13.339  -0.465  1.00  0.00    -0.247 N 
HETATM    5  C   UNL     1      41.596 -13.300   0.797  1.00  0.00     0.156 A 
HETATM    6  N   UNL     1      42.437 -12.285   0.842  1.00  0.00    -0.215 NA
ENDROOT
BRANCH   5   7
HETATM    7  C   UNL     1      41.234 -14.184   1.962  1.00  0.00     0.259 C 
HETATM    8  N   UNL     1      42.231 -14.251   3.119  1.00  0.00    -0.056 N 
HETATM    9  H   UNL     1      41.780 -14.845   3.825  1.00  0.00     0.281 HD
HETATM   10  C   UNL     1      42.426 -12.932   3.833  1.00  0.00     0.236 C 
HETATM   11  C   UNL     1      41.089 -12.475   4.403  1.00  0.00     0.028 C 
HETATM   12  C   UNL     1      39.986 -12.425   3.352  1.00  0.00     0.004 C 
HETATM   13  C   UNL     1      39.886 -13.736   2.565  1.00  0.00     0.041 C 
BRANCH   8  14
HETATM   14  C   UNL     1      43.517 -15.000   2.840  1.00  0.00     0.274 C 
BRANCH  14  15
HETATM   15  C   UNL     1      43.460 -16.499   2.784  1.00  0.00    -0.033 A 
HETATM   16  C   UNL     1      43.835 -17.185   1.618  1.00  0.00     0.009 A 
HETATM   17  C   UNL     1      43.801 -18.579   1.571  1.00  0.00     0.001 A 
HETATM   18  C   UNL     1      43.403 -19.306   2.688  1.00  0.00     0.000 A 
HETATM   19  C   UNL     1      43.047 -18.642   3.859  1.00  0.00     0.001 A 
HETATM   20  C   UNL     1      43.080 -17.246   3.911  1.00  0.00     0.009 A 
ENDBRANCH  14  15
ENDBRANCH   8  14
ENDBRANCH   5   7
BRANCH   4  21
HETATM   21  C   UNL     1      40.084 -14.263  -1.060  1.00  0.00     0.115 C 
HETATM   22  C   UNL     1      40.250 -14.409  -2.586  1.00  0.00     0.055 C 
HETATM   23  C   UNL     1      39.641 -13.267  -3.398  1.00  0.00     0.236 C 
HETATM   24  N   UNL     1      38.208 -13.048  -2.978  1.00  0.00    -0.075 N 
HETATM   25  H   UNL     1      37.673 -13.903  -3.184  1.00  0.00     0.279 HD
HETATM   26  C   UNL     1      37.560 -11.966  -3.814  1.00  0.00     0.269 C 
HETATM   27  C   UNL     1      38.085 -12.738  -1.510  1.00  0.00     0.236 C 
HETATM   28  C   UNL     1      38.639 -13.902  -0.695  1.00  0.00     0.055 C 
ENDBRANCH   4  21
TORSDOF 4
ENDMDL
MODEL 7
REMARK VINA RESULT:      -7.2      1.883      5.438
REMARK  4 active torsions:
REMARK  status: ('A' for Active; 'I' for Inactive)
REMARK    1  A    between atoms: N_4  and  C_5 
REMARK    2  A    between atoms: C_13  and  C_14 
REMARK    3  A    between atoms: N_15  and  C_17 
REMARK    4  A    between atoms: C_17  and  C_18 
ROOT
HETATM    1  C   UNL     1      39.400 -12.634   6.365  1.00  0.00     0.095 C 
HETATM    2  C   UNL     1      40.163 -13.475   5.418  1.00  0.00     0.144 A 
HETATM    3  N   UNL     1      40.704 -14.651   5.748  1.00  0.00    -0.156 NA
HETATM    4  N   UNL     1      41.251 -15.053   4.588  1.00  0.00    -0.247 N 
HETATM    5  C   UNL     1      41.111 -14.084   3.618  1.00  0.00     0.156 A 
HETATM    6  N   UNL     1      40.417 -13.088   4.134  1.00  0.00    -0.215 NA
ENDROOT
BRANCH   5   7
HETATM    7  C   UNL     1      41.725 -14.097   2.243  1.00  0.00     0.259 C 
HETATM    8  N   UNL     1      40.871 -14.660   1.106  1.00  0.00    -0.056 N 
HETATM    9  H   UNL     1      41.435 -14.525   0.258  1.00  0.00     0.281 HD
HETATM   10  C   UNL     1      39.617 -13.860   0.833  1.00  0.00     0.236 C 
HETATM   11  C   UNL     1      40.009 -12.438   0.454  1.00  0.00     0.028 C 
HETATM   12  C   UNL     1      40.919 -11.782   1.486  1.00  0.00     0.004 C 
HETATM   13  C   UNL     1      42.123 -12.664   1.830  1.00  0.00     0.041 C 
BRANCH   8  14
HETATM   14  C   UNL     1      40.659 -16.159   1.119  1.00  0.00     0.274 C 
BRANCH  14  15
HETATM   15  C   UNL     1      41.852 -17.035   1.373  1.00  0.00    -0.033 A 
HETATM   16  C   UNL     1      41.687 -18.351   1.834  1.00  0.00     0.009 A 
HETATM   17  C   UNL     1      42.793 -19.173   2.050  1.00  0.00     0.001 A 
HETATM   18  C   UNL     1      44.076 -18.697   1.802  1.00  0.00     0.000 A 
HETATM   19  C   UNL     1      44.257 -17.401   1.325  1.00  0.00     0.001 A 
HETATM   20  C   UNL     1      43.152 -16.575   1.106  1.00  0.00     0.009 A 
ENDBRANCH  14  15
ENDBRANCH   8  14
ENDBRANCH   5   7
BRANCH   4  21
HETATM   21  C   UNL     1      41.899 -16.359   4.548  1.00  0.00     0.115 C 
HETATM   22  C   UNL     1      41.221 -17.400   5.462  1.00  0.00     0.055 C 
HETATM   23  C   UNL     1      41.589 -17.273   6.940  1.00  0.00     0.236 C 
HETATM   24  N   UNL     1      43.089 -17.240   7.093  1.00  0.00    -0.075 N 
HETATM   25  H   UNL     1      43.472 -18.131   6.747  1.00  0.00     0.279 HD
HETATM   26  C   UNL     1      43.481 -17.183   8.554  1.00  0.00     0.269 C 
HETATM   27  C   UNL     1      43.717 -16.108   6.324  1.00  0.00     0.236 C 
HETATM   28  C   UNL     1      43.401 -16.263   4.841  1.00  0.00     0.055 C 
ENDBRANCH   4  21
TORSDOF 4
ENDMDL
MODEL 8
REMARK VINA RESULT:      -7.0      1.972      4.957
REMARK  4 active torsions:
REMARK  status: ('A' for Active; 'I' for Inactive)
REMARK    1  A    between atoms: N_4  and  C_5 
REMARK    2  A    between atoms: C_13  and  C_14 
REMARK    3  A    between atoms: N_15  and  C_17 
REMARK    4  A    between atoms: C_17  and  C_18 
ROOT
HETATM    1  C   UNL     1      39.485 -14.385   0.188  1.00  0.00     0.095 C 
HETATM    2  C   UNL     1      40.238 -14.708   1.418  1.00  0.00     0.144 A 
HETATM    3  N   UNL     1      39.993 -14.140   2.602  1.00  0.00    -0.156 NA
HETATM    4  N   UNL     1      40.876 -14.755   3.406  1.00  0.00    -0.247 N 
HETATM    5  C   UNL     1      41.688 -15.604   2.686  1.00  0.00     0.156 A 
HETATM    6  N   UNL     1      41.284 -15.584   1.430  1.00  0.00    -0.215 NA
ENDROOT
BRANCH   5   7
HETATM    7  C   UNL     1      42.891 -16.347   3.202  1.00  0.00     0.259 C 
HETATM    8  N   UNL     1      42.674 -17.790   3.660  1.00  0.00    -0.056 N 
HETATM    9  H   UNL     1      43.609 -18.132   3.912  1.00  0.00     0.281 HD
HETATM   10  C   UNL     1      42.239 -18.721   2.551  1.00  0.00     0.236 C 
HETATM   11  C   UNL     1      43.311 -18.737   1.468  1.00  0.00     0.028 C 
HETATM   12  C   UNL     1      43.665 -17.342   0.967  1.00  0.00     0.004 C 
HETATM   13  C   UNL     1      43.991 -16.387   2.120  1.00  0.00     0.041 C 
BRANCH   8  14
HETATM   14  C   UNL     1      41.905 -17.964   4.953  1.00  0.00     0.274 C 
BRANCH  14  15
HETATM   15  C   UNL     1      42.692 -18.148   6.219  1.00  0.00    -0.033 A 
HETATM   16  C   UNL     1      43.504 -19.279   6.396  1.00  0.00     0.009 A 
HETATM   17  C   UNL     1      44.251 -19.442   7.563  1.00  0.00     0.001 A 
HETATM   18  C   UNL     1      44.204 -18.475   8.563  1.00  0.00     0.000 A 
HETATM   19  C   UNL     1      43.419 -17.338   8.394  1.00  0.00     0.001 A 
HETATM   20  C   UNL     1      42.671 -17.171   7.226  1.00  0.00     0.009 A 
ENDBRANCH  14  15
ENDBRANCH   8  14
ENDBRANCH   5   7
BRANCH   4  21
HETATM   21  C   UNL     1      40.862 -14.423   4.827  1.00  0.00     0.115 C 
HETATM   22  C   UNL     1      39.546 -13.761   5.281  1.00  0.00     0.055 C 
HETATM   23  C   UNL     1      39.439 -12.275   4.942  1.00  0.00     0.236 C 
HETATM   24  N   UNL     1      40.666 -11.548   5.434  1.00  0.00    -0.075 N 
HETATM   25  H   UNL     1      40.709 -11.636   6.459  1.00  0.00     0.279 HD
HETATM   26  C   UNL     1      40.555 -10.061   5.170  1.00  0.00     0.269 C 
HETATM   27  C   UNL     1      41.934 -12.104   4.843  1.00  0.00     0.236 C 
HETATM   28  C   UNL     1      42.074 -13.573   5.229  1.00  0.00     0.055 C 
ENDBRANCH   4  21
TORSDOF 4
ENDMDL
MODEL 9
REMARK VINA RESULT:      -6.9      2.910      6.199
REMARK  4 active torsions:
REMARK  status: ('A' for Active; 'I' for Inactive)
REMARK    1  A    between atoms: N_4  and  C_5 
REMARK    2  A    between atoms: C_13  and  C_14 
REMARK    3  A    between atoms: N_15  and  C_17 
REMARK    4  A    between atoms: C_17  and  C_18 
ROOT
HETATM    1  C   UNL     1      36.965 -12.517   0.166  1.00  0.00     0.095 C 
HETATM    2  C   UNL     1      38.403 -12.700   0.454  1.00  0.00     0.144 A 
HETATM    3  N   UNL     1      39.050 -12.045   1.422  1.00  0.00    -0.156 NA
HETATM    4  N   UNL     1      40.292 -12.549   1.332  1.00  0.00    -0.247 N 
HETATM    5  C   UNL     1      40.393 -13.419   0.268  1.00  0.00     0.156 A 
HETATM    6  N   UNL     1      39.201 -13.524  -0.286  1.00  0.00    -0.215 NA
ENDROOT
BRANCH   5   7
HETATM    7  C   UNL     1      41.654 -14.059  -0.249  1.00  0.00     0.259 C 
HETATM    8  N   UNL     1      41.502 -15.377  -1.012  1.00  0.00    -0.056 N 
HETATM    9  H   UNL     1      42.450 -15.612  -1.328  1.00  0.00     0.281 HD
HETATM   10  C   UNL     1      40.718 -15.248  -2.298  1.00  0.00     0.236 C 
HETATM   11  C   UNL     1      41.430 -14.264  -3.217  1.00  0.00     0.028 C 
HETATM   12  C   UNL     1      41.698 -12.920  -2.549  1.00  0.00     0.004 C 
HETATM   13  C   UNL     1      42.392 -13.085  -1.193  1.00  0.00     0.041 C 
BRANCH   8  14
HETATM   14  C   UNL     1      41.130 -16.583  -0.177  1.00  0.00     0.274 C 
BRANCH  14  15
HETATM   15  C   UNL     1      41.997 -16.917   1.003  1.00  0.00    -0.033 A 
HETATM   16  C   UNL     1      41.467 -16.910   2.303  1.00  0.00     0.009 A 
HETATM   17  C   UNL     1      42.266 -17.240   3.398  1.00  0.00     0.001 A 
HETATM   18  C   UNL     1      43.600 -17.588   3.209  1.00  0.00     0.000 A 
HETATM   19  C   UNL     1      44.136 -17.618   1.924  1.00  0.00     0.001 A 
HETATM   20  C   UNL     1      43.339 -17.291   0.825  1.00  0.00     0.009 A 
ENDBRANCH  14  15
ENDBRANCH   8  14
ENDBRANCH   5   7
BRANCH   4  21
HETATM   21  C   UNL     1      41.290 -12.099   2.296  1.00  0.00     0.115 C 
HETATM   22  C   UNL     1      41.851 -13.243   3.166  1.00  0.00     0.055 C 
HETATM   23  C   UNL     1      40.940 -13.662   4.318  1.00  0.00     0.236 C 
HETATM   24  N   UNL     1      40.541 -12.450   5.123  1.00  0.00    -0.075 N 
HETATM   25  H   UNL     1      41.390 -12.032   5.527  1.00  0.00     0.279 HD
HETATM   26  C   UNL     1      39.691 -12.846   6.311  1.00  0.00     0.269 C 
HETATM   27  C   UNL     1      39.840 -11.414   4.284  1.00  0.00     0.236 C 
HETATM   28  C   UNL     1      40.768 -10.950   3.167  1.00  0.00     0.055 C 
ENDBRANCH   4  21
TORSDOF 4
ENDMDL
MODEL 10
REMARK VINA RESULT:      -6.9      1.642      6.193
REMARK  4 active torsions:
REMARK  status: ('A' for Active; 'I' for Inactive)
REMARK    1  A    between atoms: N_4  and  C_5 
REMARK    2  A    between atoms: C_13  and  C_14 
REMARK    3  A    between atoms: N_15  and  C_17 
REMARK    4  A    between atoms: C_17  and  C_18 
ROOT
HETATM    1  C   UNL     1      40.263 -17.192   6.358  1.00  0.00     0.095 C 
HETATM    2  C   UNL     1      41.249 -16.846   5.313  1.00  0.00     0.144 A 
HETATM    3  N   UNL     1      42.360 -17.553   5.084  1.00  0.00    -0.156 NA
HETATM    4  N   UNL     1      42.911 -16.898   4.049  1.00  0.00    -0.247 N 
HETATM    5  C   UNL     1      42.181 -15.772   3.735  1.00  0.00     0.156 A 
HETATM    6  N   UNL     1      41.126 -15.738   4.526  1.00  0.00    -0.215 NA
ENDROOT
BRANCH   5   7
HETATM    7  C   UNL     1      42.562 -14.704   2.744  1.00  0.00     0.259 C 
HETATM    8  N   UNL     1      41.466 -14.211   1.798  1.00  0.00    -0.056 N 
HETATM    9  H   UNL     1      41.903 -13.456   1.256  1.00  0.00     0.281 HD
HETATM   10  C   UNL     1      40.317 -13.526   2.504  1.00  0.00     0.236 C 
HETATM   11  C   UNL     1      40.851 -12.316   3.261  1.00  0.00     0.028 C 
HETATM   12  C   UNL     1      41.999 -12.668   4.200  1.00  0.00     0.004 C 
HETATM   13  C   UNL     1      43.097 -13.462   3.487  1.00  0.00     0.041 C 
BRANCH   8  14
HETATM   14  C   UNL     1      41.040 -15.182   0.718  1.00  0.00     0.274 C 
BRANCH  14  15
HETATM   15  C   UNL     1      41.271 -14.788  -0.712  1.00  0.00    -0.033 A 
HETATM   16  C   UNL     1      40.875 -15.636  -1.759  1.00  0.00     0.009 A 
HETATM   17  C   UNL     1      41.071 -15.263  -3.089  1.00  0.00     0.001 A 
HETATM   18  C   UNL     1      41.656 -14.037  -3.391  1.00  0.00     0.000 A 
HETATM   19  C   UNL     1      42.036 -13.176  -2.365  1.00  0.00     0.001 A 
HETATM   20  C   UNL     1      41.840 -13.545  -1.033  1.00  0.00     0.009 A 
ENDBRANCH  14  15
ENDBRANCH   8  14
ENDBRANCH   5   7
BRANCH   4  21
HETATM   21  C   UNL     1      44.141 -17.431   3.473  1.00  0.00     0.115 C 
HETATM   22  C   UNL     1      44.050 -17.654   1.950  1.00  0.00     0.055 C 
HETATM   23  C   UNL     1      43.318 -18.931   1.544  1.00  0.00     0.236 C 
HETATM   24  N   UNL     1      43.902 -20.112   2.280  1.00  0.00    -0.075 N 
HETATM   25  H   UNL     1      44.888 -20.212   2.005  1.00  0.00     0.279 HD
HETATM   26  C   UNL     1      43.238 -21.401   1.845  1.00  0.00     0.269 C 
HETATM   27  C   UNL     1      43.826 -19.947   3.774  1.00  0.00     0.236 C 
HETATM   28  C   UNL     1      44.605 -18.704   4.190  1.00  0.00     0.055 C 
ENDBRANCH   4  21
TORSDOF 4
ENDMDL
