MODEL 1
REMARK VINA RESULT:      -7.8      0.000      0.000
REMARK  3 active torsions:
REMARK  status: ('A' for Active; 'I' for Inactive)
REMARK    1  A    between atoms: C_3  and  N_4 
REMARK       I    between atoms: N_4  and  C_5 
REMARK       I    between atoms: C_5  and  N_6 
REMARK    2  A    between atoms: N_6  and  C_7 
REMARK    3  A    between atoms: C_7  and  C_8 
ROOT
HETATM    1  C   UNL     1      43.335 -17.753   2.640  1.00  0.00    -0.036 A 
HETATM    2  C   UNL     1      43.969 -18.191   3.811  1.00  0.00     0.011 A 
HETATM    3  C   UNL     1      44.342 -19.531   3.965  1.00  0.00     0.023 A 
HETATM    4  C   UNL     1      44.082 -20.458   2.953  1.00  0.00     0.044 A 
HETATM    5  C   UNL     1      44.471 -21.828   3.109  1.00  0.00     0.099 C 
HETATM    6  N   UNL     1      44.790 -22.937   3.233  1.00  0.00    -0.191 NA
HETATM    7  C   UNL     1      43.440 -20.040   1.786  1.00  0.00     0.023 A 
HETATM    8  C   UNL     1      43.069 -18.702   1.633  1.00  0.00     0.011 A 
ENDROOT
BRANCH   1   9
HETATM    9  C   UNL     1      42.919 -16.312   2.399  1.00  0.00     0.115 C 
HETATM   10  C   UNL     1      43.216 -15.330   3.537  1.00  0.00     0.037 C 
BRANCH   9  11
HETATM   11  N   UNL     1      41.494 -16.267   2.082  1.00  0.00    -0.335 N 
HETATM   12  C   UNL     1      40.918 -15.644   1.011  1.00  0.00     0.321 C 
HETATM   13  N   UNL     1      41.668 -15.654  -0.131  1.00  0.00    -0.307 N 
HETATM   14  O   UNL     1      39.795 -15.171   1.141  1.00  0.00    -0.247 OA
HETATM   15  H   UNL     1      42.346 -16.395  -0.181  1.00  0.00     0.170 HD
HETATM   16  H   UNL     1      40.871 -16.260   2.881  1.00  0.00     0.165 HD
BRANCH  13  17
HETATM   17  C   UNL     1      41.396 -14.961  -1.332  1.00  0.00     0.059 A 
HETATM   18  C   UNL     1      41.596 -13.569  -1.389  1.00  0.00    -0.032 A 
HETATM   19  C   UNL     1      42.141 -12.780  -0.230  1.00  0.00     0.050 C 
HETATM   20  C   UNL     1      41.302 -12.894  -2.582  1.00  0.00     0.028 A 
HETATM   21  C   UNL     1      40.812 -13.612  -3.660  1.00  0.00     0.117 A 
HETATM   22  N   UNL     1      40.597 -14.940  -3.635  1.00  0.00    -0.271 NA
HETATM   23  C   UNL     1      40.896 -15.584  -2.478  1.00  0.00     0.146 A 
ENDBRANCH  13  17
ENDBRANCH   9  11
ENDBRANCH   1   9
TORSDOF 3
ENDMDL
MODEL 2
REMARK VINA RESULT:      -7.7      3.401      4.162
REMARK  3 active torsions:
REMARK  status: ('A' for Active; 'I' for Inactive)
REMARK    1  A    between atoms: C_3  and  N_4 
REMARK       I    between atoms: N_4  and  C_5 
REMARK       I    between atoms: C_5  and  N_6 
REMARK    2  A    between atoms: N_6  and  C_7 
REMARK    3  A    between atoms: C_7  and  C_8 
ROOT
HETATM    1  C   UNL     1      43.857 -17.891   4.702  1.00  0.00    -0.036 A 
HETATM    2  C   UNL     1      43.636 -17.910   3.317  1.00  0.00     0.011 A 
HETATM    3  C   UNL     1      43.838 -19.079   2.576  1.00  0.00     0.023 A 
HETATM    4  C   UNL     1      44.270 -20.249   3.205  1.00  0.00     0.044 A 
HETATM    5  C   UNL     1      44.471 -21.448   2.445  1.00  0.00     0.099 C 
HETATM    6  N   UNL     1      44.628 -22.420   1.831  1.00  0.00    -0.191 NA
HETATM    7  C   UNL     1      44.507 -20.244   4.580  1.00  0.00     0.023 A 
HETATM    8  C   UNL     1      44.304 -19.076   5.320  1.00  0.00     0.011 A 
ENDROOT
BRANCH   1   9
HETATM    9  C   UNL     1      43.641 -16.663   5.570  1.00  0.00     0.115 C 
HETATM   10  C   UNL     1      44.601 -16.504   6.753  1.00  0.00     0.037 C 
BRANCH   9  11
HETATM   11  N   UNL     1      42.265 -16.652   6.059  1.00  0.00    -0.335 N 
HETATM   12  C   UNL     1      41.225 -15.930   5.547  1.00  0.00     0.321 C 
HETATM   13  N   UNL     1      41.259 -15.755   4.192  1.00  0.00    -0.307 N 
HETATM   14  O   UNL     1      40.352 -15.535   6.310  1.00  0.00    -0.247 OA
HETATM   15  H   UNL     1      41.791 -16.448   3.694  1.00  0.00     0.170 HD
HETATM   16  H   UNL     1      42.158 -16.779   7.059  1.00  0.00     0.165 HD
BRANCH  13  17
HETATM   17  C   UNL     1      40.411 -14.931   3.420  1.00  0.00     0.059 A 
HETATM   18  C   UNL     1      39.840 -15.438   2.237  1.00  0.00    -0.032 A 
HETATM   19  C   UNL     1      40.054 -16.854   1.777  1.00  0.00     0.050 C 
HETATM   20  C   UNL     1      39.017 -14.600   1.472  1.00  0.00     0.028 A 
HETATM   21  C   UNL     1      38.803 -13.298   1.893  1.00  0.00     0.117 A 
HETATM   22  N   UNL     1      39.343 -12.778   3.011  1.00  0.00    -0.271 NA
HETATM   23  C   UNL     1      40.129 -13.603   3.749  1.00  0.00     0.146 A 
ENDBRANCH  13  17
ENDBRANCH   9  11
ENDBRANCH   1   9
TORSDOF 3
ENDMDL
MODEL 3
REMARK VINA RESULT:      -7.4      1.875      2.687
REMARK  3 active torsions:
REMARK  status: ('A' for Active; 'I' for Inactive)
REMARK    1  A    between atoms: C_3  and  N_4 
REMARK       I    between atoms: N_4  and  C_5 
REMARK       I    between atoms: C_5  and  N_6 
REMARK    2  A    between atoms: N_6  and  C_7 
REMARK    3  A    between atoms: C_7  and  C_8 
ROOT
HETATM    1  C   UNL     1      43.405 -17.687   3.839  1.00  0.00    -0.036 A 
HETATM    2  C   UNL     1      43.079 -18.081   2.533  1.00  0.00     0.011 A 
HETATM    3  C   UNL     1      43.416 -19.357   2.066  1.00  0.00     0.023 A 
HETATM    4  C   UNL     1      44.090 -20.258   2.894  1.00  0.00     0.044 A 
HETATM    5  C   UNL     1      44.428 -21.565   2.416  1.00  0.00     0.099 C 
HETATM    6  N   UNL     1      44.698 -22.627   2.031  1.00  0.00    -0.191 NA
HETATM    7  C   UNL     1      44.433 -19.875   4.191  1.00  0.00     0.023 A 
HETATM    8  C   UNL     1      44.096 -18.602   4.657  1.00  0.00     0.011 A 
ENDROOT
BRANCH   1   9
HETATM    9  C   UNL     1      43.055 -16.325   4.416  1.00  0.00     0.115 C 
HETATM   10  C   UNL     1      43.313 -16.149   5.916  1.00  0.00     0.037 C 
BRANCH   9  11
HETATM   11  N   UNL     1      41.657 -16.022   4.127  1.00  0.00    -0.335 N 
HETATM   12  C   UNL     1      41.192 -15.066   3.269  1.00  0.00     0.321 C 
HETATM   13  N   UNL     1      41.971 -14.856   2.166  1.00  0.00    -0.307 N 
HETATM   14  O   UNL     1      40.130 -14.512   3.526  1.00  0.00    -0.247 OA
HETATM   15  H   UNL     1      42.557 -15.633   1.913  1.00  0.00     0.170 HD
HETATM   16  H   UNL     1      41.014 -16.157   4.899  1.00  0.00     0.165 HD
BRANCH  13  17
HETATM   17  C   UNL     1      41.821 -13.835   1.201  1.00  0.00     0.059 A 
HETATM   18  C   UNL     1      41.490 -14.177  -0.123  1.00  0.00    -0.032 A 
HETATM   19  C   UNL     1      41.237 -15.595  -0.556  1.00  0.00     0.050 C 
HETATM   20  C   UNL     1      41.365 -13.153  -1.073  1.00  0.00     0.028 A 
HETATM   21  C   UNL     1      41.584 -11.842  -0.683  1.00  0.00     0.117 A 
HETATM   22  N   UNL     1      41.914 -11.482   0.570  1.00  0.00    -0.271 NA
HETATM   23  C   UNL     1      42.021 -12.482   1.483  1.00  0.00     0.146 A 
ENDBRANCH  13  17
ENDBRANCH   9  11
ENDBRANCH   1   9
TORSDOF 3
ENDMDL
MODEL 4
REMARK VINA RESULT:      -7.3      3.272      6.845
REMARK  3 active torsions:
REMARK  status: ('A' for Active; 'I' for Inactive)
REMARK    1  A    between atoms: C_3  and  N_4 
REMARK       I    between atoms: N_4  and  C_5 
REMARK       I    between atoms: C_5  and  N_6 
REMARK    2  A    between atoms: N_6  and  C_7 
REMARK    3  A    between atoms: C_7  and  C_8 
ROOT
HETATM    1  C   UNL     1      42.345 -15.379   3.608  1.00  0.00    -0.036 A 
HETATM    2  C   UNL     1      41.976 -15.872   4.868  1.00  0.00     0.011 A 
HETATM    3  C   UNL     1      42.618 -15.426   6.028  1.00  0.00     0.023 A 
HETATM    4  C   UNL     1      43.645 -14.482   5.948  1.00  0.00     0.044 A 
HETATM    5  C   UNL     1      44.298 -14.020   7.138  1.00  0.00     0.099 C 
HETATM    6  N   UNL     1      44.823 -13.643   8.102  1.00  0.00    -0.191 NA
HETATM    7  C   UNL     1      44.033 -13.990   4.701  1.00  0.00     0.023 A 
HETATM    8  C   UNL     1      43.391 -14.437   3.543  1.00  0.00     0.011 A 
ENDROOT
BRANCH   1   9
HETATM    9  C   UNL     1      41.680 -15.806   2.311  1.00  0.00     0.115 C 
HETATM   10  C   UNL     1      40.583 -16.867   2.440  1.00  0.00     0.037 C 
BRANCH   9  11
HETATM   11  N   UNL     1      42.699 -16.275   1.377  1.00  0.00    -0.335 N 
HETATM   12  C   UNL     1      43.476 -17.391   1.512  1.00  0.00     0.321 C 
HETATM   13  N   UNL     1      42.863 -18.445   2.131  1.00  0.00    -0.307 N 
HETATM   14  O   UNL     1      44.612 -17.376   1.054  1.00  0.00    -0.247 OA
HETATM   15  H   UNL     1      41.859 -18.434   2.081  1.00  0.00     0.170 HD
HETATM   16  H   UNL     1      43.197 -15.549   0.876  1.00  0.00     0.165 HD
BRANCH  13  17
HETATM   17  C   UNL     1      43.465 -19.656   2.540  1.00  0.00     0.059 A 
HETATM   18  C   UNL     1      44.177 -19.700   3.753  1.00  0.00    -0.032 A 
HETATM   19  C   UNL     1      44.287 -18.515   4.672  1.00  0.00     0.050 C 
HETATM   20  C   UNL     1      44.786 -20.904   4.135  1.00  0.00     0.028 A 
HETATM   21  C   UNL     1      44.681 -22.006   3.303  1.00  0.00     0.117 A 
HETATM   22  N   UNL     1      44.019 -21.995   2.132  1.00  0.00    -0.271 NA
HETATM   23  C   UNL     1      43.425 -20.826   1.778  1.00  0.00     0.146 A 
ENDBRANCH  13  17
ENDBRANCH   9  11
ENDBRANCH   1   9
TORSDOF 3
ENDMDL
MODEL 5
REMARK VINA RESULT:      -7.2      1.749      2.464
REMARK  3 active torsions:
REMARK  status: ('A' for Active; 'I' for Inactive)
REMARK    1  A    between atoms: C_3  and  N_4 
REMARK       I    between atoms: N_4  and  C_5 
REMARK       I    between atoms: C_5  and  N_6 
REMARK    2  A    between atoms: N_6  and  C_7 
REMARK    3  A    between atoms: C_7  and  C_8 
ROOT
HETATM    1  C   UNL     1      42.205 -17.228   2.008  1.00  0.00    -0.036 A 
HETATM    2  C   UNL     1      43.224 -17.919   1.338  1.00  0.00     0.011 A 
HETATM    3  C   UNL     1      43.999 -18.875   2.004  1.00  0.00     0.023 A 
HETATM    4  C   UNL     1      43.771 -19.153   3.355  1.00  0.00     0.044 A 
HETATM    5  C   UNL     1      44.560 -20.137   4.034  1.00  0.00     0.099 C 
HETATM    6  N   UNL     1      45.197 -20.937   4.583  1.00  0.00    -0.191 NA
HETATM    7  C   UNL     1      42.769 -18.464   4.039  1.00  0.00     0.023 A 
HETATM    8  C   UNL     1      41.996 -17.510   3.372  1.00  0.00     0.011 A 
ENDROOT
BRANCH   1   9
HETATM    9  C   UNL     1      41.316 -16.191   1.343  1.00  0.00     0.115 C 
HETATM   10  C   UNL     1      39.888 -16.086   1.887  1.00  0.00     0.037 C 
BRANCH   9  11
HETATM   11  N   UNL     1      41.268 -16.445  -0.094  1.00  0.00    -0.335 N 
HETATM   12  C   UNL     1      41.199 -15.507  -1.085  1.00  0.00     0.321 C 
HETATM   13  N   UNL     1      41.865 -14.343  -0.821  1.00  0.00    -0.307 N 
HETATM   14  O   UNL     1      40.596 -15.783  -2.115  1.00  0.00    -0.247 OA
HETATM   15  H   UNL     1      42.606 -14.428  -0.147  1.00  0.00     0.170 HD
HETATM   16  H   UNL     1      40.791 -17.295  -0.370  1.00  0.00     0.165 HD
BRANCH  13  17
HETATM   17  C   UNL     1      41.836 -13.155  -1.586  1.00  0.00     0.059 A 
HETATM   18  C   UNL     1      40.917 -12.142  -1.258  1.00  0.00    -0.032 A 
HETATM   19  C   UNL     1      39.984 -12.243  -0.083  1.00  0.00     0.050 C 
HETATM   20  C   UNL     1      40.887 -10.979  -2.040  1.00  0.00     0.028 A 
HETATM   21  C   UNL     1      41.751 -10.869  -3.117  1.00  0.00     0.117 A 
HETATM   22  N   UNL     1      42.633 -11.823  -3.466  1.00  0.00    -0.271 NA
HETATM   23  C   UNL     1      42.659 -12.940  -2.694  1.00  0.00     0.146 A 
ENDBRANCH  13  17
ENDBRANCH   9  11
ENDBRANCH   1   9
TORSDOF 3
ENDMDL
MODEL 6
REMARK VINA RESULT:      -7.0      3.035      5.063
REMARK  3 active torsions:
REMARK  status: ('A' for Active; 'I' for Inactive)
REMARK    1  A    between atoms: C_3  and  N_4 
REMARK       I    between atoms: N_4  and  C_5 
REMARK       I    between atoms: C_5  and  N_6 
REMARK    2  A    between atoms: N_6  and  C_7 
REMARK    3  A    between atoms: C_7  and  C_8 
ROOT
HETATM    1  C   UNL     1      42.635 -17.449   2.316  1.00  0.00    -0.036 A 
HETATM    2  C   UNL     1      43.458 -18.333   1.603  1.00  0.00     0.011 A 
HETATM    3  C   UNL     1      44.126 -19.374   2.257  1.00  0.00     0.023 A 
HETATM    4  C   UNL     1      43.988 -19.546   3.636  1.00  0.00     0.044 A 
HETATM    5  C   UNL     1      44.668 -20.616   4.304  1.00  0.00     0.099 C 
HETATM    6  N   UNL     1      45.215 -21.486   4.843  1.00  0.00    -0.191 NA
HETATM    7  C   UNL     1      43.184 -18.667   4.362  1.00  0.00     0.023 A 
HETATM    8  C   UNL     1      42.516 -17.627   3.708  1.00  0.00     0.011 A 
ENDROOT
BRANCH   1   9
HETATM    9  C   UNL     1      41.868 -16.308   1.668  1.00  0.00     0.115 C 
HETATM   10  C   UNL     1      41.500 -16.502   0.193  1.00  0.00     0.037 C 
BRANCH   9  11
HETATM   11  N   UNL     1      42.624 -15.069   1.820  1.00  0.00    -0.335 N 
HETATM   12  C   UNL     1      42.236 -13.957   2.512  1.00  0.00     0.321 C 
HETATM   13  N   UNL     1      41.488 -14.208   3.629  1.00  0.00    -0.307 N 
HETATM   14  O   UNL     1      42.602 -12.858   2.114  1.00  0.00    -0.247 OA
HETATM   15  H   UNL     1      41.615 -15.126   4.020  1.00  0.00     0.170 HD
HETATM   16  H   UNL     1      43.207 -14.816   1.030  1.00  0.00     0.165 HD
BRANCH  13  17
HETATM   17  C   UNL     1      40.827 -13.259   4.440  1.00  0.00     0.059 A 
HETATM   18  C   UNL     1      41.438 -12.817   5.628  1.00  0.00    -0.032 A 
HETATM   19  C   UNL     1      42.805 -13.276   6.055  1.00  0.00     0.050 C 
HETATM   20  C   UNL     1      40.759 -11.890   6.431  1.00  0.00     0.028 A 
HETATM   21  C   UNL     1      39.505 -11.450   6.040  1.00  0.00     0.117 A 
HETATM   22  N   UNL     1      38.887 -11.862   4.919  1.00  0.00    -0.271 NA
HETATM   23  C   UNL     1      39.560 -12.751   4.144  1.00  0.00     0.146 A 
ENDBRANCH  13  17
ENDBRANCH   9  11
ENDBRANCH   1   9
TORSDOF 3
ENDMDL
MODEL 7
REMARK VINA RESULT:      -6.9      2.279      7.841
REMARK  3 active torsions:
REMARK  status: ('A' for Active; 'I' for Inactive)
REMARK    1  A    between atoms: C_3  and  N_4 
REMARK       I    between atoms: N_4  and  C_5 
REMARK       I    between atoms: C_5  and  N_6 
REMARK    2  A    between atoms: N_6  and  C_7 
REMARK    3  A    between atoms: C_7  and  C_8 
ROOT
HETATM    1  C   UNL     1      40.529 -15.311   0.983  1.00  0.00    -0.036 A 
HETATM    2  C   UNL     1      40.864 -14.978  -0.338  1.00  0.00     0.011 A 
HETATM    3  C   UNL     1      40.006 -14.198  -1.120  1.00  0.00     0.023 A 
HETATM    4  C   UNL     1      38.793 -13.740  -0.597  1.00  0.00     0.044 A 
HETATM    5  C   UNL     1      37.918 -12.936  -1.396  1.00  0.00     0.099 C 
HETATM    6  N   UNL     1      37.211 -12.280  -2.042  1.00  0.00    -0.191 NA
HETATM    7  C   UNL     1      38.439 -14.073   0.711  1.00  0.00     0.023 A 
HETATM    8  C   UNL     1      39.298 -14.853   1.492  1.00  0.00     0.011 A 
ENDROOT
BRANCH   1   9
HETATM    9  C   UNL     1      41.421 -16.139   1.893  1.00  0.00     0.115 C 
HETATM   10  C   UNL     1      41.782 -15.501   3.238  1.00  0.00     0.037 C 
BRANCH   9  11
HETATM   11  N   UNL     1      42.646 -16.490   1.180  1.00  0.00    -0.335 N 
HETATM   12  C   UNL     1      43.480 -17.534   1.461  1.00  0.00     0.321 C 
HETATM   13  N   UNL     1      42.859 -18.655   1.937  1.00  0.00    -0.307 N 
HETATM   14  O   UNL     1      44.679 -17.405   1.241  1.00  0.00    -0.247 OA
HETATM   15  H   UNL     1      41.888 -18.733   1.687  1.00  0.00     0.170 HD
HETATM   16  H   UNL     1      43.163 -15.709   0.794  1.00  0.00     0.165 HD
BRANCH  13  17
HETATM   17  C   UNL     1      43.477 -19.816   2.452  1.00  0.00     0.059 A 
HETATM   18  C   UNL     1      44.060 -19.780   3.733  1.00  0.00    -0.032 A 
HETATM   19  C   UNL     1      44.010 -18.562   4.613  1.00  0.00     0.050 C 
HETATM   20  C   UNL     1      44.688 -20.936   4.220  1.00  0.00     0.028 A 
HETATM   21  C   UNL     1      44.729 -22.068   3.423  1.00  0.00     0.117 A 
HETATM   22  N   UNL     1      44.194 -22.131   2.190  1.00  0.00    -0.271 NA
HETATM   23  C   UNL     1      43.579 -21.010   1.734  1.00  0.00     0.146 A 
ENDBRANCH  13  17
ENDBRANCH   9  11
ENDBRANCH   1   9
TORSDOF 3
ENDMDL
MODEL 8
REMARK VINA RESULT:      -6.9      2.277      7.429
REMARK  3 active torsions:
REMARK  status: ('A' for Active; 'I' for Inactive)
REMARK    1  A    between atoms: C_3  and  N_4 
REMARK       I    between atoms: N_4  and  C_5 
REMARK       I    between atoms: C_5  and  N_6 
REMARK    2  A    between atoms: N_6  and  C_7 
REMARK    3  A    between atoms: C_7  and  C_8 
ROOT
HETATM    1  C   UNL     1      40.724 -15.194   1.606  1.00  0.00    -0.036 A 
HETATM    2  C   UNL     1      41.426 -16.149   0.856  1.00  0.00     0.011 A 
HETATM    3  C   UNL     1      41.424 -16.103  -0.542  1.00  0.00     0.023 A 
HETATM    4  C   UNL     1      40.714 -15.106  -1.216  1.00  0.00     0.044 A 
HETATM    5  C   UNL     1      40.718 -15.057  -2.648  1.00  0.00     0.099 C 
HETATM    6  N   UNL     1      40.726 -15.014  -3.808  1.00  0.00    -0.191 NA
HETATM    7  C   UNL     1      39.999 -14.157  -0.484  1.00  0.00     0.023 A 
HETATM    8  C   UNL     1      40.002 -14.203   0.913  1.00  0.00     0.011 A 
ENDROOT
BRANCH   1   9
HETATM    9  C   UNL     1      40.697 -15.174   3.125  1.00  0.00     0.115 C 
HETATM   10  C   UNL     1      39.722 -14.180   3.764  1.00  0.00     0.037 C 
BRANCH   9  11
HETATM   11  N   UNL     1      42.044 -14.922   3.629  1.00  0.00    -0.335 N 
HETATM   12  C   UNL     1      42.848 -15.813   4.282  1.00  0.00     0.321 C 
HETATM   13  N   UNL     1      42.719 -17.111   3.873  1.00  0.00    -0.307 N 
HETATM   14  O   UNL     1      43.624 -15.392   5.132  1.00  0.00    -0.247 OA
HETATM   15  H   UNL     1      42.359 -17.222   2.940  1.00  0.00     0.170 HD
HETATM   16  H   UNL     1      42.218 -13.977   3.950  1.00  0.00     0.165 HD
BRANCH  13  17
HETATM   17  C   UNL     1      43.303 -18.252   4.468  1.00  0.00     0.059 A 
HETATM   18  C   UNL     1      43.995 -19.175   3.663  1.00  0.00    -0.032 A 
HETATM   19  C   UNL     1      44.189 -18.977   2.185  1.00  0.00     0.050 C 
HETATM   20  C   UNL     1      44.550 -20.312   4.266  1.00  0.00     0.028 A 
HETATM   21  C   UNL     1      44.389 -20.499   5.629  1.00  0.00     0.117 A 
HETATM   22  N   UNL     1      43.723 -19.643   6.425  1.00  0.00    -0.271 NA
HETATM   23  C   UNL     1      43.199 -18.541   5.831  1.00  0.00     0.146 A 
ENDBRANCH  13  17
ENDBRANCH   9  11
ENDBRANCH   1   9
TORSDOF 3
ENDMDL
MODEL 9
REMARK VINA RESULT:      -6.8      2.302      2.769
REMARK  3 active torsions:
REMARK  status: ('A' for Active; 'I' for Inactive)
REMARK    1  A    between atoms: C_3  and  N_4 
REMARK       I    between atoms: N_4  and  C_5 
REMARK       I    between atoms: C_5  and  N_6 
REMARK    2  A    between atoms: N_6  and  C_7 
REMARK    3  A    between atoms: C_7  and  C_8 
ROOT
HETATM    1  C   UNL     1      42.534 -17.636   3.093  1.00  0.00    -0.036 A 
HETATM    2  C   UNL     1      41.696 -17.498   4.209  1.00  0.00     0.011 A 
HETATM    3  C   UNL     1      42.032 -18.086   5.434  1.00  0.00     0.023 A 
HETATM    4  C   UNL     1      43.210 -18.826   5.563  1.00  0.00     0.044 A 
HETATM    5  C   UNL     1      43.556 -19.422   6.819  1.00  0.00     0.099 C 
HETATM    6  N   UNL     1      43.839 -19.900   7.838  1.00  0.00    -0.191 NA
HETATM    7  C   UNL     1      44.048 -18.984   4.458  1.00  0.00     0.023 A 
HETATM    8  C   UNL     1      43.711 -18.396   3.236  1.00  0.00     0.011 A 
ENDROOT
BRANCH   1   9
HETATM    9  C   UNL     1      42.239 -17.011   1.740  1.00  0.00     0.115 C 
HETATM   10  C   UNL     1      43.271 -17.281   0.640  1.00  0.00     0.037 C 
BRANCH   9  11
HETATM   11  N   UNL     1      42.067 -15.570   1.899  1.00  0.00    -0.335 N 
HETATM   12  C   UNL     1      41.569 -14.702   0.970  1.00  0.00     0.321 C 
HETATM   13  N   UNL     1      40.593 -15.220   0.164  1.00  0.00    -0.307 N 
HETATM   14  O   UNL     1      41.995 -13.553   0.950  1.00  0.00    -0.247 OA
HETATM   15  H   UNL     1      40.100 -16.004   0.556  1.00  0.00     0.170 HD
HETATM   16  H   UNL     1      42.754 -15.113   2.488  1.00  0.00     0.165 HD
BRANCH  13  17
HETATM   17  C   UNL     1      40.015 -14.609  -0.971  1.00  0.00     0.059 A 
HETATM   18  C   UNL     1      38.747 -14.010  -0.863  1.00  0.00    -0.032 A 
HETATM   19  C   UNL     1      37.988 -13.943   0.433  1.00  0.00     0.050 C 
HETATM   20  C   UNL     1      38.178 -13.426  -2.005  1.00  0.00     0.028 A 
HETATM   21  C   UNL     1      38.873 -13.469  -3.202  1.00  0.00     0.117 A 
HETATM   22  N   UNL     1      40.081 -14.045  -3.342  1.00  0.00    -0.271 NA
HETATM   23  C   UNL     1      40.626 -14.598  -2.227  1.00  0.00     0.146 A 
ENDBRANCH  13  17
ENDBRANCH   9  11
ENDBRANCH   1   9
TORSDOF 3
ENDMDL
MODEL 10
REMARK VINA RESULT:      -6.7      3.903      7.945
REMARK  3 active torsions:
REMARK  status: ('A' for Active; 'I' for Inactive)
REMARK    1  A    between atoms: C_3  and  N_4 
REMARK       I    between atoms: N_4  and  C_5 
REMARK       I    between atoms: C_5  and  N_6 
REMARK    2  A    between atoms: N_6  and  C_7 
REMARK    3  A    between atoms: C_7  and  C_8 
ROOT
HETATM    1  C   UNL     1      41.454 -14.553   4.492  1.00  0.00    -0.036 A 
HETATM    2  C   UNL     1      40.421 -14.434   3.550  1.00  0.00     0.011 A 
HETATM    3  C   UNL     1      39.564 -13.328   3.563  1.00  0.00     0.023 A 
HETATM    4  C   UNL     1      39.720 -12.324   4.523  1.00  0.00     0.044 A 
HETATM    5  C   UNL     1      38.846 -11.189   4.531  1.00  0.00     0.099 C 
HETATM    6  N   UNL     1      38.140 -10.267   4.535  1.00  0.00    -0.191 NA
HETATM    7  C   UNL     1      40.735 -12.434   5.475  1.00  0.00     0.023 A 
HETATM    8  C   UNL     1      41.591 -13.539   5.460  1.00  0.00     0.011 A 
ENDROOT
BRANCH   1   9
HETATM    9  C   UNL     1      42.430 -15.716   4.525  1.00  0.00     0.115 C 
HETATM   10  C   UNL     1      43.596 -15.583   5.509  1.00  0.00     0.037 C 
BRANCH   9  11
HETATM   11  N   UNL     1      42.955 -15.945   3.182  1.00  0.00    -0.335 N 
HETATM   12  C   UNL     1      43.527 -17.095   2.716  1.00  0.00     0.321 C 
HETATM   13  N   UNL     1      43.006 -18.247   3.236  1.00  0.00    -0.307 N 
HETATM   14  O   UNL     1      44.411 -17.012   1.872  1.00  0.00    -0.247 OA
HETATM   15  H   UNL     1      42.067 -18.161   3.586  1.00  0.00     0.170 HD
HETATM   16  H   UNL     1      43.357 -15.134   2.728  1.00  0.00     0.165 HD
BRANCH  13  17
HETATM   17  C   UNL     1      43.499 -19.559   3.057  1.00  0.00     0.059 A 
HETATM   18  C   UNL     1      44.349 -20.118   4.030  1.00  0.00    -0.032 A 
HETATM   19  C   UNL     1      44.722 -19.393   5.293  1.00  0.00     0.050 C 
HETATM   20  C   UNL     1      44.846 -21.413   3.827  1.00  0.00     0.028 A 
HETATM   21  C   UNL     1      44.499 -22.096   2.673  1.00  0.00     0.117 A 
HETATM   22  N   UNL     1      43.699 -21.586   1.718  1.00  0.00    -0.271 NA
HETATM   23  C   UNL     1      43.216 -20.336   1.931  1.00  0.00     0.146 A 
ENDBRANCH  13  17
ENDBRANCH   9  11
ENDBRANCH   1   9
TORSDOF 3
ENDMDL
