MODEL 1
REMARK VINA RESULT:      -7.6      0.000      0.000
REMARK  10 active torsions:
REMARK  status: ('A' for Active; 'I' for Inactive)
REMARK    1  A    between atoms: C_2  and  O_3 
REMARK    2  A    between atoms: O_3  and  C_4 
REMARK    3  A    between atoms: C_7  and  N_8 
REMARK    4  A    between atoms: C_9  and  S_10 
REMARK    5  A    between atoms: S_10  and  C_11 
REMARK    6  A    between atoms: C_11  and  C_12 
REMARK       I    between atoms: C_12  and  N_13 
REMARK    7  A    between atoms: N_13  and  C_14 
REMARK    8  A    between atoms: C_15  and  O_16 
REMARK    9  A    between atoms: C_19  and  O_20 
REMARK   10  A    between atoms: C_29  and  N_30 
ROOT
HETATM    1  N   UNL     1      42.272 -15.094   1.346  1.00  0.00    -0.276 N 
HETATM    2  C   UNL     1      42.688 -14.000   2.051  1.00  0.00     0.177 A 
HETATM    3  N   UNL     1      42.445 -12.735   1.690  1.00  0.00    -0.204 NA
HETATM    4  C   UNL     1      41.796 -12.628   0.540  1.00  0.00     0.162 A 
HETATM    5  C   UNL     1      41.339 -13.664  -0.241  1.00  0.00     0.081 A 
HETATM    6  C   UNL     1      41.547 -14.984   0.190  1.00  0.00     0.124 A 
HETATM    7  N   UNL     1      41.464 -11.464  -0.087  1.00  0.00    -0.260 N 
HETATM    8  H   UNL     1      41.664 -10.516   0.219  1.00  0.00     0.191 HD
HETATM    9  N   UNL     1      40.806 -11.667  -1.240  1.00  0.00    -0.177 NA
HETATM   10  C   UNL     1      40.732 -12.999  -1.349  1.00  0.00     0.068 A 
HETATM   11  C   UNL     1      40.074 -13.590  -2.545  1.00  0.00     0.073 C 
ENDROOT
BRANCH   2  12
HETATM   12  S   UNL     1      43.629 -14.136   3.584  1.00  0.00    -0.082 SA
BRANCH  12  13
HETATM   13  C   UNL     1      42.521 -13.290   4.786  1.00  0.00     0.185 C 
BRANCH  13  14
HETATM   14  C   UNL     1      41.374 -14.170   5.265  1.00  0.00     0.232 C 
HETATM   15  N   UNL     1      40.082 -13.930   4.907  1.00  0.00    -0.324 N 
HETATM   16  H   UNL     1      39.411 -14.370   5.535  1.00  0.00     0.169 HD
HETATM   17  O   UNL     1      41.590 -15.080   6.075  1.00  0.00    -0.272 OA
BRANCH  15  18
HETATM   18  C   UNL     1      39.482 -13.276   3.815  1.00  0.00     0.070 A 
HETATM   19  C   UNL     1      39.229 -11.895   3.959  1.00  0.00     0.097 A 
HETATM   20  C   UNL     1      38.563 -11.190   2.946  1.00  0.00     0.077 A 
HETATM   21  C   UNL     1      38.122 -11.852   1.796  1.00  0.00     0.092 A 
HETATM   22  C   UNL     1      38.360 -13.230   1.675  1.00  0.00     0.069 A 
HETATM   23 CL   UNL     1      37.805 -14.122   0.300  1.00  0.00    -0.081 Cl
HETATM   24  C   UNL     1      39.032 -13.938   2.676  1.00  0.00     0.059 A 
BRANCH  19  25
HETATM   25  O   UNL     1      39.698 -11.335   5.126  1.00  0.00    -0.354 OA
HETATM   26  C   UNL     1      40.479 -10.149   5.021  1.00  0.00     0.210 C 
ENDBRANCH  19  25
BRANCH  21  27
HETATM   27  O   UNL     1      37.454 -11.253   0.761  1.00  0.00    -0.354 OA
HETATM   28  C   UNL     1      36.057 -11.032   0.900  1.00  0.00     0.210 C 
ENDBRANCH  21  27
ENDBRANCH  15  18
ENDBRANCH  13  14
ENDBRANCH  12  13
ENDBRANCH   2  12
BRANCH   1  29
HETATM   29  C   UNL     1      42.639 -16.413   1.786  1.00  0.00     0.043 A 
HETATM   30  C   UNL     1      43.798 -17.009   1.284  1.00  0.00     0.033 A 
HETATM   31  C   UNL     1      44.217 -18.231   1.822  1.00  0.00     0.039 A 
HETATM   32  C   UNL     1      43.495 -18.829   2.860  1.00  0.00     0.068 A 
HETATM   33  C   UNL     1      42.335 -18.211   3.344  1.00  0.00     0.039 A 
HETATM   34  C   UNL     1      41.898 -16.999   2.813  1.00  0.00     0.033 A 
BRANCH  32  35
HETATM   35  O   UNL     1      43.816 -19.989   3.502  1.00  0.00    -0.352 OA
BRANCH  35  36
HETATM   36  C   UNL     1      44.692 -20.902   2.841  1.00  0.00     0.171 C 
HETATM   37  C   UNL     1      43.855 -21.754   1.903  1.00  0.00     0.034 C 
ENDBRANCH  35  36
ENDBRANCH  32  35
ENDBRANCH   1  29
BRANCH   6  38
HETATM   38  N   UNL     1      41.060 -16.084  -0.511  1.00  0.00    -0.384 N 
HETATM   39  H   UNL     1      41.104 -16.064  -1.526  1.00  0.00     0.157 HD
HETATM   40  H   UNL     1      40.311 -16.657  -0.141  1.00  0.00     0.157 HD
ENDBRANCH   6  38
TORSDOF 10
ENDMDL
MODEL 2
REMARK VINA RESULT:      -7.5      2.850      4.986
REMARK  10 active torsions:
REMARK  status: ('A' for Active; 'I' for Inactive)
REMARK    1  A    between atoms: C_2  and  O_3 
REMARK    2  A    between atoms: O_3  and  C_4 
REMARK    3  A    between atoms: C_7  and  N_8 
REMARK    4  A    between atoms: C_9  and  S_10 
REMARK    5  A    between atoms: S_10  and  C_11 
REMARK    6  A    between atoms: C_11  and  C_12 
REMARK       I    between atoms: C_12  and  N_13 
REMARK    7  A    between atoms: N_13  and  C_14 
REMARK    8  A    between atoms: C_15  and  O_16 
REMARK    9  A    between atoms: C_19  and  O_20 
REMARK   10  A    between atoms: C_29  and  N_30 
ROOT
HETATM    1  N   UNL     1      40.826 -15.099   0.583  1.00  0.00    -0.276 N 
HETATM    2  C   UNL     1      40.175 -14.286   1.468  1.00  0.00     0.177 A 
HETATM    3  N   UNL     1      39.500 -13.184   1.120  1.00  0.00    -0.204 NA
HETATM    4  C   UNL     1      39.557 -12.915  -0.176  1.00  0.00     0.162 A 
HETATM    5  C   UNL     1      40.185 -13.668  -1.142  1.00  0.00     0.081 A 
HETATM    6  C   UNL     1      40.832 -14.855  -0.764  1.00  0.00     0.124 A 
HETATM    7  N   UNL     1      39.005 -11.833  -0.794  1.00  0.00    -0.260 N 
HETATM    8  H   UNL     1      38.479 -11.075  -0.366  1.00  0.00     0.191 HD
HETATM    9  N   UNL     1      39.224 -11.825  -2.118  1.00  0.00    -0.177 NA
HETATM   10  C   UNL     1      39.948 -12.930  -2.341  1.00  0.00     0.068 A 
HETATM   11  C   UNL     1      40.399 -13.231  -3.725  1.00  0.00     0.073 C 
ENDROOT
BRANCH   2  12
HETATM   12  S   UNL     1      40.147 -14.610   3.242  1.00  0.00    -0.082 SA
BRANCH  12  13
HETATM   13  C   UNL     1      41.251 -13.287   3.888  1.00  0.00     0.185 C 
BRANCH  13  14
HETATM   14  C   UNL     1      42.706 -13.469   3.478  1.00  0.00     0.232 C 
HETATM   15  N   UNL     1      43.587 -14.180   4.235  1.00  0.00    -0.324 N 
HETATM   16  H   UNL     1      44.558 -13.952   4.028  1.00  0.00     0.169 HD
HETATM   17  O   UNL     1      43.143 -12.885   2.478  1.00  0.00    -0.272 OA
BRANCH  15  18
HETATM   18  C   UNL     1      43.442 -15.214   5.179  1.00  0.00     0.070 A 
HETATM   19  C   UNL     1      43.727 -14.895   6.524  1.00  0.00     0.097 A 
HETATM   20  C   UNL     1      43.682 -15.891   7.510  1.00  0.00     0.077 A 
HETATM   21  C   UNL     1      43.379 -17.213   7.168  1.00  0.00     0.092 A 
HETATM   22  C   UNL     1      43.120 -17.521   5.823  1.00  0.00     0.069 A 
HETATM   23 CL   UNL     1      42.780 -19.141   5.320  1.00  0.00    -0.081 Cl
HETATM   24  C   UNL     1      43.153 -16.531   4.835  1.00  0.00     0.059 A 
BRANCH  19  25
HETATM   25  O   UNL     1      44.018 -13.571   6.760  1.00  0.00    -0.354 OA
HETATM   26  C   UNL     1      44.849 -13.267   7.875  1.00  0.00     0.210 C 
ENDBRANCH  19  25
BRANCH  21  27
HETATM   27  O   UNL     1      43.323 -18.254   8.056  1.00  0.00    -0.354 OA
HETATM   28  C   UNL     1      44.545 -18.846   8.476  1.00  0.00     0.210 C 
ENDBRANCH  21  27
ENDBRANCH  15  18
ENDBRANCH  13  14
ENDBRANCH  12  13
ENDBRANCH   2  12
BRANCH   1  29
HETATM   29  C   UNL     1      41.577 -16.226   1.065  1.00  0.00     0.043 A 
HETATM   30  C   UNL     1      40.921 -17.432   1.322  1.00  0.00     0.033 A 
HETATM   31  C   UNL     1      41.683 -18.558   1.657  1.00  0.00     0.039 A 
HETATM   32  C   UNL     1      43.078 -18.476   1.708  1.00  0.00     0.068 A 
HETATM   33  C   UNL     1      43.711 -17.254   1.446  1.00  0.00     0.039 A 
HETATM   34  C   UNL     1      42.967 -16.121   1.122  1.00  0.00     0.033 A 
BRANCH  32  35
HETATM   35  O   UNL     1      43.938 -19.501   1.975  1.00  0.00    -0.352 OA
BRANCH  35  36
HETATM   36  C   UNL     1      43.435 -20.834   1.902  1.00  0.00     0.171 C 
HETATM   37  C   UNL     1      44.616 -21.783   2.008  1.00  0.00     0.034 C 
ENDBRANCH  35  36
ENDBRANCH  32  35
ENDBRANCH   1  29
BRANCH   6  38
HETATM   38  N   UNL     1      41.435 -15.702  -1.689  1.00  0.00    -0.384 N 
HETATM   39  H   UNL     1      40.839 -16.313  -2.240  1.00  0.00     0.157 HD
HETATM   40  H   UNL     1      42.374 -16.059  -1.545  1.00  0.00     0.157 HD
ENDBRANCH   6  38
TORSDOF 10
ENDMDL
MODEL 3
REMARK VINA RESULT:      -7.4      3.070      5.910
REMARK  10 active torsions:
REMARK  status: ('A' for Active; 'I' for Inactive)
REMARK    1  A    between atoms: C_2  and  O_3 
REMARK    2  A    between atoms: O_3  and  C_4 
REMARK    3  A    between atoms: C_7  and  N_8 
REMARK    4  A    between atoms: C_9  and  S_10 
REMARK    5  A    between atoms: S_10  and  C_11 
REMARK    6  A    between atoms: C_11  and  C_12 
REMARK       I    between atoms: C_12  and  N_13 
REMARK    7  A    between atoms: N_13  and  C_14 
REMARK    8  A    between atoms: C_15  and  O_16 
REMARK    9  A    between atoms: C_19  and  O_20 
REMARK   10  A    between atoms: C_29  and  N_30 
ROOT
HETATM    1  N   UNL     1      41.000 -14.647   4.307  1.00  0.00    -0.276 N 
HETATM    2  C   UNL     1      40.055 -14.425   3.346  1.00  0.00     0.177 A 
HETATM    3  N   UNL     1      39.270 -13.342   3.298  1.00  0.00    -0.204 NA
HETATM    4  C   UNL     1      39.456 -12.509   4.311  1.00  0.00     0.162 A 
HETATM    5  C   UNL     1      40.377 -12.644   5.324  1.00  0.00     0.081 A 
HETATM    6  C   UNL     1      41.235 -13.755   5.319  1.00  0.00     0.124 A 
HETATM    7  N   UNL     1      38.761 -11.359   4.539  1.00  0.00    -0.260 N 
HETATM    8  H   UNL     1      38.002 -10.971   3.984  1.00  0.00     0.191 HD
HETATM    9  N   UNL     1      39.171 -10.717   5.645  1.00  0.00    -0.177 NA
HETATM   10  C   UNL     1      40.146 -11.492   6.136  1.00  0.00     0.068 A 
HETATM   11  C   UNL     1      40.823 -11.090   7.397  1.00  0.00     0.073 C 
ENDROOT
BRANCH   2  12
HETATM   12  S   UNL     1      39.751 -15.587   2.000  1.00  0.00    -0.082 SA
BRANCH  12  13
HETATM   13  C   UNL     1      40.324 -14.630   0.535  1.00  0.00     0.185 C 
BRANCH  13  14
HETATM   14  C   UNL     1      41.379 -15.362  -0.283  1.00  0.00     0.232 C 
HETATM   15  N   UNL     1      41.851 -14.870  -1.462  1.00  0.00    -0.324 N 
HETATM   16  H   UNL     1      42.284 -15.585  -2.042  1.00  0.00     0.169 HD
HETATM   17  O   UNL     1      41.767 -16.483   0.072  1.00  0.00    -0.272 OA
BRANCH  15  18
HETATM   18  C   UNL     1      41.937 -13.575  -2.008  1.00  0.00     0.070 A 
HETATM   19  C   UNL     1      41.389 -13.387  -3.295  1.00  0.00     0.097 A 
HETATM   20  C   UNL     1      41.506 -12.147  -3.938  1.00  0.00     0.077 A 
HETATM   21  C   UNL     1      42.188 -11.093  -3.322  1.00  0.00     0.092 A 
HETATM   22  C   UNL     1      42.748 -11.299  -2.052  1.00  0.00     0.069 A 
HETATM   23 CL   UNL     1      43.641 -10.054  -1.248  1.00  0.00    -0.081 Cl
HETATM   24  C   UNL     1      42.626 -12.530  -1.400  1.00  0.00     0.059 A 
BRANCH  19  25
HETATM   25  O   UNL     1      40.742 -14.484  -3.818  1.00  0.00    -0.354 OA
HETATM   26  C   UNL     1      39.339 -14.589  -3.598  1.00  0.00     0.210 C 
ENDBRANCH  19  25
BRANCH  21  27
HETATM   27  O   UNL     1      42.364  -9.852  -3.875  1.00  0.00    -0.354 OA
HETATM   28  C   UNL     1      42.560  -9.763  -5.280  1.00  0.00     0.210 C 
ENDBRANCH  21  27
ENDBRANCH  15  18
ENDBRANCH  13  14
ENDBRANCH  12  13
ENDBRANCH   2  12
BRANCH   1  29
HETATM   29  C   UNL     1      41.750 -15.873   4.306  1.00  0.00     0.043 A 
HETATM   30  C   UNL     1      41.288 -16.965   5.045  1.00  0.00     0.033 A 
HETATM   31  C   UNL     1      41.951 -18.192   4.925  1.00  0.00     0.039 A 
HETATM   32  C   UNL     1      43.042 -18.322   4.061  1.00  0.00     0.068 A 
HETATM   33  C   UNL     1      43.486 -17.212   3.331  1.00  0.00     0.039 A 
HETATM   34  C   UNL     1      42.845 -15.980   3.446  1.00  0.00     0.033 A 
BRANCH  32  35
HETATM   35  O   UNL     1      43.746 -19.465   3.816  1.00  0.00    -0.352 OA
BRANCH  35  36
HETATM   36  C   UNL     1      44.288 -19.653   2.509  1.00  0.00     0.171 C 
HETATM   37  C   UNL     1      43.915 -21.051   2.048  1.00  0.00     0.034 C 
ENDBRANCH  35  36
ENDBRANCH  32  35
ENDBRANCH   1  29
BRANCH   6  38
HETATM   38  N   UNL     1      42.234 -13.931   6.272  1.00  0.00    -0.384 N 
HETATM   39  H   UNL     1      41.960 -13.996   7.248  1.00  0.00     0.157 HD
HETATM   40  H   UNL     1      43.171 -13.571   6.128  1.00  0.00     0.157 HD
ENDBRANCH   6  38
TORSDOF 10
ENDMDL
MODEL 4
REMARK VINA RESULT:      -7.3      3.415      7.588
REMARK  10 active torsions:
REMARK  status: ('A' for Active; 'I' for Inactive)
REMARK    1  A    between atoms: C_2  and  O_3 
REMARK    2  A    between atoms: O_3  and  C_4 
REMARK    3  A    between atoms: C_7  and  N_8 
REMARK    4  A    between atoms: C_9  and  S_10 
REMARK    5  A    between atoms: S_10  and  C_11 
REMARK    6  A    between atoms: C_11  and  C_12 
REMARK       I    between atoms: C_12  and  N_13 
REMARK    7  A    between atoms: N_13  and  C_14 
REMARK    8  A    between atoms: C_15  and  O_16 
REMARK    9  A    between atoms: C_19  and  O_20 
REMARK   10  A    between atoms: C_29  and  N_30 
ROOT
HETATM    1  N   UNL     1      42.713 -16.673   5.016  1.00  0.00    -0.276 N 
HETATM    2  C   UNL     1      43.201 -16.850   3.752  1.00  0.00     0.177 A 
HETATM    3  N   UNL     1      43.826 -17.957   3.335  1.00  0.00    -0.204 NA
HETATM    4  C   UNL     1      43.979 -18.868   4.285  1.00  0.00     0.162 A 
HETATM    5  C   UNL     1      43.526 -18.784   5.581  1.00  0.00     0.081 A 
HETATM    6  C   UNL     1      42.816 -17.640   5.980  1.00  0.00     0.124 A 
HETATM    7  N   UNL     1      44.621 -20.063   4.151  1.00  0.00    -0.260 N 
HETATM    8  H   UNL     1      45.079 -20.433   3.323  1.00  0.00     0.191 HD
HETATM    9  N   UNL     1      44.617 -20.782   5.285  1.00  0.00    -0.177 NA
HETATM   10  C   UNL     1      43.963 -20.012   6.164  1.00  0.00     0.068 A 
HETATM   11  C   UNL     1      43.790 -20.495   7.559  1.00  0.00     0.073 C 
ENDROOT
BRANCH   2  12
HETATM   12  S   UNL     1      43.055 -15.588   2.472  1.00  0.00    -0.082 SA
BRANCH  12  13
HETATM   13  C   UNL     1      42.859 -16.608   0.953  1.00  0.00     0.185 C 
BRANCH  13  14
HETATM   14  C   UNL     1      41.404 -16.801   0.545  1.00  0.00     0.232 C 
HETATM   15  N   UNL     1      40.725 -15.866  -0.174  1.00  0.00    -0.324 N 
HETATM   16  H   UNL     1      39.714 -15.966  -0.095  1.00  0.00     0.169 HD
HETATM   17  O   UNL     1      40.777 -17.790   0.946  1.00  0.00    -0.272 OA
BRANCH  15  18
HETATM   18  C   UNL     1      41.120 -14.848  -1.062  1.00  0.00     0.070 A 
HETATM   19  C   UNL     1      40.932 -15.094  -2.440  1.00  0.00     0.097 A 
HETATM   20  C   UNL     1      41.373 -14.162  -3.390  1.00  0.00     0.077 A 
HETATM   21  C   UNL     1      42.024 -12.993  -2.985  1.00  0.00     0.092 A 
HETATM   22  C   UNL     1      42.225 -12.770  -1.614  1.00  0.00     0.069 A 
HETATM   23 CL   UNL     1      43.060 -11.367  -1.041  1.00  0.00    -0.081 Cl
HETATM   24  C   UNL     1      41.779 -13.691  -0.659  1.00  0.00     0.059 A 
BRANCH  19  25
HETATM   25  O   UNL     1      40.285 -16.272  -2.738  1.00  0.00    -0.354 OA
HETATM   26  C   UNL     1      39.391 -16.271  -3.845  1.00  0.00     0.210 C 
ENDBRANCH  19  25
BRANCH  21  27
HETATM   27  O   UNL     1      42.500 -12.032  -3.837  1.00  0.00    -0.354 OA
HETATM   28  C   UNL     1      41.575 -11.106  -4.390  1.00  0.00     0.210 C 
ENDBRANCH  21  27
ENDBRANCH  15  18
ENDBRANCH  13  14
ENDBRANCH  12  13
ENDBRANCH   2  12
BRANCH   1  29
HETATM   29  C   UNL     1      42.113 -15.420   5.384  1.00  0.00     0.043 A 
HETATM   30  C   UNL     1      42.927 -14.351   5.764  1.00  0.00     0.033 A 
HETATM   31  C   UNL     1      42.340 -13.099   5.985  1.00  0.00     0.039 A 
HETATM   32  C   UNL     1      40.965 -12.924   5.805  1.00  0.00     0.068 A 
HETATM   33  C   UNL     1      40.170 -14.012   5.425  1.00  0.00     0.039 A 
HETATM   34  C   UNL     1      40.736 -15.268   5.210  1.00  0.00     0.033 A 
BRANCH  32  35
HETATM   35  O   UNL     1      40.276 -11.754   5.942  1.00  0.00    -0.352 OA
BRANCH  35  36
HETATM   36  C   UNL     1      40.639 -10.883   7.012  1.00  0.00     0.171 C 
HETATM   37  C   UNL     1      39.550 -10.963   8.068  1.00  0.00     0.034 C 
ENDBRANCH  35  36
ENDBRANCH  32  35
ENDBRANCH   1  29
BRANCH   6  38
HETATM   38  N   UNL     1      42.272 -17.506   7.254  1.00  0.00    -0.384 N 
HETATM   39  H   UNL     1      42.641 -16.780   7.860  1.00  0.00     0.157 HD
HETATM   40  H   UNL     1      41.886 -18.302   7.750  1.00  0.00     0.157 HD
ENDBRANCH   6  38
TORSDOF 10
ENDMDL
MODEL 5
REMARK VINA RESULT:      -7.1      2.757      7.268
REMARK  10 active torsions:
REMARK  status: ('A' for Active; 'I' for Inactive)
REMARK    1  A    between atoms: C_2  and  O_3 
REMARK    2  A    between atoms: O_3  and  C_4 
REMARK    3  A    between atoms: C_7  and  N_8 
REMARK    4  A    between atoms: C_9  and  S_10 
REMARK    5  A    between atoms: S_10  and  C_11 
REMARK    6  A    between atoms: C_11  and  C_12 
REMARK       I    between atoms: C_12  and  N_13 
REMARK    7  A    between atoms: N_13  and  C_14 
REMARK    8  A    between atoms: C_15  and  O_16 
REMARK    9  A    between atoms: C_19  and  O_20 
REMARK   10  A    between atoms: C_29  and  N_30 
ROOT
HETATM    1  N   UNL     1      41.070 -12.387   1.483  1.00  0.00    -0.276 N 
HETATM    2  C   UNL     1      40.879 -13.695   1.139  1.00  0.00     0.177 A 
HETATM    3  N   UNL     1      41.291 -14.239  -0.012  1.00  0.00    -0.204 NA
HETATM    4  C   UNL     1      41.868 -13.371  -0.830  1.00  0.00     0.162 A 
HETATM    5  C   UNL     1      42.105 -12.039  -0.577  1.00  0.00     0.081 A 
HETATM    6  C   UNL     1      41.723 -11.505   0.664  1.00  0.00     0.124 A 
HETATM    7  N   UNL     1      42.334 -13.639  -2.082  1.00  0.00    -0.260 N 
HETATM    8  H   UNL     1      42.306 -14.526  -2.579  1.00  0.00     0.191 HD
HETATM    9  N   UNL     1      42.872 -12.562  -2.677  1.00  0.00    -0.177 NA
HETATM   10  C   UNL     1      42.731 -11.581  -1.776  1.00  0.00     0.068 A 
HETATM   11  C   UNL     1      43.205 -10.214  -2.116  1.00  0.00     0.073 C 
ENDROOT
BRANCH   2  12
HETATM   12  S   UNL     1      40.036 -14.867   2.220  1.00  0.00    -0.082 SA
BRANCH  12  13
HETATM   13  C   UNL     1      41.406 -15.433   3.311  1.00  0.00     0.185 C 
BRANCH  13  14
HETATM   14  C   UNL     1      40.954 -15.733   4.734  1.00  0.00     0.232 C 
HETATM   15  N   UNL     1      41.209 -16.927   5.337  1.00  0.00    -0.324 N 
HETATM   16  H   UNL     1      40.591 -17.110   6.125  1.00  0.00     0.169 HD
HETATM   17  O   UNL     1      40.256 -14.914   5.345  1.00  0.00    -0.272 OA
BRANCH  15  18
HETATM   18  C   UNL     1      42.191 -17.918   5.152  1.00  0.00     0.070 A 
HETATM   19  C   UNL     1      42.915 -18.321   6.295  1.00  0.00     0.097 A 
HETATM   20  C   UNL     1      43.962 -19.245   6.178  1.00  0.00     0.077 A 
HETATM   21  C   UNL     1      44.316 -19.759   4.926  1.00  0.00     0.092 A 
HETATM   22  C   UNL     1      43.602 -19.335   3.795  1.00  0.00     0.069 A 
HETATM   23 CL   UNL     1      44.011 -19.895   2.209  1.00  0.00    -0.081 Cl
HETATM   24  C   UNL     1      42.550 -18.420   3.904  1.00  0.00     0.059 A 
BRANCH  19  25
HETATM   25  O   UNL     1      42.495 -17.757   7.479  1.00  0.00    -0.354 OA
HETATM   26  C   UNL     1      43.455 -17.033   8.241  1.00  0.00     0.210 C 
ENDBRANCH  19  25
BRANCH  21  27
HETATM   27  O   UNL     1      45.329 -20.655   4.711  1.00  0.00    -0.354 OA
HETATM   28  C   UNL     1      45.094 -22.023   5.017  1.00  0.00     0.210 C 
ENDBRANCH  21  27
ENDBRANCH  15  18
ENDBRANCH  13  14
ENDBRANCH  12  13
ENDBRANCH   2  12
BRANCH   1  29
HETATM   29  C   UNL     1      40.534 -11.884   2.719  1.00  0.00     0.043 A 
HETATM   30  C   UNL     1      39.176 -11.566   2.802  1.00  0.00     0.033 A 
HETATM   31  C   UNL     1      38.640 -11.210   4.044  1.00  0.00     0.039 A 
HETATM   32  C   UNL     1      39.449 -11.198   5.184  1.00  0.00     0.068 A 
HETATM   33  C   UNL     1      40.808 -11.520   5.074  1.00  0.00     0.039 A 
HETATM   34  C   UNL     1      41.361 -11.866   3.842  1.00  0.00     0.033 A 
BRANCH  32  35
HETATM   35  O   UNL     1      39.047 -10.916   6.457  1.00  0.00    -0.352 OA
BRANCH  35  36
HETATM   36  C   UNL     1      39.473 -11.787   7.504  1.00  0.00     0.171 C 
HETATM   37  C   UNL     1      39.214 -11.087   8.826  1.00  0.00     0.034 C 
ENDBRANCH  35  36
ENDBRANCH  32  35
ENDBRANCH   1  29
BRANCH   6  38
HETATM   38  N   UNL     1      41.983 -10.185   1.020  1.00  0.00    -0.384 N 
HETATM   39  H   UNL     1      42.237  -9.988   1.983  1.00  0.00     0.157 HD
HETATM   40  H   UNL     1      41.533  -9.411   0.544  1.00  0.00     0.157 HD
ENDBRANCH   6  38
TORSDOF 10
ENDMDL
MODEL 6
REMARK VINA RESULT:      -7.0      3.657      5.190
REMARK  10 active torsions:
REMARK  status: ('A' for Active; 'I' for Inactive)
REMARK    1  A    between atoms: C_2  and  O_3 
REMARK    2  A    between atoms: O_3  and  C_4 
REMARK    3  A    between atoms: C_7  and  N_8 
REMARK    4  A    between atoms: C_9  and  S_10 
REMARK    5  A    between atoms: S_10  and  C_11 
REMARK    6  A    between atoms: C_11  and  C_12 
REMARK       I    between atoms: C_12  and  N_13 
REMARK    7  A    between atoms: N_13  and  C_14 
REMARK    8  A    between atoms: C_15  and  O_16 
REMARK    9  A    between atoms: C_19  and  O_20 
REMARK   10  A    between atoms: C_29  and  N_30 
ROOT
HETATM    1  N   UNL     1      41.566 -15.709   3.136  1.00  0.00    -0.276 N 
HETATM    2  C   UNL     1      41.970 -14.707   3.972  1.00  0.00     0.177 A 
HETATM    3  N   UNL     1      41.328 -13.542   4.118  1.00  0.00    -0.204 NA
HETATM    4  C   UNL     1      40.270 -13.420   3.329  1.00  0.00     0.162 A 
HETATM    5  C   UNL     1      39.785 -14.366   2.456  1.00  0.00     0.081 A 
HETATM    6  C   UNL     1      40.437 -15.607   2.367  1.00  0.00     0.124 A 
HETATM    7  N   UNL     1      39.466 -12.324   3.234  1.00  0.00    -0.260 N 
HETATM    8  H   UNL     1      39.552 -11.444   3.736  1.00  0.00     0.191 HD
HETATM    9  N   UNL     1      38.468 -12.489   2.350  1.00  0.00    -0.177 NA
HETATM   10  C   UNL     1      38.657 -13.722   1.864  1.00  0.00     0.068 A 
HETATM   11  C   UNL     1      37.730 -14.237   0.822  1.00  0.00     0.073 C 
ENDROOT
BRANCH   2  12
HETATM   12  S   UNL     1      43.446 -14.841   5.001  1.00  0.00    -0.082 SA
BRANCH  12  13
HETATM   13  C   UNL     1      43.200 -13.466   6.200  1.00  0.00     0.185 C 
BRANCH  13  14
HETATM   14  C   UNL     1      44.144 -13.535   7.393  1.00  0.00     0.232 C 
HETATM   15  N   UNL     1      44.244 -12.520   8.295  1.00  0.00    -0.324 N 
HETATM   16  H   UNL     1      45.112 -12.551   8.827  1.00  0.00     0.169 HD
HETATM   17  O   UNL     1      44.916 -14.495   7.514  1.00  0.00    -0.272 OA
BRANCH  15  18
HETATM   18  C   UNL     1      43.373 -11.492   8.701  1.00  0.00     0.070 A 
HETATM   19  C   UNL     1      43.444 -11.092  10.053  1.00  0.00     0.097 A 
HETATM   20  C   UNL     1      42.555 -10.129  10.551  1.00  0.00     0.077 A 
HETATM   21  C   UNL     1      41.575  -9.574   9.722  1.00  0.00     0.092 A 
HETATM   22  C   UNL     1      41.501  -9.996   8.385  1.00  0.00     0.069 A 
HETATM   23 CL   UNL     1      40.288  -9.385   7.313  1.00  0.00    -0.081 Cl
HETATM   24  C   UNL     1      42.391 -10.949   7.878  1.00  0.00     0.059 A 
BRANCH  19  25
HETATM   25  O   UNL     1      44.437 -11.697  10.788  1.00  0.00    -0.354 OA
HETATM   26  C   UNL     1      44.039 -12.553  11.854  1.00  0.00     0.210 C 
ENDBRANCH  19  25
BRANCH  21  27
HETATM   27  O   UNL     1      40.656  -8.639  10.120  1.00  0.00    -0.354 OA
HETATM   28  C   UNL     1      39.510  -9.083  10.833  1.00  0.00     0.210 C 
ENDBRANCH  21  27
ENDBRANCH  15  18
ENDBRANCH  13  14
ENDBRANCH  12  13
ENDBRANCH   2  12
BRANCH   1  29
HETATM   29  C   UNL     1      42.362 -16.899   3.005  1.00  0.00     0.043 A 
HETATM   30  C   UNL     1      43.279 -17.002   1.957  1.00  0.00     0.033 A 
HETATM   31  C   UNL     1      44.143 -18.102   1.921  1.00  0.00     0.039 A 
HETATM   32  C   UNL     1      44.100 -19.067   2.932  1.00  0.00     0.068 A 
HETATM   33  C   UNL     1      43.169 -18.941   3.971  1.00  0.00     0.039 A 
HETATM   34  C   UNL     1      42.294 -17.857   4.018  1.00  0.00     0.033 A 
BRANCH  32  35
HETATM   35  O   UNL     1      44.911 -20.158   3.042  1.00  0.00    -0.352 OA
BRANCH  35  36
HETATM   36  C   UNL     1      44.307 -21.451   2.996  1.00  0.00     0.171 C 
HETATM   37  C   UNL     1      44.021 -21.779   1.541  1.00  0.00     0.034 C 
ENDBRANCH  35  36
ENDBRANCH  32  35
ENDBRANCH   1  29
BRANCH   6  38
HETATM   38  N   UNL     1      39.972 -16.637   1.556  1.00  0.00    -0.384 N 
HETATM   39  H   UNL     1      40.648 -17.303   1.191  1.00  0.00     0.157 HD
HETATM   40  H   UNL     1      39.149 -16.523   0.976  1.00  0.00     0.157 HD
ENDBRANCH   6  38
TORSDOF 10
ENDMDL
MODEL 7
REMARK VINA RESULT:      -6.9      3.066      8.110
REMARK  10 active torsions:
REMARK  status: ('A' for Active; 'I' for Inactive)
REMARK    1  A    between atoms: C_2  and  O_3 
REMARK    2  A    between atoms: O_3  and  C_4 
REMARK    3  A    between atoms: C_7  and  N_8 
REMARK    4  A    between atoms: C_9  and  S_10 
REMARK    5  A    between atoms: S_10  and  C_11 
REMARK    6  A    between atoms: C_11  and  C_12 
REMARK       I    between atoms: C_12  and  N_13 
REMARK    7  A    between atoms: N_13  and  C_14 
REMARK    8  A    between atoms: C_15  and  O_16 
REMARK    9  A    between atoms: C_19  and  O_20 
REMARK   10  A    between atoms: C_29  and  N_30 
ROOT
HETATM    1  N   UNL     1      39.376 -13.191   2.860  1.00  0.00    -0.276 N 
HETATM    2  C   UNL     1      39.691 -14.365   3.484  1.00  0.00     0.177 A 
HETATM    3  N   UNL     1      39.865 -14.492   4.805  1.00  0.00    -0.204 NA
HETATM    4  C   UNL     1      39.753 -13.348   5.465  1.00  0.00     0.162 A 
HETATM    5  C   UNL     1      39.442 -12.120   4.929  1.00  0.00     0.081 A 
HETATM    6  C   UNL     1      39.199 -12.022   3.550  1.00  0.00     0.124 A 
HETATM    7  N   UNL     1      39.931 -13.178   6.805  1.00  0.00    -0.260 N 
HETATM    8  H   UNL     1      40.179 -13.884   7.494  1.00  0.00     0.191 HD
HETATM    9  N   UNL     1      39.751 -11.905   7.194  1.00  0.00    -0.177 NA
HETATM   10  C   UNL     1      39.462 -11.251   6.062  1.00  0.00     0.068 A 
HETATM   11  C   UNL     1      39.222  -9.785   6.116  1.00  0.00     0.073 C 
ENDROOT
BRANCH   2  12
HETATM   12  S   UNL     1      39.908 -15.913   2.584  1.00  0.00    -0.082 SA
BRANCH  12  13
HETATM   13  C   UNL     1      41.372 -16.641   3.429  1.00  0.00     0.185 C 
BRANCH  13  14
HETATM   14  C   UNL     1      42.686 -16.329   2.726  1.00  0.00     0.232 C 
HETATM   15  N   UNL     1      43.778 -17.135   2.841  1.00  0.00    -0.324 N 
HETATM   16  H   UNL     1      44.646 -16.659   2.605  1.00  0.00     0.169 HD
HETATM   17  O   UNL     1      42.814 -15.269   2.100  1.00  0.00    -0.272 OA
BRANCH  15  18
HETATM   18  C   UNL     1      43.949 -18.500   3.137  1.00  0.00     0.070 A 
HETATM   19  C   UNL     1      44.253 -18.830   4.476  1.00  0.00     0.097 A 
HETATM   20  C   UNL     1      44.516 -20.160   4.833  1.00  0.00     0.077 A 
HETATM   21  C   UNL     1      44.503 -21.168   3.864  1.00  0.00     0.092 A 
HETATM   22  C   UNL     1      44.220 -20.824   2.533  1.00  0.00     0.069 A 
HETATM   23 CL   UNL     1      44.229 -22.012   1.275  1.00  0.00    -0.081 Cl
HETATM   24  C   UNL     1      43.948 -19.501   2.171  1.00  0.00     0.059 A 
BRANCH  19  25
HETATM   25  O   UNL     1      44.246 -17.769   5.353  1.00  0.00    -0.354 OA
HETATM   26  C   UNL     1      45.208 -17.775   6.402  1.00  0.00     0.210 C 
ENDBRANCH  19  25
BRANCH  21  27
HETATM   27  O   UNL     1      44.758 -22.491   4.114  1.00  0.00    -0.354 OA
HETATM   28  C   UNL     1      45.454 -22.828   5.306  1.00  0.00     0.210 C 
ENDBRANCH  21  27
ENDBRANCH  15  18
ENDBRANCH  13  14
ENDBRANCH  12  13
ENDBRANCH   2  12
BRANCH   1  29
HETATM   29  C   UNL     1      39.272 -13.147   1.426  1.00  0.00     0.043 A 
HETATM   30  C   UNL     1      40.414 -12.905   0.660  1.00  0.00     0.033 A 
HETATM   31  C   UNL     1      40.326 -13.002  -0.734  1.00  0.00     0.039 A 
HETATM   32  C   UNL     1      39.117 -13.357  -1.341  1.00  0.00     0.068 A 
HETATM   33  C   UNL     1      37.986 -13.593  -0.549  1.00  0.00     0.039 A 
HETATM   34  C   UNL     1      38.054 -13.491   0.839  1.00  0.00     0.033 A 
BRANCH  32  35
HETATM   35  O   UNL     1      38.905 -13.530  -2.678  1.00  0.00    -0.352 OA
BRANCH  35  36
HETATM   36  C   UNL     1      37.559 -13.665  -3.132  1.00  0.00     0.171 C 
HETATM   37  C   UNL     1      37.475 -14.931  -3.966  1.00  0.00     0.034 C 
ENDBRANCH  35  36
ENDBRANCH  32  35
ENDBRANCH   1  29
BRANCH   6  38
HETATM   38  N   UNL     1      38.818 -10.829   2.942  1.00  0.00    -0.384 N 
HETATM   39  H   UNL     1      39.531 -10.124   2.780  1.00  0.00     0.157 HD
HETATM   40  H   UNL     1      37.883 -10.454   3.056  1.00  0.00     0.157 HD
ENDBRANCH   6  38
TORSDOF 10
ENDMDL
MODEL 8
REMARK VINA RESULT:      -6.9      2.547      5.034
REMARK  10 active torsions:
REMARK  status: ('A' for Active; 'I' for Inactive)
REMARK    1  A    between atoms: C_2  and  O_3 
REMARK    2  A    between atoms: O_3  and  C_4 
REMARK    3  A    between atoms: C_7  and  N_8 
REMARK    4  A    between atoms: C_9  and  S_10 
REMARK    5  A    between atoms: S_10  and  C_11 
REMARK    6  A    between atoms: C_11  and  C_12 
REMARK       I    between atoms: C_12  and  N_13 
REMARK    7  A    between atoms: N_13  and  C_14 
REMARK    8  A    between atoms: C_15  and  O_16 
REMARK    9  A    between atoms: C_19  and  O_20 
REMARK   10  A    between atoms: C_29  and  N_30 
ROOT
HETATM    1  N   UNL     1      40.827 -14.611   4.051  1.00  0.00    -0.276 N 
HETATM    2  C   UNL     1      40.104 -14.408   2.909  1.00  0.00     0.177 A 
HETATM    3  N   UNL     1      39.293 -13.364   2.708  1.00  0.00    -0.204 NA
HETATM    4  C   UNL     1      39.209 -12.550   3.751  1.00  0.00     0.162 A 
HETATM    5  C   UNL     1      39.892 -12.669   4.939  1.00  0.00     0.081 A 
HETATM    6  C   UNL     1      40.788 -13.737   5.104  1.00  0.00     0.124 A 
HETATM    7  N   UNL     1      38.421 -11.441   3.839  1.00  0.00    -0.260 N 
HETATM    8  H   UNL     1      37.783 -11.075   3.138  1.00  0.00     0.191 HD
HETATM    9  N   UNL     1      38.545 -10.811   5.019  1.00  0.00    -0.177 NA
HETATM   10  C   UNL     1      39.429 -11.553   5.699  1.00  0.00     0.068 A 
HETATM   11  C   UNL     1      39.792 -11.153   7.084  1.00  0.00     0.073 C 
ENDROOT
BRANCH   2  12
HETATM   12  S   UNL     1      40.163 -15.545   1.510  1.00  0.00    -0.082 SA
BRANCH  12  13
HETATM   13  C   UNL     1      41.712 -15.025   0.662  1.00  0.00     0.185 C 
BRANCH  13  14
HETATM   14  C   UNL     1      41.740 -13.541   0.325  1.00  0.00     0.232 C 
HETATM   15  N   UNL     1      41.152 -13.043  -0.799  1.00  0.00    -0.324 N 
HETATM   16  H   UNL     1      41.515 -12.129  -1.061  1.00  0.00     0.169 HD
HETATM   17  O   UNL     1      42.387 -12.759   1.033  1.00  0.00    -0.272 OA
BRANCH  15  18
HETATM   18  C   UNL     1      40.099 -13.486  -1.621  1.00  0.00     0.070 A 
HETATM   19  C   UNL     1      38.836 -12.889  -1.418  1.00  0.00     0.097 A 
HETATM   20  C   UNL     1      37.721 -13.332  -2.143  1.00  0.00     0.077 A 
HETATM   21  C   UNL     1      37.843 -14.385  -3.055  1.00  0.00     0.092 A 
HETATM   22  C   UNL     1      39.100 -14.985  -3.232  1.00  0.00     0.069 A 
HETATM   23 CL   UNL     1      39.317 -16.320  -4.312  1.00  0.00    -0.081 Cl
HETATM   24  C   UNL     1      40.219 -14.542  -2.519  1.00  0.00     0.059 A 
BRANCH  19  25
HETATM   25  O   UNL     1      38.817 -11.865  -0.498  1.00  0.00    -0.354 OA
HETATM   26  C   UNL     1      38.551 -10.552  -0.979  1.00  0.00     0.210 C 
ENDBRANCH  19  25
BRANCH  21  27
HETATM   27  O   UNL     1      36.812 -14.894  -3.799  1.00  0.00    -0.354 OA
HETATM   28  C   UNL     1      36.090 -14.008  -4.644  1.00  0.00     0.210 C 
ENDBRANCH  21  27
ENDBRANCH  15  18
ENDBRANCH  13  14
ENDBRANCH  12  13
ENDBRANCH   2  12
BRANCH   1  29
HETATM   29  C   UNL     1      41.622 -15.800   4.194  1.00  0.00     0.043 A 
HETATM   30  C   UNL     1      41.044 -16.958   4.718  1.00  0.00     0.033 A 
HETATM   31  C   UNL     1      41.788 -18.143   4.723  1.00  0.00     0.039 A 
HETATM   32  C   UNL     1      43.080 -18.167   4.190  1.00  0.00     0.068 A 
HETATM   33  C   UNL     1      43.638 -16.992   3.671  1.00  0.00     0.039 A 
HETATM   34  C   UNL     1      42.915 -15.800   3.668  1.00  0.00     0.033 A 
BRANCH  32  35
HETATM   35  O   UNL     1      43.893 -19.258   4.092  1.00  0.00    -0.352 OA
BRANCH  35  36
HETATM   36  C   UNL     1      44.420 -19.589   2.807  1.00  0.00     0.171 C 
HETATM   37  C   UNL     1      43.307 -20.232   2.000  1.00  0.00     0.034 C 
ENDBRANCH  35  36
ENDBRANCH  32  35
ENDBRANCH   1  29
BRANCH   6  38
HETATM   38  N   UNL     1      41.562 -13.891   6.250  1.00  0.00    -0.384 N 
HETATM   39  H   UNL     1      41.277 -14.589   6.932  1.00  0.00     0.157 HD
HETATM   40  H   UNL     1      42.082 -13.116   6.645  1.00  0.00     0.157 HD
ENDBRANCH   6  38
TORSDOF 10
ENDMDL
MODEL 9
REMARK VINA RESULT:      -6.9      3.142      6.894
REMARK  10 active torsions:
REMARK  status: ('A' for Active; 'I' for Inactive)
REMARK    1  A    between atoms: C_2  and  O_3 
REMARK    2  A    between atoms: O_3  and  C_4 
REMARK    3  A    between atoms: C_7  and  N_8 
REMARK    4  A    between atoms: C_9  and  S_10 
REMARK    5  A    between atoms: S_10  and  C_11 
REMARK    6  A    between atoms: C_11  and  C_12 
REMARK       I    between atoms: C_12  and  N_13 
REMARK    7  A    between atoms: N_13  and  C_14 
REMARK    8  A    between atoms: C_15  and  O_16 
REMARK    9  A    between atoms: C_19  and  O_20 
REMARK   10  A    between atoms: C_29  and  N_30 
ROOT
HETATM    1  N   UNL     1      42.910 -17.044   4.799  1.00  0.00    -0.276 N 
HETATM    2  C   UNL     1      43.476 -17.318   3.586  1.00  0.00     0.177 A 
HETATM    3  N   UNL     1      44.086 -18.471   3.285  1.00  0.00    -0.204 NA
HETATM    4  C   UNL     1      44.140 -19.322   4.298  1.00  0.00     0.162 A 
HETATM    5  C   UNL     1      43.603 -19.138   5.552  1.00  0.00     0.081 A 
HETATM    6  C   UNL     1      42.910 -17.948   5.827  1.00  0.00     0.124 A 
HETATM    7  N   UNL     1      44.744 -20.544   4.286  1.00  0.00    -0.260 N 
HETATM    8  H   UNL     1      45.244 -20.982   3.517  1.00  0.00     0.191 HD
HETATM    9  N   UNL     1      44.636 -21.187   5.460  1.00  0.00    -0.177 NA
HETATM   10  C   UNL     1      43.953 -20.339   6.240  1.00  0.00     0.068 A 
HETATM   11  C   UNL     1      43.667 -20.724   7.647  1.00  0.00     0.073 C 
ENDROOT
BRANCH   2  12
HETATM   12  S   UNL     1      43.464 -16.139   2.222  1.00  0.00    -0.082 SA
BRANCH  12  13
HETATM   13  C   UNL     1      42.381 -16.984   0.998  1.00  0.00     0.185 C 
BRANCH  13  14
HETATM   14  C   UNL     1      40.897 -16.756   1.254  1.00  0.00     0.232 C 
HETATM   15  N   UNL     1      40.286 -15.574   0.961  1.00  0.00    -0.324 N 
HETATM   16  H   UNL     1      39.411 -15.448   1.467  1.00  0.00     0.169 HD
HETATM   17  O   UNL     1      40.229 -17.626   1.827  1.00  0.00    -0.272 OA
BRANCH  15  18
HETATM   18  C   UNL     1      40.564 -14.536   0.053  1.00  0.00     0.070 A 
HETATM   19  C   UNL     1      40.952 -13.294   0.603  1.00  0.00     0.097 A 
HETATM   20  C   UNL     1      41.170 -12.190  -0.233  1.00  0.00     0.077 A 
HETATM   21  C   UNL     1      40.982 -12.300  -1.614  1.00  0.00     0.092 A 
HETATM   22  C   UNL     1      40.576 -13.534  -2.146  1.00  0.00     0.069 A 
HETATM   23 CL   UNL     1      40.283 -13.733  -3.840  1.00  0.00    -0.081 Cl
HETATM   24  C   UNL     1      40.366 -14.643  -1.320  1.00  0.00     0.059 A 
BRANCH  19  25
HETATM   25  O   UNL     1      41.106 -13.285   1.971  1.00  0.00    -0.354 OA
HETATM   26  C   UNL     1      42.212 -12.565   2.504  1.00  0.00     0.210 C 
ENDBRANCH  19  25
BRANCH  21  27
HETATM   27  O   UNL     1      41.159 -11.277  -2.508  1.00  0.00    -0.354 OA
HETATM   28  C   UNL     1      42.486 -10.922  -2.871  1.00  0.00     0.210 C 
ENDBRANCH  21  27
ENDBRANCH  15  18
ENDBRANCH  13  14
ENDBRANCH  12  13
ENDBRANCH   2  12
BRANCH   1  29
HETATM   29  C   UNL     1      42.333 -15.750   5.044  1.00  0.00     0.043 A 
HETATM   30  C   UNL     1      40.958 -15.566   4.881  1.00  0.00     0.033 A 
HETATM   31  C   UNL     1      40.390 -14.343   5.255  1.00  0.00     0.039 A 
HETATM   32  C   UNL     1      41.187 -13.334   5.804  1.00  0.00     0.068 A 
HETATM   33  C   UNL     1      42.564 -13.543   5.956  1.00  0.00     0.039 A 
HETATM   34  C   UNL     1      43.148 -14.751   5.579  1.00  0.00     0.033 A 
BRANCH  32  35
HETATM   35  O   UNL     1      40.757 -12.118   6.250  1.00  0.00    -0.352 OA
BRANCH  35  36
HETATM   36  C   UNL     1      39.481 -11.655   5.811  1.00  0.00     0.171 C 
HETATM   37  C   UNL     1      39.702 -10.751   4.611  1.00  0.00     0.034 C 
ENDBRANCH  35  36
ENDBRANCH  32  35
ENDBRANCH   1  29
BRANCH   6  38
HETATM   38  N   UNL     1      42.286 -17.714   7.048  1.00  0.00    -0.384 N 
HETATM   39  H   UNL     1      41.962 -16.772   7.249  1.00  0.00     0.157 HD
HETATM   40  H   UNL     1      42.518 -18.256   7.873  1.00  0.00     0.157 HD
ENDBRANCH   6  38
TORSDOF 10
ENDMDL
MODEL 10
REMARK VINA RESULT:      -6.8      4.458      6.049
REMARK  10 active torsions:
REMARK  status: ('A' for Active; 'I' for Inactive)
REMARK    1  A    between atoms: C_2  and  O_3 
REMARK    2  A    between atoms: O_3  and  C_4 
REMARK    3  A    between atoms: C_7  and  N_8 
REMARK    4  A    between atoms: C_9  and  S_10 
REMARK    5  A    between atoms: S_10  and  C_11 
REMARK    6  A    between atoms: C_11  and  C_12 
REMARK       I    between atoms: C_12  and  N_13 
REMARK    7  A    between atoms: N_13  and  C_14 
REMARK    8  A    between atoms: C_15  and  O_16 
REMARK    9  A    between atoms: C_19  and  O_20 
REMARK   10  A    between atoms: C_29  and  N_30 
ROOT
HETATM    1  N   UNL     1      42.103 -15.094   4.249  1.00  0.00    -0.276 N 
HETATM    2  C   UNL     1      42.681 -14.072   4.946  1.00  0.00     0.177 A 
HETATM    3  N   UNL     1      42.231 -12.812   4.948  1.00  0.00    -0.204 NA
HETATM    4  C   UNL     1      41.182 -12.625   4.159  1.00  0.00     0.162 A 
HETATM    5  C   UNL     1      40.532 -13.585   3.419  1.00  0.00     0.081 A 
HETATM    6  C   UNL     1      40.982 -14.913   3.483  1.00  0.00     0.124 A 
HETATM    7  N   UNL     1      40.554 -11.437   3.932  1.00  0.00    -0.260 N 
HETATM    8  H   UNL     1      40.790 -10.526   4.318  1.00  0.00     0.191 HD
HETATM    9  N   UNL     1      39.518 -11.552   3.086  1.00  0.00    -0.177 NA
HETATM   10  C   UNL     1      39.500 -12.851   2.760  1.00  0.00     0.068 A 
HETATM   11  C   UNL     1      38.475 -13.340   1.801  1.00  0.00     0.073 C 
ENDROOT
BRANCH   2  12
HETATM   12  S   UNL     1      44.148 -14.306   5.971  1.00  0.00    -0.082 SA
BRANCH  12  13
HETATM   13  C   UNL     1      43.671 -13.436   7.521  1.00  0.00     0.185 C 
BRANCH  13  14
HETATM   14  C   UNL     1      44.813 -12.635   8.133  1.00  0.00     0.232 C 
HETATM   15  N   UNL     1      44.591 -11.556   8.934  1.00  0.00    -0.324 N 
HETATM   16  H   UNL     1      45.400 -10.942   9.000  1.00  0.00     0.169 HD
HETATM   17  O   UNL     1      45.984 -12.902   7.834  1.00  0.00    -0.272 OA
BRANCH  15  18
HETATM   18  C   UNL     1      43.515 -11.157   9.749  1.00  0.00     0.070 A 
HETATM   19  C   UNL     1      42.466 -10.450   9.120  1.00  0.00     0.097 A 
HETATM   20  C   UNL     1      41.398  -9.951   9.878  1.00  0.00     0.077 A 
HETATM   21  C   UNL     1      41.372 -10.126  11.266  1.00  0.00     0.092 A 
HETATM   22  C   UNL     1      42.431 -10.811  11.881  1.00  0.00     0.069 A 
HETATM   23 CL   UNL     1      42.488 -11.028  13.597  1.00  0.00    -0.081 Cl
HETATM   24  C   UNL     1      43.496 -11.321  11.130  1.00  0.00     0.059 A 
BRANCH  19  25
HETATM   25  O   UNL     1      42.584 -10.327   7.754  1.00  0.00    -0.354 OA
HETATM   26  C   UNL     1      41.502  -9.725   7.052  1.00  0.00     0.210 C 
ENDBRANCH  19  25
BRANCH  21  27
HETATM   27  O   UNL     1      40.380  -9.664  12.090  1.00  0.00    -0.354 OA
HETATM   28  C   UNL     1      40.400  -8.293  12.464  1.00  0.00     0.210 C 
ENDBRANCH  21  27
ENDBRANCH  15  18
ENDBRANCH  13  14
ENDBRANCH  12  13
ENDBRANCH   2  12
BRANCH   1  29
HETATM   29  C   UNL     1      42.702 -16.401   4.263  1.00  0.00     0.043 A 
HETATM   30  C   UNL     1      42.349 -17.310   5.263  1.00  0.00     0.033 A 
HETATM   31  C   UNL     1      42.832 -18.621   5.186  1.00  0.00     0.039 A 
HETATM   32  C   UNL     1      43.636 -19.015   4.111  1.00  0.00     0.068 A 
HETATM   33  C   UNL     1      43.976 -18.084   3.122  1.00  0.00     0.039 A 
HETATM   34  C   UNL     1      43.512 -16.771   3.188  1.00  0.00     0.033 A 
BRANCH  32  35
HETATM   35  O   UNL     1      44.134 -20.266   3.891  1.00  0.00    -0.352 OA
BRANCH  35  36
HETATM   36  C   UNL     1      44.771 -20.524   2.641  1.00  0.00     0.171 C 
HETATM   37  C   UNL     1      44.168 -21.793   2.064  1.00  0.00     0.034 C 
ENDBRANCH  35  36
ENDBRANCH  32  35
ENDBRANCH   1  29
BRANCH   6  38
HETATM   38  N   UNL     1      40.341 -15.952   2.815  1.00  0.00    -0.384 N 
HETATM   39  H   UNL     1      39.422 -15.773   2.419  1.00  0.00     0.157 HD
HETATM   40  H   UNL     1      40.502 -16.921   3.065  1.00  0.00     0.157 HD
ENDBRANCH   6  38
TORSDOF 10
ENDMDL
