MODEL 1
REMARK VINA RESULT:     -10.7      0.000      0.000
REMARK  6 active torsions:
REMARK  status: ('A' for Active; 'I' for Inactive)
REMARK    1  A    between atoms: C_6  and  O_7 
REMARK    2  A    between atoms: C_6  and  C_8 
REMARK    3  A    between atoms: C_8  and  N_9 
REMARK       I    between atoms: N_9  and  C_10 
REMARK    4  A    between atoms: C_10  and  C_11 
REMARK       I    between atoms: C_11  and  N_12 
REMARK    5  A    between atoms: N_12  and  C_13 
REMARK       I    between atoms: N_17  and  C_18 
REMARK    6  A    between atoms: C_18  and  C_19 
ROOT
HETATM    1  C   UNL     1      40.510 -12.903   6.055  1.00  0.00     0.313 C 
HETATM    2  N   UNL     1      41.830 -13.292   5.979  1.00  0.00    -0.319 N 
HETATM    3  O   UNL     1      39.504 -13.521   5.732  1.00  0.00    -0.262 OA
HETATM    4  H   UNL     1      42.494 -12.631   6.373  1.00  0.00     0.169 HD
ENDROOT
BRANCH   1   5
HETATM    5  C   UNL     1      40.342 -11.477   6.626  1.00  0.00     0.309 C 
HETATM    6  N   UNL     1      39.898 -11.470   7.923  1.00  0.00    -0.350 N 
HETATM    7  H   UNL     1      39.839 -12.372   8.396  1.00  0.00     0.163 HD
HETATM    8  O   UNL     1      40.578 -10.499   5.933  1.00  0.00    -0.262 OA
BRANCH   6   9
HETATM    9  C   UNL     1      39.611 -10.273   8.687  1.00  0.00     0.161 C 
BRANCH   9  10
HETATM   10  C   UNL     1      40.018 -10.452  10.168  1.00  0.00     0.078 C 
HETATM   11  C   UNL     1      41.467  -9.966  10.381  1.00  0.00     0.078 C 
HETATM   12  C   UNL     1      41.858  -9.795  11.832  1.00  0.00    -0.049 A 
HETATM   13  C   UNL     1      40.896  -9.734  12.854  1.00  0.00    -0.052 A 
HETATM   14  C   UNL     1      43.215  -9.645  12.159  1.00  0.00     0.007 A 
HETATM   15  C   UNL     1      41.309  -9.564  14.184  1.00  0.00     0.007 A 
HETATM   16  C   UNL     1      39.427  -9.912  12.566  1.00  0.00     0.042 C 
HETATM   17  C   UNL     1      42.661  -9.428  14.496  1.00  0.00     0.001 A 
HETATM   18  C   UNL     1      43.613  -9.465  13.483  1.00  0.00     0.001 A 
HETATM   19  C   UNL     1      39.070  -9.680  11.100  1.00  0.00     0.044 C 
BRANCH  10  20
HETATM   20  O   UNL     1      39.904 -11.854  10.479  1.00  0.00    -0.388 OA
HETATM   21  H   UNL     1      38.963 -12.100  10.448  1.00  0.00     0.210 HD
ENDBRANCH  10  20
ENDBRANCH   9  10
ENDBRANCH   6   9
ENDBRANCH   1   5
BRANCH   2  22
HETATM   22  C   UNL     1      42.333 -14.472   5.405  1.00  0.00     0.035 A 
HETATM   23  C   UNL     1      42.362 -14.708   4.032  1.00  0.00     0.039 A 
HETATM   24  C   UNL     1      42.918 -15.891   3.504  1.00  0.00    -0.029 A 
HETATM   25  C   UNL     1      43.431 -16.889   4.359  1.00  0.00     0.043 A 
HETATM   26  C   UNL     1      42.913 -16.044   2.006  1.00  0.00     0.042 C 
HETATM   27  N   UNL     1      43.943 -18.122   3.808  1.00  0.00    -0.313 N 
HETATM   28  C   UNL     1      43.375 -16.642   5.738  1.00  0.00     0.032 A 
HETATM   29  C   UNL     1      44.614 -19.096   4.589  1.00  0.00     0.265 C 
HETATM   30  C   UNL     1      43.793 -18.319   2.360  1.00  0.00     0.133 C 
HETATM   31  O   UNL     1      45.166 -18.835   5.658  1.00  0.00    -0.267 OA
HETATM   32  C   UNL     1      43.967 -17.037   1.567  1.00  0.00     0.025 C 
HETATM   33  C   UNL     1      42.849 -15.447   6.253  1.00  0.00     0.032 A 
BRANCH  29  34
HETATM   34  C   UNL     1      44.630 -20.460   4.063  1.00  0.00     0.073 A 
HETATM   35  S   UNL     1      44.743 -21.778   5.153  1.00  0.00    -0.097 SA
HETATM   36  C   UNL     1      44.717 -22.919   3.881  1.00  0.00     0.050 A 
HETATM   37  C   UNL     1      44.592 -22.318   2.649  1.00  0.00     0.009 A 
HETATM   38  C   UNL     1      44.526 -20.897   2.754  1.00  0.00     0.025 A 
ENDBRANCH  29  34
ENDBRANCH   2  22
TORSDOF 6
ENDMDL
MODEL 2
REMARK VINA RESULT:     -10.6      1.290      1.735
REMARK  6 active torsions:
REMARK  status: ('A' for Active; 'I' for Inactive)
REMARK    1  A    between atoms: C_6  and  O_7 
REMARK    2  A    between atoms: C_6  and  C_8 
REMARK    3  A    between atoms: C_8  and  N_9 
REMARK       I    between atoms: N_9  and  C_10 
REMARK    4  A    between atoms: C_10  and  C_11 
REMARK       I    between atoms: C_11  and  N_12 
REMARK    5  A    between atoms: N_12  and  C_13 
REMARK       I    between atoms: N_17  and  C_18 
REMARK    6  A    between atoms: C_18  and  C_19 
ROOT
HETATM    1  C   UNL     1      40.656 -12.419   5.874  1.00  0.00     0.313 C 
HETATM    2  N   UNL     1      40.227 -13.729   5.834  1.00  0.00    -0.319 N 
HETATM    3  O   UNL     1      41.598 -11.898   5.290  1.00  0.00    -0.262 OA
HETATM    4  H   UNL     1      39.374 -13.915   6.355  1.00  0.00     0.169 HD
ENDROOT
BRANCH   1   5
HETATM    5  C   UNL     1      39.796 -11.540   6.807  1.00  0.00     0.309 C 
HETATM    6  N   UNL     1      40.041 -11.771   8.136  1.00  0.00    -0.350 N 
HETATM    7  H   UNL     1      40.819 -12.392   8.361  1.00  0.00     0.163 HD
HETATM    8  O   UNL     1      38.983 -10.753   6.344  1.00  0.00    -0.262 OA
BRANCH   6   9
HETATM    9  C   UNL     1      39.344 -11.121   9.226  1.00  0.00     0.161 C 
BRANCH   9  10
HETATM   10  C   UNL     1      40.329 -10.336  10.123  1.00  0.00     0.078 C 
HETATM   11  C   UNL     1      40.140 -10.745  11.599  1.00  0.00     0.078 C 
HETATM   12  C   UNL     1      41.252 -10.288  12.518  1.00  0.00    -0.049 A 
HETATM   13  C   UNL     1      42.493  -9.858  12.017  1.00  0.00    -0.052 A 
HETATM   14  C   UNL     1      41.054 -10.341  13.906  1.00  0.00     0.007 A 
HETATM   15  C   UNL     1      43.496  -9.452  12.911  1.00  0.00     0.007 A 
HETATM   16  C   UNL     1      42.755  -9.757  10.536  1.00  0.00     0.042 C 
HETATM   17  C   UNL     1      43.283  -9.499  14.288  1.00  0.00     0.001 A 
HETATM   18  C   UNL     1      42.063  -9.947  14.785  1.00  0.00     0.001 A 
HETATM   19  C   UNL     1      41.785 -10.586   9.698  1.00  0.00     0.044 C 
BRANCH  10  20
HETATM   20  O   UNL     1      40.048  -8.934   9.948  1.00  0.00    -0.388 OA
HETATM   21  H   UNL     1      40.249  -8.474  10.781  1.00  0.00     0.210 HD
ENDBRANCH  10  20
ENDBRANCH   9  10
ENDBRANCH   6   9
ENDBRANCH   1   5
BRANCH   2  22
HETATM   22  C   UNL     1      40.852 -14.805   5.181  1.00  0.00     0.035 A 
HETATM   23  C   UNL     1      40.591 -15.159   3.859  1.00  0.00     0.039 A 
HETATM   24  C   UNL     1      41.277 -16.221   3.237  1.00  0.00    -0.029 A 
HETATM   25  C   UNL     1      42.226 -16.982   3.950  1.00  0.00     0.043 A 
HETATM   26  C   UNL     1      40.932 -16.515   1.800  1.00  0.00     0.042 C 
HETATM   27  N   UNL     1      42.879 -18.105   3.319  1.00  0.00    -0.313 N 
HETATM   28  C   UNL     1      42.460 -16.624   5.286  1.00  0.00     0.032 A 
HETATM   29  C   UNL     1      43.951 -18.812   3.919  1.00  0.00     0.265 C 
HETATM   30  C   UNL     1      42.421 -18.471   1.971  1.00  0.00     0.133 C 
HETATM   31  O   UNL     1      44.670 -18.326   4.791  1.00  0.00    -0.267 OA
HETATM   32  C   UNL     1      42.057 -17.266   1.123  1.00  0.00     0.025 C 
HETATM   33  C   UNL     1      41.796 -15.544   5.888  1.00  0.00     0.032 A 
BRANCH  29  34
HETATM   34  C   UNL     1      44.179 -20.177   3.449  1.00  0.00     0.073 A 
HETATM   35  S   UNL     1      44.659 -21.381   4.572  1.00  0.00    -0.097 SA
HETATM   36  C   UNL     1      44.727 -22.581   3.356  1.00  0.00     0.050 A 
HETATM   37  C   UNL     1      44.361 -22.091   2.123  1.00  0.00     0.009 A 
HETATM   38  C   UNL     1      44.029 -20.705   2.179  1.00  0.00     0.025 A 
ENDBRANCH  29  34
ENDBRANCH   2  22
TORSDOF 6
ENDMDL
MODEL 3
REMARK VINA RESULT:     -10.1      6.390     10.886
REMARK  6 active torsions:
REMARK  status: ('A' for Active; 'I' for Inactive)
REMARK    1  A    between atoms: C_6  and  O_7 
REMARK    2  A    between atoms: C_6  and  C_8 
REMARK    3  A    between atoms: C_8  and  N_9 
REMARK       I    between atoms: N_9  and  C_10 
REMARK    4  A    between atoms: C_10  and  C_11 
REMARK       I    between atoms: C_11  and  N_12 
REMARK    5  A    between atoms: N_12  and  C_13 
REMARK       I    between atoms: N_17  and  C_18 
REMARK    6  A    between atoms: C_18  and  C_19 
ROOT
HETATM    1  C   UNL     1      40.883 -14.673   3.465  1.00  0.00     0.313 C 
HETATM    2  N   UNL     1      41.691 -14.785   2.353  1.00  0.00    -0.319 N 
HETATM    3  O   UNL     1      39.805 -14.104   3.580  1.00  0.00    -0.262 OA
HETATM    4  H   UNL     1      42.515 -15.368   2.481  1.00  0.00     0.169 HD
ENDROOT
BRANCH   1   5
HETATM    5  C   UNL     1      41.478 -15.374   4.706  1.00  0.00     0.309 C 
HETATM    6  N   UNL     1      42.806 -15.680   4.562  1.00  0.00    -0.350 N 
HETATM    7  H   UNL     1      43.275 -15.322   3.729  1.00  0.00     0.163 HD
HETATM    8  O   UNL     1      40.776 -15.622   5.675  1.00  0.00    -0.262 OA
BRANCH   6   9
HETATM    9  C   UNL     1      43.601 -16.380   5.550  1.00  0.00     0.161 C 
BRANCH   9  10
HETATM   10  C   UNL     1      43.578 -17.906   5.299  1.00  0.00     0.078 C 
HETATM   11  C   UNL     1      43.585 -18.192   3.782  1.00  0.00     0.078 C 
HETATM   12  C   UNL     1      43.885 -19.631   3.423  1.00  0.00    -0.049 A 
HETATM   13  C   UNL     1      44.453 -20.520   4.351  1.00  0.00    -0.052 A 
HETATM   14  C   UNL     1      43.635 -20.073   2.114  1.00  0.00     0.007 A 
HETATM   15  C   UNL     1      44.721 -21.842   3.966  1.00  0.00     0.007 A 
HETATM   16  C   UNL     1      44.722 -20.109   5.776  1.00  0.00     0.042 C 
HETATM   17  C   UNL     1      44.457 -22.272   2.667  1.00  0.00     0.001 A 
HETATM   18  C   UNL     1      43.917 -21.386   1.740  1.00  0.00     0.001 A 
HETATM   19  C   UNL     1      44.780 -18.595   5.963  1.00  0.00     0.044 C 
BRANCH  10  20
HETATM   20  O   UNL     1      42.377 -18.423   5.904  1.00  0.00    -0.388 OA
HETATM   21  H   UNL     1      42.541 -19.344   6.173  1.00  0.00     0.210 HD
ENDBRANCH  10  20
ENDBRANCH   9  10
ENDBRANCH   6   9
ENDBRANCH   1   5
BRANCH   2  22
HETATM   22  C   UNL     1      41.503 -14.170   1.104  1.00  0.00     0.035 A 
HETATM   23  C   UNL     1      41.166 -14.866  -0.054  1.00  0.00     0.039 A 
HETATM   24  C   UNL     1      40.946 -14.195  -1.274  1.00  0.00    -0.029 A 
HETATM   25  C   UNL     1      41.097 -12.796  -1.364  1.00  0.00     0.043 A 
HETATM   26  C   UNL     1      40.572 -15.039  -2.464  1.00  0.00     0.042 C 
HETATM   27  N   UNL     1      40.927 -12.128  -2.633  1.00  0.00    -0.313 N 
HETATM   28  C   UNL     1      41.457 -12.115  -0.192  1.00  0.00     0.032 A 
HETATM   29  C   UNL     1      40.908 -10.717  -2.766  1.00  0.00     0.265 C 
HETATM   30  C   UNL     1      40.712 -12.979  -3.811  1.00  0.00     0.133 C 
HETATM   31  O   UNL     1      40.634  -9.959  -1.836  1.00  0.00    -0.267 OA
HETATM   32  C   UNL     1      39.867 -14.203  -3.511  1.00  0.00     0.025 C 
HETATM   33  C   UNL     1      41.642 -12.787   1.026  1.00  0.00     0.032 A 
BRANCH  29  34
HETATM   34  C   UNL     1      41.234 -10.180  -4.086  1.00  0.00     0.073 A 
HETATM   35  S   UNL     1      39.962  -9.762  -5.157  1.00  0.00    -0.097 SA
HETATM   36  C   UNL     1      41.059  -9.272  -6.374  1.00  0.00     0.050 A 
HETATM   37  C   UNL     1      42.369  -9.389  -5.967  1.00  0.00     0.009 A 
HETATM   38  C   UNL     1      42.471  -9.900  -4.640  1.00  0.00     0.025 A 
ENDBRANCH  29  34
ENDBRANCH   2  22
TORSDOF 6
ENDMDL
MODEL 4
REMARK VINA RESULT:     -10.0      6.472     10.888
REMARK  6 active torsions:
REMARK  status: ('A' for Active; 'I' for Inactive)
REMARK    1  A    between atoms: C_6  and  O_7 
REMARK    2  A    between atoms: C_6  and  C_8 
REMARK    3  A    between atoms: C_8  and  N_9 
REMARK       I    between atoms: N_9  and  C_10 
REMARK    4  A    between atoms: C_10  and  C_11 
REMARK       I    between atoms: C_11  and  N_12 
REMARK    5  A    between atoms: N_12  and  C_13 
REMARK       I    between atoms: N_17  and  C_18 
REMARK    6  A    between atoms: C_18  and  C_19 
ROOT
HETATM    1  C   UNL     1      42.422 -13.640   3.021  1.00  0.00     0.313 C 
HETATM    2  N   UNL     1      42.043 -14.560   2.066  1.00  0.00    -0.319 N 
HETATM    3  O   UNL     1      42.103 -12.463   3.127  1.00  0.00    -0.262 OA
HETATM    4  H   UNL     1      42.385 -15.504   2.223  1.00  0.00     0.169 HD
ENDROOT
BRANCH   1   5
HETATM    5  C   UNL     1      43.389 -14.234   4.069  1.00  0.00     0.309 C 
HETATM    6  N   UNL     1      42.958 -15.433   4.575  1.00  0.00    -0.350 N 
HETATM    7  H   UNL     1      42.135 -15.849   4.139  1.00  0.00     0.163 HD
HETATM    8  O   UNL     1      44.406 -13.635   4.385  1.00  0.00    -0.262 OA
BRANCH   6   9
HETATM    9  C   UNL     1      43.645 -16.186   5.603  1.00  0.00     0.161 C 
BRANCH   9  10
HETATM   10  C   UNL     1      43.610 -17.701   5.296  1.00  0.00     0.078 C 
HETATM   11  C   UNL     1      43.535 -17.930   3.772  1.00  0.00     0.078 C 
HETATM   12  C   UNL     1      43.817 -19.354   3.343  1.00  0.00    -0.049 A 
HETATM   13  C   UNL     1      44.435 -20.276   4.205  1.00  0.00    -0.052 A 
HETATM   14  C   UNL     1      43.495 -19.747   2.035  1.00  0.00     0.007 A 
HETATM   15  C   UNL     1      44.682 -21.582   3.757  1.00  0.00     0.007 A 
HETATM   16  C   UNL     1      44.780 -19.918   5.628  1.00  0.00     0.042 C 
HETATM   17  C   UNL     1      44.348 -21.964   2.458  1.00  0.00     0.001 A 
HETATM   18  C   UNL     1      43.758 -21.044   1.597  1.00  0.00     0.001 A 
HETATM   19  C   UNL     1      44.848 -18.411   5.868  1.00  0.00     0.044 C 
BRANCH  10  20
HETATM   20  O   UNL     1      42.445 -18.244   5.946  1.00  0.00    -0.388 OA
HETATM   21  H   UNL     1      42.712 -19.036   6.446  1.00  0.00     0.210 HD
ENDBRANCH  10  20
ENDBRANCH   9  10
ENDBRANCH   6   9
ENDBRANCH   1   5
BRANCH   2  22
HETATM   22  C   UNL     1      41.271 -14.318   0.917  1.00  0.00     0.035 A 
HETATM   23  C   UNL     1      41.433 -15.015  -0.278  1.00  0.00     0.039 A 
HETATM   24  C   UNL     1      40.603 -14.764  -1.390  1.00  0.00    -0.029 A 
HETATM   25  C   UNL     1      39.603 -13.770  -1.333  1.00  0.00     0.043 A 
HETATM   26  C   UNL     1      40.850 -15.581  -2.631  1.00  0.00     0.042 C 
HETATM   27  N   UNL     1      38.800 -13.483  -2.497  1.00  0.00    -0.313 N 
HETATM   28  C   UNL     1      39.470 -13.066  -0.127  1.00  0.00     0.032 A 
HETATM   29  C   UNL     1      37.680 -12.614  -2.466  1.00  0.00     0.265 C 
HETATM   30  C   UNL     1      39.153 -14.180  -3.741  1.00  0.00     0.133 C 
HETATM   31  O   UNL     1      37.059 -12.356  -1.435  1.00  0.00    -0.267 OA
HETATM   32  C   UNL     1      39.618 -15.606  -3.508  1.00  0.00     0.025 C 
HETATM   33  C   UNL     1      40.279 -13.345   0.985  1.00  0.00     0.032 A 
BRANCH  29  34
HETATM   34  C   UNL     1      37.276 -12.021  -3.740  1.00  0.00     0.073 A 
HETATM   35  S   UNL     1      35.930 -12.674  -4.579  1.00  0.00    -0.097 SA
HETATM   36  C   UNL     1      36.097 -11.549  -5.855  1.00  0.00     0.050 A 
HETATM   37  C   UNL     1      37.133 -10.669  -5.638  1.00  0.00     0.009 A 
HETATM   38  C   UNL     1      37.805 -10.932  -4.409  1.00  0.00     0.025 A 
ENDBRANCH  29  34
ENDBRANCH   2  22
TORSDOF 6
ENDMDL
MODEL 5
REMARK VINA RESULT:      -9.8      7.301     11.950
REMARK  6 active torsions:
REMARK  status: ('A' for Active; 'I' for Inactive)
REMARK    1  A    between atoms: C_6  and  O_7 
REMARK    2  A    between atoms: C_6  and  C_8 
REMARK    3  A    between atoms: C_8  and  N_9 
REMARK       I    between atoms: N_9  and  C_10 
REMARK    4  A    between atoms: C_10  and  C_11 
REMARK       I    between atoms: C_11  and  N_12 
REMARK    5  A    between atoms: N_12  and  C_13 
REMARK       I    between atoms: N_17  and  C_18 
REMARK    6  A    between atoms: C_18  and  C_19 
ROOT
HETATM    1  C   UNL     1      41.599 -14.544   0.687  1.00  0.00     0.313 C 
HETATM    2  N   UNL     1      40.870 -13.391   0.487  1.00  0.00    -0.319 N 
HETATM    3  O   UNL     1      41.731 -15.510  -0.053  1.00  0.00    -0.262 OA
HETATM    4  H   UNL     1      40.966 -12.693   1.221  1.00  0.00     0.169 HD
ENDROOT
BRANCH   1   5
HETATM    5  C   UNL     1      42.316 -14.566   2.055  1.00  0.00     0.309 C 
HETATM    6  N   UNL     1      42.198 -15.769   2.702  1.00  0.00    -0.350 N 
HETATM    7  H   UNL     1      41.766 -16.533   2.181  1.00  0.00     0.163 HD
HETATM    8  O   UNL     1      42.893 -13.571   2.469  1.00  0.00    -0.262 OA
BRANCH   6   9
HETATM    9  C   UNL     1      42.733 -16.050   4.017  1.00  0.00     0.161 C 
BRANCH   9  10
HETATM   10  C   UNL     1      42.955 -17.569   4.211  1.00  0.00     0.078 C 
HETATM   11  C   UNL     1      43.100 -18.261   2.840  1.00  0.00     0.078 C 
HETATM   12  C   UNL     1      43.633 -19.675   2.911  1.00  0.00    -0.049 A 
HETATM   13  C   UNL     1      44.268 -20.167   4.065  1.00  0.00    -0.052 A 
HETATM   14  C   UNL     1      43.534 -20.499   1.779  1.00  0.00     0.007 A 
HETATM   15  C   UNL     1      44.754 -21.483   4.078  1.00  0.00     0.007 A 
HETATM   16  C   UNL     1      44.382 -19.338   5.318  1.00  0.00     0.042 C 
HETATM   17  C   UNL     1      44.639 -22.295   2.951  1.00  0.00     0.001 A 
HETATM   18  C   UNL     1      44.033 -21.801   1.800  1.00  0.00     0.001 A 
HETATM   19  C   UNL     1      44.202 -17.842   5.066  1.00  0.00     0.044 C 
BRANCH  10  20
HETATM   20  O   UNL     1      41.809 -18.083   4.917  1.00  0.00    -0.388 OA
HETATM   21  H   UNL     1      41.572 -17.452   5.619  1.00  0.00     0.210 HD
ENDBRANCH  10  20
ENDBRANCH   9  10
ENDBRANCH   6   9
ENDBRANCH   1   5
BRANCH   2  22
HETATM   22  C   UNL     1      40.015 -13.105  -0.590  1.00  0.00     0.035 A 
HETATM   23  C   UNL     1      40.131 -11.965  -1.383  1.00  0.00     0.039 A 
HETATM   24  C   UNL     1      39.273 -11.746  -2.480  1.00  0.00    -0.029 A 
HETATM   25  C   UNL     1      38.247 -12.664  -2.786  1.00  0.00     0.043 A 
HETATM   26  C   UNL     1      39.489 -10.489  -3.281  1.00  0.00     0.042 C 
HETATM   27  N   UNL     1      37.339 -12.398  -3.877  1.00  0.00    -0.313 N 
HETATM   28  C   UNL     1      38.135 -13.795  -1.965  1.00  0.00     0.032 A 
HETATM   29  C   UNL     1      36.390 -13.345  -4.338  1.00  0.00     0.265 C 
HETATM   30  C   UNL     1      37.467 -11.099  -4.551  1.00  0.00     0.133 C 
HETATM   31  O   UNL     1      36.507 -14.557  -4.155  1.00  0.00    -0.267 OA
HETATM   32  C   UNL     1      38.906 -10.634  -4.670  1.00  0.00     0.025 C 
HETATM   33  C   UNL     1      39.013 -14.021  -0.894  1.00  0.00     0.032 A 
BRANCH  29  34
HETATM   34  C   UNL     1      35.235 -12.815  -5.062  1.00  0.00     0.073 A 
HETATM   35  S   UNL     1      35.177 -12.962  -6.769  1.00  0.00    -0.097 SA
HETATM   36  C   UNL     1      33.667 -12.164  -6.852  1.00  0.00     0.050 A 
HETATM   37  C   UNL     1      33.194 -11.820  -5.606  1.00  0.00     0.009 A 
HETATM   38  C   UNL     1      34.093 -12.209  -4.570  1.00  0.00     0.025 A 
ENDBRANCH  29  34
ENDBRANCH   2  22
TORSDOF 6
ENDMDL
MODEL 6
REMARK VINA RESULT:      -9.7      6.200     10.629
REMARK  6 active torsions:
REMARK  status: ('A' for Active; 'I' for Inactive)
REMARK    1  A    between atoms: C_6  and  O_7 
REMARK    2  A    between atoms: C_6  and  C_8 
REMARK    3  A    between atoms: C_8  and  N_9 
REMARK       I    between atoms: N_9  and  C_10 
REMARK    4  A    between atoms: C_10  and  C_11 
REMARK       I    between atoms: C_11  and  N_12 
REMARK    5  A    between atoms: N_12  and  C_13 
REMARK       I    between atoms: N_17  and  C_18 
REMARK    6  A    between atoms: C_18  and  C_19 
ROOT
HETATM    1  C   UNL     1      42.286 -13.369   3.641  1.00  0.00     0.313 C 
HETATM    2  N   UNL     1      41.742 -14.210   2.693  1.00  0.00    -0.319 N 
HETATM    3  O   UNL     1      42.029 -12.193   3.867  1.00  0.00    -0.262 OA
HETATM    4  H   UNL     1      42.067 -15.172   2.739  1.00  0.00     0.169 HD
ENDROOT
BRANCH   1   5
HETATM    5  C   UNL     1      43.367 -14.060   4.500  1.00  0.00     0.309 C 
HETATM    6  N   UNL     1      42.915 -15.201   5.112  1.00  0.00    -0.350 N 
HETATM    7  H   UNL     1      41.983 -15.526   4.853  1.00  0.00     0.163 HD
HETATM    8  O   UNL     1      44.485 -13.576   4.599  1.00  0.00    -0.262 OA
BRANCH   6   9
HETATM    9  C   UNL     1      43.703 -16.019   6.010  1.00  0.00     0.161 C 
BRANCH   9  10
HETATM   10  C   UNL     1      43.647 -17.508   5.594  1.00  0.00     0.078 C 
HETATM   11  C   UNL     1      43.528 -17.625   4.060  1.00  0.00     0.078 C 
HETATM   12  C   UNL     1      43.785 -19.015   3.521  1.00  0.00    -0.049 A 
HETATM   13  C   UNL     1      44.419 -20.001   4.296  1.00  0.00    -0.052 A 
HETATM   14  C   UNL     1      43.424 -19.310   2.197  1.00  0.00     0.007 A 
HETATM   15  C   UNL     1      44.643 -21.273   3.747  1.00  0.00     0.007 A 
HETATM   16  C   UNL     1      44.806 -19.751   5.731  1.00  0.00     0.042 C 
HETATM   17  C   UNL     1      44.269 -21.557   2.434  1.00  0.00     0.001 A 
HETATM   18  C   UNL     1      43.664 -20.573   1.659  1.00  0.00     0.001 A 
HETATM   19  C   UNL     1      44.893 -18.266   6.077  1.00  0.00     0.044 C 
BRANCH  10  20
HETATM   20  O   UNL     1      42.495 -18.090   6.235  1.00  0.00    -0.388 OA
HETATM   21  H   UNL     1      42.315 -18.951   5.821  1.00  0.00     0.210 HD
ENDBRANCH  10  20
ENDBRANCH   9  10
ENDBRANCH   6   9
ENDBRANCH   1   5
BRANCH   2  22
HETATM   22  C   UNL     1      40.826 -13.868   1.683  1.00  0.00     0.035 A 
HETATM   23  C   UNL     1      39.651 -13.159   1.918  1.00  0.00     0.039 A 
HETATM   24  C   UNL     1      38.787 -12.804   0.863  1.00  0.00    -0.029 A 
HETATM   25  C   UNL     1      39.073 -13.190  -0.463  1.00  0.00     0.043 A 
HETATM   26  C   UNL     1      37.548 -12.026   1.221  1.00  0.00     0.042 C 
HETATM   27  N   UNL     1      38.149 -12.871  -1.526  1.00  0.00    -0.313 N 
HETATM   28  C   UNL     1      40.251 -13.921  -0.677  1.00  0.00     0.032 A 
HETATM   29  C   UNL     1      38.445 -13.088  -2.896  1.00  0.00     0.265 C 
HETATM   30  C   UNL     1      36.877 -12.247  -1.140  1.00  0.00     0.133 C 
HETATM   31  O   UNL     1      39.594 -13.172  -3.329  1.00  0.00    -0.267 OA
HETATM   32  C   UNL     1      37.022 -11.276   0.017  1.00  0.00     0.025 C 
HETATM   33  C   UNL     1      41.122 -14.242   0.376  1.00  0.00     0.032 A 
BRANCH  29  34
HETATM   34  C   UNL     1      37.304 -13.207  -3.801  1.00  0.00     0.073 A 
HETATM   35  S   UNL     1      36.701 -11.804  -4.580  1.00  0.00    -0.097 SA
HETATM   36  C   UNL     1      35.477 -12.692  -5.378  1.00  0.00     0.050 A 
HETATM   37  C   UNL     1      35.540 -14.036  -5.088  1.00  0.00     0.009 A 
HETATM   38  C   UNL     1      36.605 -14.337  -4.189  1.00  0.00     0.025 A 
ENDBRANCH  29  34
ENDBRANCH   2  22
TORSDOF 6
ENDMDL
MODEL 7
REMARK VINA RESULT:      -9.5      7.375     12.173
REMARK  6 active torsions:
REMARK  status: ('A' for Active; 'I' for Inactive)
REMARK    1  A    between atoms: C_6  and  O_7 
REMARK    2  A    between atoms: C_6  and  C_8 
REMARK    3  A    between atoms: C_8  and  N_9 
REMARK       I    between atoms: N_9  and  C_10 
REMARK    4  A    between atoms: C_10  and  C_11 
REMARK       I    between atoms: C_11  and  N_12 
REMARK    5  A    between atoms: N_12  and  C_13 
REMARK       I    between atoms: N_17  and  C_18 
REMARK    6  A    between atoms: C_18  and  C_19 
ROOT
HETATM    1  C   UNL     1      40.499 -14.691   1.366  1.00  0.00     0.313 C 
HETATM    2  N   UNL     1      40.639 -13.850   0.283  1.00  0.00    -0.319 N 
HETATM    3  O   UNL     1      39.532 -15.365   1.699  1.00  0.00    -0.262 OA
HETATM    4  H   UNL     1      41.565 -13.445   0.173  1.00  0.00     0.169 HD
ENDROOT
BRANCH   1   5
HETATM    5  C   UNL     1      41.766 -14.742   2.248  1.00  0.00     0.309 C 
HETATM    6  N   UNL     1      41.797 -15.833   3.078  1.00  0.00    -0.350 N 
HETATM    7  H   UNL     1      41.065 -16.533   2.947  1.00  0.00     0.163 HD
HETATM    8  O   UNL     1      42.605 -13.856   2.180  1.00  0.00    -0.262 OA
BRANCH   6   9
HETATM    9  C   UNL     1      42.843 -16.104   4.041  1.00  0.00     0.161 C 
BRANCH   9  10
HETATM   10  C   UNL     1      43.035 -17.626   4.236  1.00  0.00     0.078 C 
HETATM   11  C   UNL     1      43.196 -18.319   2.867  1.00  0.00     0.078 C 
HETATM   12  C   UNL     1      43.704 -19.741   2.946  1.00  0.00    -0.049 A 
HETATM   13  C   UNL     1      44.308 -20.246   4.110  1.00  0.00    -0.052 A 
HETATM   14  C   UNL     1      43.614 -20.561   1.810  1.00  0.00     0.007 A 
HETATM   15  C   UNL     1      44.771 -21.570   4.130  1.00  0.00     0.007 A 
HETATM   16  C   UNL     1      44.411 -19.420   5.367  1.00  0.00     0.042 C 
HETATM   17  C   UNL     1      44.665 -22.378   2.999  1.00  0.00     0.001 A 
HETATM   18  C   UNL     1      44.090 -21.871   1.838  1.00  0.00     0.001 A 
HETATM   19  C   UNL     1      44.261 -17.922   5.115  1.00  0.00     0.044 C 
BRANCH  10  20
HETATM   20  O   UNL     1      41.867 -18.123   4.919  1.00  0.00    -0.388 OA
HETATM   21  H   UNL     1      41.147 -18.210   4.271  1.00  0.00     0.210 HD
ENDBRANCH  10  20
ENDBRANCH   9  10
ENDBRANCH   6   9
ENDBRANCH   1   5
BRANCH   2  22
HETATM   22  C   UNL     1      39.646 -13.490  -0.644  1.00  0.00     0.035 A 
HETATM   23  C   UNL     1      39.308 -14.266  -1.749  1.00  0.00     0.039 A 
HETATM   24  C   UNL     1      38.273 -13.881  -2.626  1.00  0.00    -0.029 A 
HETATM   25  C   UNL     1      37.573 -12.673  -2.426  1.00  0.00     0.043 A 
HETATM   26  C   UNL     1      37.976 -14.797  -3.784  1.00  0.00     0.042 C 
HETATM   27  N   UNL     1      36.556 -12.261  -3.365  1.00  0.00    -0.313 N 
HETATM   28  C   UNL     1      37.942 -11.895  -1.319  1.00  0.00     0.032 A 
HETATM   29  C   UNL     1      35.708 -11.147  -3.143  1.00  0.00     0.265 C 
HETATM   30  C   UNL     1      36.383 -13.088  -4.567  1.00  0.00     0.133 C 
HETATM   31  O   UNL     1      35.475 -10.693  -2.024  1.00  0.00    -0.267 OA
HETATM   32  C   UNL     1      36.572 -14.569  -4.298  1.00  0.00     0.025 C 
HETATM   33  C   UNL     1      38.951 -12.303  -0.433  1.00  0.00     0.032 A 
BRANCH  29  34
HETATM   34  C   UNL     1      35.100 -10.542  -4.327  1.00  0.00     0.073 A 
HETATM   35  S   UNL     1      33.443 -10.830  -4.659  1.00  0.00    -0.097 SA
HETATM   36  C   UNL     1      33.494  -9.880  -6.080  1.00  0.00     0.050 A 
HETATM   37  C   UNL     1      34.736  -9.324  -6.287  1.00  0.00     0.009 A 
HETATM   38  C   UNL     1      35.661  -9.693  -5.266  1.00  0.00     0.025 A 
ENDBRANCH  29  34
ENDBRANCH   2  22
TORSDOF 6
ENDMDL
MODEL 8
REMARK VINA RESULT:      -9.5      7.086     11.888
REMARK  6 active torsions:
REMARK  status: ('A' for Active; 'I' for Inactive)
REMARK    1  A    between atoms: C_6  and  O_7 
REMARK    2  A    between atoms: C_6  and  C_8 
REMARK    3  A    between atoms: C_8  and  N_9 
REMARK       I    between atoms: N_9  and  C_10 
REMARK    4  A    between atoms: C_10  and  C_11 
REMARK       I    between atoms: C_11  and  N_12 
REMARK    5  A    between atoms: N_12  and  C_13 
REMARK       I    between atoms: N_17  and  C_18 
REMARK    6  A    between atoms: C_18  and  C_19 
ROOT
HETATM    1  C   UNL     1      39.758 -14.792   2.466  1.00  0.00     0.313 C 
HETATM    2  N   UNL     1      39.698 -13.500   1.988  1.00  0.00    -0.319 N 
HETATM    3  O   UNL     1      39.158 -15.786   2.078  1.00  0.00    -0.262 OA
HETATM    4  H   UNL     1      40.344 -12.850   2.430  1.00  0.00     0.169 HD
ENDROOT
BRANCH   1   5
HETATM    5  C   UNL     1      40.725 -14.939   3.662  1.00  0.00     0.309 C 
HETATM    6  N   UNL     1      41.815 -15.720   3.374  1.00  0.00    -0.350 N 
HETATM    7  H   UNL     1      41.930 -16.014   2.404  1.00  0.00     0.163 HD
HETATM    8  O   UNL     1      40.474 -14.407   4.733  1.00  0.00    -0.262 OA
BRANCH   6   9
HETATM    9  C   UNL     1      42.854 -16.062   4.323  1.00  0.00     0.161 C 
BRANCH   9  10
HETATM   10  C   UNL     1      43.030 -17.595   4.422  1.00  0.00     0.078 C 
HETATM   11  C   UNL     1      43.157 -18.205   3.010  1.00  0.00     0.078 C 
HETATM   12  C   UNL     1      43.648 -19.636   2.994  1.00  0.00    -0.049 A 
HETATM   13  C   UNL     1      44.266 -20.217   4.114  1.00  0.00    -0.052 A 
HETATM   14  C   UNL     1      43.526 -20.384   1.812  1.00  0.00     0.007 A 
HETATM   15  C   UNL     1      44.713 -21.546   4.045  1.00  0.00     0.007 A 
HETATM   16  C   UNL     1      44.403 -19.471   5.416  1.00  0.00     0.042 C 
HETATM   17  C   UNL     1      44.576 -22.282   2.869  1.00  0.00     0.001 A 
HETATM   18  C   UNL     1      43.986 -21.699   1.752  1.00  0.00     0.001 A 
HETATM   19  C   UNL     1      44.268 -17.959   5.258  1.00  0.00     0.044 C 
BRANCH  10  20
HETATM   20  O   UNL     1      41.869 -18.118   5.095  1.00  0.00    -0.388 OA
HETATM   21  H   UNL     1      41.601 -17.484   5.783  1.00  0.00     0.210 HD
ENDBRANCH  10  20
ENDBRANCH   9  10
ENDBRANCH   6   9
ENDBRANCH   1   5
BRANCH   2  22
HETATM   22  C   UNL     1      38.839 -13.004   0.993  1.00  0.00     0.035 A 
HETATM   23  C   UNL     1      37.651 -12.330   1.269  1.00  0.00     0.039 A 
HETATM   24  C   UNL     1      36.845 -11.814   0.233  1.00  0.00    -0.029 A 
HETATM   25  C   UNL     1      37.204 -11.998  -1.118  1.00  0.00     0.043 A 
HETATM   26  C   UNL     1      35.588 -11.090   0.637  1.00  0.00     0.042 C 
HETATM   27  N   UNL     1      36.340 -11.515  -2.170  1.00  0.00    -0.313 N 
HETATM   28  C   UNL     1      38.393 -12.696  -1.375  1.00  0.00     0.032 A 
HETATM   29  C   UNL     1      36.711 -11.525  -3.538  1.00  0.00     0.265 C 
HETATM   30  C   UNL     1      35.048 -10.948  -1.763  1.00  0.00     0.133 C 
HETATM   31  O   UNL     1      37.882 -11.550  -3.916  1.00  0.00    -0.267 OA
HETATM   32  C   UNL     1      35.128 -10.163  -0.467  1.00  0.00     0.025 C 
HETATM   33  C   UNL     1      39.206 -13.178  -0.338  1.00  0.00     0.032 A 
BRANCH  29  34
HETATM   34  C   UNL     1      35.621 -11.498  -4.511  1.00  0.00     0.073 A 
HETATM   35  S   UNL     1      35.322 -10.061  -5.397  1.00  0.00    -0.097 SA
HETATM   36  C   UNL     1      34.008 -10.769  -6.231  1.00  0.00     0.050 A 
HETATM   37  C   UNL     1      33.816 -12.084  -5.873  1.00  0.00     0.009 A 
HETATM   38  C   UNL     1      34.757 -12.511  -4.890  1.00  0.00     0.025 A 
ENDBRANCH  29  34
ENDBRANCH   2  22
TORSDOF 6
ENDMDL
MODEL 9
REMARK VINA RESULT:      -9.3      7.045     11.829
REMARK  6 active torsions:
REMARK  status: ('A' for Active; 'I' for Inactive)
REMARK    1  A    between atoms: C_6  and  O_7 
REMARK    2  A    between atoms: C_6  and  C_8 
REMARK    3  A    between atoms: C_8  and  N_9 
REMARK       I    between atoms: N_9  and  C_10 
REMARK    4  A    between atoms: C_10  and  C_11 
REMARK       I    between atoms: C_11  and  N_12 
REMARK    5  A    between atoms: N_12  and  C_13 
REMARK       I    between atoms: N_17  and  C_18 
REMARK    6  A    between atoms: C_18  and  C_19 
ROOT
HETATM    1  C   UNL     1      41.476 -14.999   1.425  1.00  0.00     0.313 C 
HETATM    2  N   UNL     1      41.275 -13.649   1.231  1.00  0.00    -0.319 N 
HETATM    3  O   UNL     1      41.530 -15.899   0.596  1.00  0.00    -0.262 OA
HETATM    4  H   UNL     1      41.338 -13.082   2.072  1.00  0.00     0.169 HD
ENDROOT
BRANCH   1   5
HETATM    5  C   UNL     1      41.641 -15.367   2.916  1.00  0.00     0.309 C 
HETATM    6  N   UNL     1      42.911 -15.777   3.229  1.00  0.00    -0.350 N 
HETATM    7  H   UNL     1      43.618 -15.687   2.499  1.00  0.00     0.163 HD
HETATM    8  O   UNL     1      40.690 -15.299   3.681  1.00  0.00    -0.262 OA
BRANCH   6   9
HETATM    9  C   UNL     1      43.331 -16.223   4.541  1.00  0.00     0.161 C 
BRANCH   9  10
HETATM   10  C   UNL     1      43.387 -17.768   4.608  1.00  0.00     0.078 C 
HETATM   11  C   UNL     1      43.526 -18.354   3.188  1.00  0.00     0.078 C 
HETATM   12  C   UNL     1      43.908 -19.817   3.154  1.00  0.00    -0.049 A 
HETATM   13  C   UNL     1      44.433 -20.469   4.283  1.00  0.00    -0.052 A 
HETATM   14  C   UNL     1      43.779 -20.527   1.950  1.00  0.00     0.007 A 
HETATM   15  C   UNL     1      44.781 -21.825   4.198  1.00  0.00     0.007 A 
HETATM   16  C   UNL     1      44.572 -19.764   5.608  1.00  0.00     0.042 C 
HETATM   17  C   UNL     1      44.638 -22.523   3.000  1.00  0.00     0.001 A 
HETATM   18  C   UNL     1      44.141 -21.872   1.875  1.00  0.00     0.001 A 
HETATM   19  C   UNL     1      44.558 -18.243   5.483  1.00  0.00     0.044 C 
BRANCH  10  20
HETATM   20  O   UNL     1      42.162 -18.215   5.221  1.00  0.00    -0.388 OA
HETATM   21  H   UNL     1      42.388 -18.801   5.966  1.00  0.00     0.210 HD
ENDBRANCH  10  20
ENDBRANCH   9  10
ENDBRANCH   6   9
ENDBRANCH   1   5
BRANCH   2  22
HETATM   22  C   UNL     1      40.977 -13.004   0.019  1.00  0.00     0.035 A 
HETATM   23  C   UNL     1      41.948 -12.509  -0.849  1.00  0.00     0.039 A 
HETATM   24  C   UNL     1      41.597 -11.907  -2.074  1.00  0.00    -0.029 A 
HETATM   25  C   UNL     1      40.244 -11.758  -2.441  1.00  0.00     0.043 A 
HETATM   26  C   UNL     1      42.723 -11.416  -2.946  1.00  0.00     0.042 C 
HETATM   27  N   UNL     1      39.897 -11.087  -3.672  1.00  0.00    -0.313 N 
HETATM   28  C   UNL     1      39.280 -12.244  -1.546  1.00  0.00     0.032 A 
HETATM   29  C   UNL     1      38.573 -11.040  -4.178  1.00  0.00     0.265 C 
HETATM   30  C   UNL     1      40.996 -10.481  -4.435  1.00  0.00     0.133 C 
HETATM   31  O   UNL     1      37.708 -11.860  -3.871  1.00  0.00    -0.267 OA
HETATM   32  C   UNL     1      42.272 -11.302  -4.386  1.00  0.00     0.025 C 
HETATM   33  C   UNL     1      39.640 -12.871  -0.343  1.00  0.00     0.032 A 
BRANCH  29  34
HETATM   34  C   UNL     1      38.266  -9.954  -5.107  1.00  0.00     0.073 A 
HETATM   35  S   UNL     1      37.931  -8.391  -4.488  1.00  0.00    -0.097 SA
HETATM   36  C   UNL     1      37.680  -7.752  -6.053  1.00  0.00     0.050 A 
HETATM   37  C   UNL     1      37.879  -8.695  -7.036  1.00  0.00     0.009 A 
HETATM   38  C   UNL     1      38.232  -9.965  -6.491  1.00  0.00     0.025 A 
ENDBRANCH  29  34
ENDBRANCH   2  22
TORSDOF 6
ENDMDL
MODEL 10
REMARK VINA RESULT:      -9.1      6.825     11.382
REMARK  6 active torsions:
REMARK  status: ('A' for Active; 'I' for Inactive)
REMARK    1  A    between atoms: C_6  and  O_7 
REMARK    2  A    between atoms: C_6  and  C_8 
REMARK    3  A    between atoms: C_8  and  N_9 
REMARK       I    between atoms: N_9  and  C_10 
REMARK    4  A    between atoms: C_10  and  C_11 
REMARK       I    between atoms: C_11  and  N_12 
REMARK    5  A    between atoms: N_12  and  C_13 
REMARK       I    between atoms: N_17  and  C_18 
REMARK    6  A    between atoms: C_18  and  C_19 
ROOT
HETATM    1  C   UNL     1      41.407 -14.891   2.200  1.00  0.00     0.313 C 
HETATM    2  N   UNL     1      42.026 -13.683   1.957  1.00  0.00    -0.319 N 
HETATM    3  O   UNL     1      40.673 -15.542   1.468  1.00  0.00    -0.262 OA
HETATM    4  H   UNL     1      42.648 -13.366   2.696  1.00  0.00     0.169 HD
ENDROOT
BRANCH   1   5
HETATM    5  C   UNL     1      41.713 -15.443   3.609  1.00  0.00     0.309 C 
HETATM    6  N   UNL     1      43.034 -15.764   3.782  1.00  0.00    -0.350 N 
HETATM    7  H   UNL     1      43.675 -15.505   3.031  1.00  0.00     0.163 HD
HETATM    8  O   UNL     1      40.818 -15.576   4.432  1.00  0.00    -0.262 OA
BRANCH   6   9
HETATM    9  C   UNL     1      43.588 -16.345   4.988  1.00  0.00     0.161 C 
BRANCH   9  10
HETATM   10  C   UNL     1      43.534 -17.890   4.934  1.00  0.00     0.078 C 
HETATM   11  C   UNL     1      43.821 -18.379   3.499  1.00  0.00     0.078 C 
HETATM   12  C   UNL     1      44.108 -19.860   3.394  1.00  0.00    -0.049 A 
HETATM   13  C   UNL     1      44.436 -20.630   4.522  1.00  0.00    -0.052 A 
HETATM   14  C   UNL     1      44.094 -20.469   2.129  1.00  0.00     0.007 A 
HETATM   15  C   UNL     1      44.704 -21.999   4.371  1.00  0.00     0.007 A 
HETATM   16  C   UNL     1      44.444 -20.038   5.908  1.00  0.00     0.042 C 
HETATM   17  C   UNL     1      44.675 -22.594   3.110  1.00  0.00     0.001 A 
HETATM   18  C   UNL     1      44.374 -21.827   1.989  1.00  0.00     0.001 A 
HETATM   19  C   UNL     1      44.546 -18.514   5.908  1.00  0.00     0.044 C 
BRANCH  10  20
HETATM   20  O   UNL     1      42.213 -18.288   5.348  1.00  0.00    -0.388 OA
HETATM   21  H   UNL     1      41.698 -17.486   5.547  1.00  0.00     0.210 HD
ENDBRANCH  10  20
ENDBRANCH   9  10
ENDBRANCH   6   9
ENDBRANCH   1   5
BRANCH   2  22
HETATM   22  C   UNL     1      41.866 -12.861   0.829  1.00  0.00     0.035 A 
HETATM   23  C   UNL     1      41.618 -11.492   0.903  1.00  0.00     0.039 A 
HETATM   24  C   UNL     1      41.509 -10.704  -0.261  1.00  0.00    -0.029 A 
HETATM   25  C   UNL     1      41.612 -11.290  -1.540  1.00  0.00     0.043 A 
HETATM   26  C   UNL     1      41.253  -9.232  -0.072  1.00  0.00     0.042 C 
HETATM   27  N   UNL     1      41.440 -10.481  -2.723  1.00  0.00    -0.313 N 
HETATM   28  C   UNL     1      41.842 -12.672  -1.593  1.00  0.00     0.032 A 
HETATM   29  C   UNL     1      41.685 -10.967  -4.032  1.00  0.00     0.265 C 
HETATM   30  C   UNL     1      41.042  -9.081  -2.523  1.00  0.00     0.133 C 
HETATM   31  O   UNL     1      42.421 -11.926  -4.265  1.00  0.00    -0.267 OA
HETATM   32  C   UNL     1      41.681  -8.454  -1.298  1.00  0.00     0.025 C 
HETATM   33  C   UNL     1      41.982 -13.444  -0.430  1.00  0.00     0.032 A 
BRANCH  29  34
HETATM   34  C   UNL     1      41.017 -10.266  -5.127  1.00  0.00     0.073 A 
HETATM   35  S   UNL     1      41.938  -9.256  -6.162  1.00  0.00    -0.097 SA
HETATM   36  C   UNL     1      40.561  -8.831  -7.082  1.00  0.00     0.050 A 
HETATM   37  C   UNL     1      39.424  -9.467  -6.637  1.00  0.00     0.009 A 
HETATM   38  C   UNL     1      39.689 -10.308  -5.517  1.00  0.00     0.025 A 
ENDBRANCH  29  34
ENDBRANCH   2  22
TORSDOF 6
ENDMDL
