MODEL 1
REMARK VINA RESULT:      -8.5      0.000      0.000
REMARK  9 active torsions:
REMARK  status: ('A' for Active; 'I' for Inactive)
REMARK    1  A    between atoms: C_2  and  C_3 
REMARK    2  A    between atoms: C_3  and  C_4 
REMARK    3  A    between atoms: C_4  and  N_5 
REMARK    4  A    between atoms: C_14  and  C_15 
REMARK    5  A    between atoms: C_15  and  C_16 
REMARK    6  A    between atoms: C_16  and  C_17 
REMARK       I    between atoms: C_17  and  N_18 
REMARK    7  A    between atoms: N_18  and  C_19 
REMARK    8  A    between atoms: N_32  and  C_33 
REMARK    9  A    between atoms: C_33  and  C_34 
ROOT
HETATM    1  N   UNL     1      43.806 -18.372   5.293  1.00  0.00    -0.282 N 
HETATM    2  C   UNL     1      44.442 -17.765   6.374  1.00  0.00     0.331 A 
HETATM    3  O   UNL     1      45.171 -18.361   7.165  1.00  0.00    -0.246 OA
HETATM    4  N   UNL     1      44.247 -16.408   6.539  1.00  0.00    -0.273 N 
HETATM    5  C   UNL     1      43.501 -15.565   5.748  1.00  0.00     0.280 A 
HETATM    6  O   UNL     1      43.440 -14.359   5.950  1.00  0.00    -0.265 OA
HETATM    7  C   UNL     1      42.866 -16.249   4.672  1.00  0.00     0.151 A 
HETATM    8  C   UNL     1      43.036 -17.586   4.460  1.00  0.00     0.168 A 
HETATM    9  N   UNL     1      42.387 -18.002   3.343  1.00  0.00    -0.215 NA
HETATM   10  C   UNL     1      41.713 -16.947   2.915  1.00  0.00     0.109 A 
HETATM   11  N   UNL     1      42.000 -15.835   3.693  1.00  0.00    -0.327 N 
HETATM   12  H   UNL     1      44.717 -15.990   7.329  1.00  0.00     0.173 HD
ENDROOT
BRANCH  10  13
HETATM   13  C   UNL     1      40.781 -16.948   1.739  1.00  0.00     0.088 C 
BRANCH  13  14
HETATM   14  C   UNL     1      41.479 -16.577   0.432  1.00  0.00     0.110 C 
BRANCH  14  15
HETATM   15  C   UNL     1      41.121 -15.185  -0.056  1.00  0.00     0.218 C 
HETATM   16  N   UNL     1      39.942 -15.094  -0.767  1.00  0.00    -0.356 N 
HETATM   17  H   UNL     1      39.335 -15.905  -0.604  1.00  0.00     0.162 HD
HETATM   18  O   UNL     1      41.856 -14.227   0.155  1.00  0.00    -0.274 OA
BRANCH  16  19
HETATM   19  C   UNL     1      39.243 -13.848  -1.066  1.00  0.00     0.089 C 
HETATM   20  C   UNL     1      37.973 -14.118  -1.887  1.00  0.00     0.063 C 
HETATM   21  C   UNL     1      38.198 -14.346  -3.392  1.00  0.00     0.121 C 
HETATM   22  C   UNL     1      38.735 -15.741  -3.729  1.00  0.00     0.046 C 
HETATM   23  C   UNL     1      36.857 -14.177  -4.136  1.00  0.00     0.046 C 
HETATM   24  N   UNL     1      39.118 -13.283  -3.954  1.00  0.00    -0.059 N 
HETATM   25  H   UNL     1      38.558 -12.426  -4.068  1.00  0.00     0.279 HD
HETATM   26  H   UNL     1      39.381 -13.539  -4.917  1.00  0.00     0.279 HD
HETATM   27  C   UNL     1      40.373 -12.886  -3.200  1.00  0.00     0.121 C 
HETATM   28  C   UNL     1      40.806 -11.524  -3.788  1.00  0.00     0.046 C 
HETATM   29  C   UNL     1      41.497 -13.882  -3.490  1.00  0.00     0.046 C 
HETATM   30  C   UNL     1      40.026 -12.701  -1.719  1.00  0.00     0.063 C 
ENDBRANCH  16  19
ENDBRANCH  14  15
ENDBRANCH  13  14
ENDBRANCH  10  13
BRANCH  11  31
HETATM   31  C   UNL     1      41.524 -14.481   3.470  1.00  0.00     0.134 C 
BRANCH  31  32
HETATM   32  C   UNL     1      40.041 -14.266   3.809  1.00  0.00    -0.004 C 
HETATM   33  C   UNL     1      39.843 -13.821   5.259  1.00  0.00     0.011 C 
HETATM   34  C   UNL     1      39.445 -13.227   2.859  1.00  0.00     0.011 C 
ENDBRANCH  31  32
ENDBRANCH  11  31
BRANCH   1  35
HETATM   35  C   UNL     1      43.887 -19.819   5.118  1.00  0.00     0.135 C 
BRANCH  35  36
HETATM   36  C   UNL     1      45.078 -20.281   4.278  1.00  0.00     0.020 C 
BRANCH  36  37
HETATM   37  C   UNL     1      44.732 -20.473   2.802  1.00  0.00    -0.003 C 
HETATM   38  C   UNL     1      44.376 -21.922   2.506  1.00  0.00     0.005 C 
ENDBRANCH  36  37
ENDBRANCH  35  36
ENDBRANCH   1  35
TORSDOF 9
ENDMDL
MODEL 2
REMARK VINA RESULT:      -8.4      2.792      5.576
REMARK  9 active torsions:
REMARK  status: ('A' for Active; 'I' for Inactive)
REMARK    1  A    between atoms: C_2  and  C_3 
REMARK    2  A    between atoms: C_3  and  C_4 
REMARK    3  A    between atoms: C_4  and  N_5 
REMARK    4  A    between atoms: C_14  and  C_15 
REMARK    5  A    between atoms: C_15  and  C_16 
REMARK    6  A    between atoms: C_16  and  C_17 
REMARK       I    between atoms: C_17  and  N_18 
REMARK    7  A    between atoms: N_18  and  C_19 
REMARK    8  A    between atoms: N_32  and  C_33 
REMARK    9  A    between atoms: C_33  and  C_34 
ROOT
HETATM    1  N   UNL     1      43.192 -16.857   6.256  1.00  0.00    -0.282 N 
HETATM    2  C   UNL     1      43.508 -17.584   7.403  1.00  0.00     0.331 A 
HETATM    3  O   UNL     1      43.290 -17.190   8.547  1.00  0.00    -0.246 OA
HETATM    4  N   UNL     1      44.080 -18.827   7.223  1.00  0.00    -0.273 N 
HETATM    5  C   UNL     1      44.369 -19.453   6.032  1.00  0.00     0.280 A 
HETATM    6  O   UNL     1      44.826 -20.588   5.982  1.00  0.00    -0.265 OA
HETATM    7  C   UNL     1      44.038 -18.652   4.901  1.00  0.00     0.151 A 
HETATM    8  C   UNL     1      43.461 -17.422   5.027  1.00  0.00     0.168 A 
HETATM    9  N   UNL     1      43.179 -16.876   3.817  1.00  0.00    -0.215 NA
HETATM   10  C   UNL     1      43.684 -17.715   2.927  1.00  0.00     0.109 A 
HETATM   11  N   UNL     1      44.203 -18.839   3.553  1.00  0.00    -0.327 N 
HETATM   12  H   UNL     1      44.301 -19.335   8.067  1.00  0.00     0.173 HD
ENDROOT
BRANCH  10  13
HETATM   13  C   UNL     1      43.681 -17.490   1.443  1.00  0.00     0.088 C 
BRANCH  13  14
HETATM   14  C   UNL     1      42.270 -17.427   0.859  1.00  0.00     0.110 C 
BRANCH  14  15
HETATM   15  C   UNL     1      41.834 -16.014   0.517  1.00  0.00     0.218 C 
HETATM   16  N   UNL     1      41.678 -15.167   1.595  1.00  0.00    -0.356 N 
HETATM   17  H   UNL     1      42.166 -15.516   2.427  1.00  0.00     0.162 HD
HETATM   18  O   UNL     1      41.614 -15.678  -0.641  1.00  0.00    -0.274 OA
BRANCH  16  19
HETATM   19  C   UNL     1      41.571 -13.714   1.504  1.00  0.00     0.089 C 
HETATM   20  C   UNL     1      41.627 -13.075   2.899  1.00  0.00     0.063 C 
HETATM   21  C   UNL     1      40.311 -13.117   3.697  1.00  0.00     0.121 C 
HETATM   22  C   UNL     1      40.010 -14.485   4.316  1.00  0.00     0.046 C 
HETATM   23  C   UNL     1      40.385 -12.096   4.851  1.00  0.00     0.046 C 
HETATM   24  N   UNL     1      39.154 -12.672   2.827  1.00  0.00    -0.059 N 
HETATM   25  H   UNL     1      39.198 -11.645   2.765  1.00  0.00     0.279 HD
HETATM   26  H   UNL     1      38.270 -12.855   3.323  1.00  0.00     0.279 HD
HETATM   27  C   UNL     1      39.027 -13.188   1.407  1.00  0.00     0.121 C 
HETATM   28  C   UNL     1      38.053 -12.225   0.693  1.00  0.00     0.046 C 
HETATM   29  C   UNL     1      38.375 -14.572   1.407  1.00  0.00     0.046 C 
HETATM   30  C   UNL     1      40.396 -13.108   0.724  1.00  0.00     0.063 C 
ENDBRANCH  16  19
ENDBRANCH  14  15
ENDBRANCH  13  14
ENDBRANCH  10  13
BRANCH  11  31
HETATM   31  C   UNL     1      44.753 -20.013   2.899  1.00  0.00     0.134 C 
BRANCH  31  32
HETATM   32  C   UNL     1      43.809 -21.224   2.871  1.00  0.00    -0.004 C 
HETATM   33  C   UNL     1      43.227 -21.465   1.478  1.00  0.00     0.011 C 
HETATM   34  C   UNL     1      44.561 -22.469   3.344  1.00  0.00     0.011 C 
ENDBRANCH  31  32
ENDBRANCH  11  31
BRANCH   1  35
HETATM   35  C   UNL     1      42.679 -15.495   6.375  1.00  0.00     0.135 C 
BRANCH  35  36
HETATM   36  C   UNL     1      43.691 -14.411   5.999  1.00  0.00     0.020 C 
BRANCH  36  37
HETATM   37  C   UNL     1      44.906 -14.378   6.925  1.00  0.00    -0.003 C 
HETATM   38  C   UNL     1      44.778 -13.269   7.958  1.00  0.00     0.005 C 
ENDBRANCH  36  37
ENDBRANCH  35  36
ENDBRANCH   1  35
TORSDOF 9
ENDMDL
MODEL 3
REMARK VINA RESULT:      -8.3      1.716      2.052
REMARK  9 active torsions:
REMARK  status: ('A' for Active; 'I' for Inactive)
REMARK    1  A    between atoms: C_2  and  C_3 
REMARK    2  A    between atoms: C_3  and  C_4 
REMARK    3  A    between atoms: C_4  and  N_5 
REMARK    4  A    between atoms: C_14  and  C_15 
REMARK    5  A    between atoms: C_15  and  C_16 
REMARK    6  A    between atoms: C_16  and  C_17 
REMARK       I    between atoms: C_17  and  N_18 
REMARK    7  A    between atoms: N_18  and  C_19 
REMARK    8  A    between atoms: N_32  and  C_33 
REMARK    9  A    between atoms: C_33  and  C_34 
ROOT
HETATM    1  N   UNL     1      43.810 -18.837   3.749  1.00  0.00    -0.282 N 
HETATM    2  C   UNL     1      44.412 -19.257   4.934  1.00  0.00     0.331 A 
HETATM    3  O   UNL     1      45.373 -20.023   4.982  1.00  0.00    -0.246 OA
HETATM    4  N   UNL     1      43.897 -18.756   6.113  1.00  0.00    -0.273 N 
HETATM    5  C   UNL     1      42.856 -17.870   6.265  1.00  0.00     0.280 A 
HETATM    6  O   UNL     1      42.514 -17.441   7.360  1.00  0.00    -0.265 OA
HETATM    7  C   UNL     1      42.276 -17.493   5.020  1.00  0.00     0.151 A 
HETATM    8  C   UNL     1      42.755 -17.952   3.827  1.00  0.00     0.168 A 
HETATM    9  N   UNL     1      42.087 -17.409   2.778  1.00  0.00    -0.215 NA
HETATM   10  C   UNL     1      41.110 -16.696   3.315  1.00  0.00     0.109 A 
HETATM   11  N   UNL     1      41.205 -16.700   4.698  1.00  0.00    -0.327 N 
HETATM   12  H   UNL     1      44.348 -19.075   6.959  1.00  0.00     0.173 HD
ENDROOT
BRANCH  10  13
HETATM   13  C   UNL     1      40.056 -15.968   2.534  1.00  0.00     0.088 C 
BRANCH  13  14
HETATM   14  C   UNL     1      40.583 -14.692   1.878  1.00  0.00     0.110 C 
BRANCH  14  15
HETATM   15  C   UNL     1      39.544 -13.997   1.016  1.00  0.00     0.218 C 
HETATM   16  N   UNL     1      40.020 -13.453  -0.159  1.00  0.00    -0.356 N 
HETATM   17  H   UNL     1      40.926 -13.854  -0.425  1.00  0.00     0.162 HD
HETATM   18  O   UNL     1      38.374 -13.912   1.372  1.00  0.00    -0.274 OA
BRANCH  16  19
HETATM   19  C   UNL     1      39.185 -13.018  -1.274  1.00  0.00     0.089 C 
HETATM   20  C   UNL     1      38.697 -14.222  -2.094  1.00  0.00     0.063 C 
HETATM   21  C   UNL     1      39.718 -14.797  -3.091  1.00  0.00     0.121 C 
HETATM   22  C   UNL     1      40.801 -15.660  -2.434  1.00  0.00     0.046 C 
HETATM   23  C   UNL     1      38.982 -15.686  -4.115  1.00  0.00     0.046 C 
HETATM   24  N   UNL     1      40.355 -13.683  -3.894  1.00  0.00    -0.059 N 
HETATM   25  H   UNL     1      39.671 -13.396  -4.609  1.00  0.00     0.279 HD
HETATM   26  H   UNL     1      41.140 -14.067  -4.439  1.00  0.00     0.279 HD
HETATM   27  C   UNL     1      40.820 -12.416  -3.203  1.00  0.00     0.121 C 
HETATM   28  C   UNL     1      40.982 -11.361  -4.320  1.00  0.00     0.046 C 
HETATM   29  C   UNL     1      42.201 -12.633  -2.582  1.00  0.00     0.046 C 
HETATM   30  C   UNL     1      39.730 -11.950  -2.232  1.00  0.00     0.063 C 
ENDBRANCH  16  19
ENDBRANCH  14  15
ENDBRANCH  13  14
ENDBRANCH  10  13
BRANCH  11  31
HETATM   31  C   UNL     1      40.369 -15.953   5.622  1.00  0.00     0.134 C 
BRANCH  31  32
HETATM   32  C   UNL     1      40.847 -14.519   5.893  1.00  0.00    -0.004 C 
HETATM   33  C   UNL     1      42.219 -14.246   5.276  1.00  0.00     0.011 C 
HETATM   34  C   UNL     1      39.822 -13.526   5.342  1.00  0.00     0.011 C 
ENDBRANCH  31  32
ENDBRANCH  11  31
BRANCH   1  35
HETATM   35  C   UNL     1      44.237 -19.405   2.473  1.00  0.00     0.135 C 
BRANCH  35  36
HETATM   36  C   UNL     1      43.385 -20.583   1.997  1.00  0.00     0.020 C 
BRANCH  36  37
HETATM   37  C   UNL     1      44.200 -21.851   1.750  1.00  0.00    -0.003 C 
HETATM   38  C   UNL     1      44.535 -22.552   3.057  1.00  0.00     0.005 C 
ENDBRANCH  36  37
ENDBRANCH  35  36
ENDBRANCH   1  35
TORSDOF 9
ENDMDL
MODEL 4
REMARK VINA RESULT:      -8.0      1.285      4.256
REMARK  9 active torsions:
REMARK  status: ('A' for Active; 'I' for Inactive)
REMARK    1  A    between atoms: C_2  and  C_3 
REMARK    2  A    between atoms: C_3  and  C_4 
REMARK    3  A    between atoms: C_4  and  N_5 
REMARK    4  A    between atoms: C_14  and  C_15 
REMARK    5  A    between atoms: C_15  and  C_16 
REMARK    6  A    between atoms: C_16  and  C_17 
REMARK       I    between atoms: C_17  and  N_18 
REMARK    7  A    between atoms: N_18  and  C_19 
REMARK    8  A    between atoms: N_32  and  C_33 
REMARK    9  A    between atoms: C_33  and  C_34 
ROOT
HETATM    1  N   UNL     1      43.511 -14.827   5.673  1.00  0.00    -0.282 N 
HETATM    2  C   UNL     1      44.234 -15.162   6.816  1.00  0.00     0.331 A 
HETATM    3  O   UNL     1      44.619 -14.344   7.650  1.00  0.00    -0.246 OA
HETATM    4  N   UNL     1      44.509 -16.500   7.018  1.00  0.00    -0.273 N 
HETATM    5  C   UNL     1      44.139 -17.562   6.224  1.00  0.00     0.280 A 
HETATM    6  O   UNL     1      44.386 -18.723   6.526  1.00  0.00    -0.265 OA
HETATM    7  C   UNL     1      43.418 -17.151   5.067  1.00  0.00     0.151 A 
HETATM    8  C   UNL     1      43.112 -15.843   4.829  1.00  0.00     0.168 A 
HETATM    9  N   UNL     1      42.367 -15.700   3.704  1.00  0.00    -0.215 NA
HETATM   10  C   UNL     1      42.302 -16.909   3.170  1.00  0.00     0.109 A 
HETATM   11  N   UNL     1      42.916 -17.841   3.994  1.00  0.00    -0.327 N 
HETATM   12  H   UNL     1      45.035 -16.720   7.852  1.00  0.00     0.173 HD
ENDROOT
BRANCH  10  13
HETATM   13  C   UNL     1      41.638 -17.232   1.864  1.00  0.00     0.088 C 
BRANCH  13  14
HETATM   14  C   UNL     1      41.889 -16.168   0.795  1.00  0.00     0.110 C 
BRANCH  14  15
HETATM   15  C   UNL     1      40.729 -15.203   0.638  1.00  0.00     0.218 C 
HETATM   16  N   UNL     1      40.870 -14.270  -0.369  1.00  0.00    -0.356 N 
HETATM   17  H   UNL     1      41.583 -14.550  -1.051  1.00  0.00     0.162 HD
HETATM   18  O   UNL     1      39.757 -15.249   1.382  1.00  0.00    -0.274 OA
BRANCH  16  19
HETATM   19  C   UNL     1      39.786 -13.454  -0.908  1.00  0.00     0.089 C 
HETATM   20  C   UNL     1      38.790 -14.320  -1.692  1.00  0.00     0.063 C 
HETATM   21  C   UNL     1      39.219 -14.684  -3.125  1.00  0.00     0.121 C 
HETATM   22  C   UNL     1      40.266 -15.800  -3.188  1.00  0.00     0.046 C 
HETATM   23  C   UNL     1      37.985 -15.166  -3.917  1.00  0.00     0.046 C 
HETATM   24  N   UNL     1      39.721 -13.455  -3.853  1.00  0.00    -0.059 N 
HETATM   25  H   UNL     1      38.894 -12.910  -4.134  1.00  0.00     0.279 HD
HETATM   26  H   UNL     1      40.147 -13.743  -4.746  1.00  0.00     0.279 HD
HETATM   27  C   UNL     1      40.662 -12.490  -3.157  1.00  0.00     0.121 C 
HETATM   28  C   UNL     1      40.606 -11.181  -3.976  1.00  0.00     0.046 C 
HETATM   29  C   UNL     1      42.099 -13.010  -3.234  1.00  0.00     0.046 C 
HETATM   30  C   UNL     1      40.139 -12.216  -1.744  1.00  0.00     0.063 C 
ENDBRANCH  16  19
ENDBRANCH  14  15
ENDBRANCH  13  14
ENDBRANCH  10  13
BRANCH  11  31
HETATM   31  C   UNL     1      42.961 -19.278   3.787  1.00  0.00     0.134 C 
BRANCH  31  32
HETATM   32  C   UNL     1      44.159 -19.762   2.956  1.00  0.00    -0.004 C 
HETATM   33  C   UNL     1      45.144 -20.579   3.793  1.00  0.00     0.011 C 
HETATM   34  C   UNL     1      43.658 -20.599   1.778  1.00  0.00     0.011 C 
ENDBRANCH  31  32
ENDBRANCH  11  31
BRANCH   1  35
HETATM   35  C   UNL     1      43.273 -13.424   5.346  1.00  0.00     0.135 C 
BRANCH  35  36
HETATM   36  C   UNL     1      41.933 -12.884   5.848  1.00  0.00     0.020 C 
BRANCH  36  37
HETATM   37  C   UNL     1      41.165 -12.103   4.783  1.00  0.00    -0.003 C 
HETATM   38  C   UNL     1      40.088 -12.963   4.141  1.00  0.00     0.005 C 
ENDBRANCH  36  37
ENDBRANCH  35  36
ENDBRANCH   1  35
TORSDOF 9
ENDMDL
MODEL 5
REMARK VINA RESULT:      -7.8      2.436      5.528
REMARK  9 active torsions:
REMARK  status: ('A' for Active; 'I' for Inactive)
REMARK    1  A    between atoms: C_2  and  C_3 
REMARK    2  A    between atoms: C_3  and  C_4 
REMARK    3  A    between atoms: C_4  and  N_5 
REMARK    4  A    between atoms: C_14  and  C_15 
REMARK    5  A    between atoms: C_15  and  C_16 
REMARK    6  A    between atoms: C_16  and  C_17 
REMARK       I    between atoms: C_17  and  N_18 
REMARK    7  A    between atoms: N_18  and  C_19 
REMARK    8  A    between atoms: N_32  and  C_33 
REMARK    9  A    between atoms: C_33  and  C_34 
ROOT
HETATM    1  N   UNL     1      40.108 -13.173   4.456  1.00  0.00    -0.282 N 
HETATM    2  C   UNL     1      39.811 -13.389   5.800  1.00  0.00     0.331 A 
HETATM    3  O   UNL     1      39.296 -12.547   6.534  1.00  0.00    -0.246 OA
HETATM    4  N   UNL     1      40.100 -14.636   6.317  1.00  0.00    -0.273 N 
HETATM    5  C   UNL     1      40.641 -15.714   5.654  1.00  0.00     0.280 A 
HETATM    6  O   UNL     1      40.805 -16.801   6.194  1.00  0.00    -0.265 OA
HETATM    7  C   UNL     1      40.936 -15.423   4.291  1.00  0.00     0.151 A 
HETATM    8  C   UNL     1      40.659 -14.210   3.732  1.00  0.00     0.168 A 
HETATM    9  N   UNL     1      40.967 -14.186   2.410  1.00  0.00    -0.215 NA
HETATM   10  C   UNL     1      41.546 -15.350   2.165  1.00  0.00     0.109 A 
HETATM   11  N   UNL     1      41.525 -16.155   3.293  1.00  0.00    -0.327 N 
HETATM   12  H   UNL     1      39.877 -14.770   7.293  1.00  0.00     0.173 HD
ENDROOT
BRANCH  10  13
HETATM   13  C   UNL     1      42.129 -15.752   0.841  1.00  0.00     0.088 C 
BRANCH  13  14
HETATM   14  C   UNL     1      41.067 -16.219  -0.154  1.00  0.00     0.110 C 
BRANCH  14  15
HETATM   15  C   UNL     1      41.157 -15.509  -1.493  1.00  0.00     0.218 C 
HETATM   16  N   UNL     1      41.660 -14.224  -1.446  1.00  0.00    -0.356 N 
HETATM   17  H   UNL     1      42.176 -14.048  -0.578  1.00  0.00     0.162 HD
HETATM   18  O   UNL     1      40.779 -16.047  -2.526  1.00  0.00    -0.274 OA
BRANCH  16  19
HETATM   19  C   UNL     1      42.123 -13.469  -2.606  1.00  0.00     0.089 C 
HETATM   20  C   UNL     1      43.098 -12.361  -2.181  1.00  0.00     0.063 C 
HETATM   21  C   UNL     1      42.443 -11.086  -1.620  1.00  0.00     0.121 C 
HETATM   22  C   UNL     1      41.952 -11.232  -0.176  1.00  0.00     0.046 C 
HETATM   23  C   UNL     1      43.472  -9.936  -1.641  1.00  0.00     0.046 C 
HETATM   24  N   UNL     1      41.307 -10.640  -2.515  1.00  0.00    -0.059 N 
HETATM   25  H   UNL     1      41.729 -10.180  -3.334  1.00  0.00     0.279 HD
HETATM   26  H   UNL     1      40.785  -9.885  -2.046  1.00  0.00     0.279 HD
HETATM   27  C   UNL     1      40.314 -11.655  -3.049  1.00  0.00     0.121 C 
HETATM   28  C   UNL     1      39.606 -10.968  -4.237  1.00  0.00     0.046 C 
HETATM   29  C   UNL     1      39.246 -11.950  -1.995  1.00  0.00     0.046 C 
HETATM   30  C   UNL     1      41.081 -12.876  -3.565  1.00  0.00     0.063 C 
ENDBRANCH  16  19
ENDBRANCH  14  15
ENDBRANCH  13  14
ENDBRANCH  10  13
BRANCH  11  31
HETATM   31  C   UNL     1      41.981 -17.532   3.380  1.00  0.00     0.134 C 
BRANCH  31  32
HETATM   32  C   UNL     1      43.507 -17.690   3.459  1.00  0.00    -0.004 C 
HETATM   33  C   UNL     1      43.956 -18.242   4.813  1.00  0.00     0.011 C 
HETATM   34  C   UNL     1      43.984 -18.613   2.337  1.00  0.00     0.011 C 
ENDBRANCH  31  32
ENDBRANCH  11  31
BRANCH   1  35
HETATM   35  C   UNL     1      39.922 -11.847   3.873  1.00  0.00     0.135 C 
BRANCH  35  36
HETATM   36  C   UNL     1      38.532 -11.615   3.279  1.00  0.00     0.020 C 
BRANCH  36  37
HETATM   37  C   UNL     1      38.521 -11.638   1.751  1.00  0.00    -0.003 C 
HETATM   38  C   UNL     1      37.799 -12.869   1.226  1.00  0.00     0.005 C 
ENDBRANCH  36  37
ENDBRANCH  35  36
ENDBRANCH   1  35
TORSDOF 9
ENDMDL
MODEL 6
REMARK VINA RESULT:      -7.8      4.853     10.456
REMARK  9 active torsions:
REMARK  status: ('A' for Active; 'I' for Inactive)
REMARK    1  A    between atoms: C_2  and  C_3 
REMARK    2  A    between atoms: C_3  and  C_4 
REMARK    3  A    between atoms: C_4  and  N_5 
REMARK    4  A    between atoms: C_14  and  C_15 
REMARK    5  A    between atoms: C_15  and  C_16 
REMARK    6  A    between atoms: C_16  and  C_17 
REMARK       I    between atoms: C_17  and  N_18 
REMARK    7  A    between atoms: N_18  and  C_19 
REMARK    8  A    between atoms: N_32  and  C_33 
REMARK    9  A    between atoms: C_33  and  C_34 
ROOT
HETATM    1  N   UNL     1      40.929 -13.665   4.519  1.00  0.00    -0.282 N 
HETATM    2  C   UNL     1      40.147 -14.557   3.788  1.00  0.00     0.331 A 
HETATM    3  O   UNL     1      39.161 -14.227   3.130  1.00  0.00    -0.246 OA
HETATM    4  N   UNL     1      40.528 -15.884   3.798  1.00  0.00    -0.273 N 
HETATM    5  C   UNL     1      41.611 -16.440   4.439  1.00  0.00     0.280 A 
HETATM    6  O   UNL     1      41.895 -17.627   4.335  1.00  0.00    -0.265 OA
HETATM    7  C   UNL     1      42.358 -15.481   5.180  1.00  0.00     0.151 A 
HETATM    8  C   UNL     1      42.028 -14.157   5.193  1.00  0.00     0.168 A 
HETATM    9  N   UNL     1      42.917 -13.426   5.912  1.00  0.00    -0.215 NA
HETATM   10  C   UNL     1      43.744 -14.309   6.448  1.00  0.00     0.109 A 
HETATM   11  N   UNL     1      43.451 -15.589   6.001  1.00  0.00    -0.327 N 
HETATM   12  H   UNL     1      39.947 -16.512   3.261  1.00  0.00     0.173 HD
ENDROOT
BRANCH  10  13
HETATM   13  C   UNL     1      44.859 -13.971   7.394  1.00  0.00     0.088 C 
BRANCH  13  14
HETATM   14  C   UNL     1      44.354 -13.462   8.744  1.00  0.00     0.110 C 
BRANCH  14  15
HETATM   15  C   UNL     1      44.365 -11.948   8.847  1.00  0.00     0.218 C 
HETATM   16  N   UNL     1      43.169 -11.374   9.227  1.00  0.00    -0.356 N 
HETATM   17  H   UNL     1      42.545 -12.054   9.673  1.00  0.00     0.162 HD
HETATM   18  O   UNL     1      45.369 -11.299   8.580  1.00  0.00    -0.274 OA
BRANCH  16  19
HETATM   19  C   UNL     1      43.014  -9.997   9.686  1.00  0.00     0.089 C 
HETATM   20  C   UNL     1      43.653  -9.808  11.070  1.00  0.00     0.063 C 
HETATM   21  C   UNL     1      42.805 -10.294  12.258  1.00  0.00     0.121 C 
HETATM   22  C   UNL     1      42.815 -11.815  12.441  1.00  0.00     0.046 C 
HETATM   23  C   UNL     1      43.352  -9.672  13.560  1.00  0.00     0.046 C 
HETATM   24  N   UNL     1      41.382  -9.794  12.129  1.00  0.00    -0.059 N 
HETATM   25  H   UNL     1      41.382  -8.802  12.408  1.00  0.00     0.279 HD
HETATM   26  H   UNL     1      40.797 -10.254  12.842  1.00  0.00     0.279 HD
HETATM   27  C   UNL     1      40.667  -9.870  10.794  1.00  0.00     0.121 C 
HETATM   28  C   UNL     1      39.468  -8.900  10.901  1.00  0.00     0.046 C 
HETATM   29  C   UNL     1      40.095 -11.273  10.583  1.00  0.00     0.046 C 
HETATM   30  C   UNL     1      41.611  -9.375   9.694  1.00  0.00     0.063 C 
ENDBRANCH  16  19
ENDBRANCH  14  15
ENDBRANCH  13  14
ENDBRANCH  10  13
BRANCH  11  31
HETATM   31  C   UNL     1      44.198 -16.798   6.297  1.00  0.00     0.134 C 
BRANCH  31  32
HETATM   32  C   UNL     1      43.462 -17.792   7.208  1.00  0.00    -0.004 C 
HETATM   33  C   UNL     1      44.085 -19.188   7.155  1.00  0.00     0.011 C 
HETATM   34  C   UNL     1      43.472 -17.272   8.645  1.00  0.00     0.011 C 
ENDBRANCH  31  32
ENDBRANCH  11  31
BRANCH   1  35
HETATM   35  C   UNL     1      40.524 -12.267   4.635  1.00  0.00     0.135 C 
BRANCH  35  36
HETATM   36  C   UNL     1      39.607 -11.978   5.825  1.00  0.00     0.020 C 
BRANCH  36  37
HETATM   37  C   UNL     1      40.077 -10.796   6.671  1.00  0.00    -0.003 C 
HETATM   38  C   UNL     1      41.364 -10.204   6.120  1.00  0.00     0.005 C 
ENDBRANCH  36  37
ENDBRANCH  35  36
ENDBRANCH   1  35
TORSDOF 9
ENDMDL
MODEL 7
REMARK VINA RESULT:      -7.8      1.768      2.787
REMARK  9 active torsions:
REMARK  status: ('A' for Active; 'I' for Inactive)
REMARK    1  A    between atoms: C_2  and  C_3 
REMARK    2  A    between atoms: C_3  and  C_4 
REMARK    3  A    between atoms: C_4  and  N_5 
REMARK    4  A    between atoms: C_14  and  C_15 
REMARK    5  A    between atoms: C_15  and  C_16 
REMARK    6  A    between atoms: C_16  and  C_17 
REMARK       I    between atoms: C_17  and  N_18 
REMARK    7  A    between atoms: N_18  and  C_19 
REMARK    8  A    between atoms: N_32  and  C_33 
REMARK    9  A    between atoms: C_33  and  C_34 
ROOT
HETATM    1  N   UNL     1      43.440 -17.803   4.625  1.00  0.00    -0.282 N 
HETATM    2  C   UNL     1      44.066 -17.391   5.800  1.00  0.00     0.331 A 
HETATM    3  O   UNL     1      44.675 -18.147   6.555  1.00  0.00    -0.246 OA
HETATM    4  N   UNL     1      44.003 -16.047   6.108  1.00  0.00    -0.273 N 
HETATM    5  C   UNL     1      43.403 -15.046   5.380  1.00  0.00     0.280 A 
HETATM    6  O   UNL     1      43.455 -13.869   5.715  1.00  0.00    -0.265 OA
HETATM    7  C   UNL     1      42.769 -15.535   4.201  1.00  0.00     0.151 A 
HETATM    8  C   UNL     1      42.812 -16.852   3.848  1.00  0.00     0.168 A 
HETATM    9  N   UNL     1      42.197 -17.071   2.658  1.00  0.00    -0.215 NA
HETATM   10  C   UNL     1      41.666 -15.908   2.319  1.00  0.00     0.109 A 
HETATM   11  N   UNL     1      42.017 -14.924   3.232  1.00  0.00    -0.327 N 
HETATM   12  H   UNL     1      44.463 -15.771   6.964  1.00  0.00     0.173 HD
ENDROOT
BRANCH  10  13
HETATM   13  C   UNL     1      40.816 -15.678   1.103  1.00  0.00     0.088 C 
BRANCH  13  14
HETATM   14  C   UNL     1      41.365 -16.376  -0.141  1.00  0.00     0.110 C 
BRANCH  14  15
HETATM   15  C   UNL     1      41.211 -15.545  -1.402  1.00  0.00     0.218 C 
HETATM   16  N   UNL     1      41.733 -14.269  -1.335  1.00  0.00    -0.356 N 
HETATM   17  H   UNL     1      42.408 -14.173  -0.569  1.00  0.00     0.162 HD
HETATM   18  O   UNL     1      40.633 -15.986  -2.389  1.00  0.00    -0.274 OA
BRANCH  16  19
HETATM   19  C   UNL     1      41.979 -13.409  -2.488  1.00  0.00     0.089 C 
HETATM   20  C   UNL     1      43.008 -12.321  -2.148  1.00  0.00     0.063 C 
HETATM   21  C   UNL     1      42.457 -11.113  -1.371  1.00  0.00     0.121 C 
HETATM   22  C   UNL     1      42.232 -11.390   0.119  1.00  0.00     0.046 C 
HETATM   23  C   UNL     1      43.460  -9.944  -1.473  1.00  0.00     0.046 C 
HETATM   24  N   UNL     1      41.178 -10.615  -2.009  1.00  0.00    -0.059 N 
HETATM   25  H   UNL     1      41.445 -10.079  -2.847  1.00  0.00     0.279 HD
HETATM   26  H   UNL     1      40.744  -9.914  -1.391  1.00  0.00     0.279 HD
HETATM   27  C   UNL     1      40.111 -11.601  -2.445  1.00  0.00     0.121 C 
HETATM   28  C   UNL     1      39.199 -10.830  -3.425  1.00  0.00     0.046 C 
HETATM   29  C   UNL     1      39.249 -12.006  -1.249  1.00  0.00     0.046 C 
HETATM   30  C   UNL     1      40.780 -12.759  -3.193  1.00  0.00     0.063 C 
ENDBRANCH  16  19
ENDBRANCH  14  15
ENDBRANCH  13  14
ENDBRANCH  10  13
BRANCH  11  31
HETATM   31  C   UNL     1      41.700 -13.510   3.140  1.00  0.00     0.134 C 
BRANCH  31  32
HETATM   32  C   UNL     1      40.373 -13.113   3.803  1.00  0.00    -0.004 C 
HETATM   33  C   UNL     1      40.559 -11.999   4.835  1.00  0.00     0.011 C 
HETATM   34  C   UNL     1      39.378 -12.668   2.730  1.00  0.00     0.011 C 
ENDBRANCH  31  32
ENDBRANCH  11  31
BRANCH   1  35
HETATM   35  C   UNL     1      43.380 -19.224   4.291  1.00  0.00     0.135 C 
BRANCH  35  36
HETATM   36  C   UNL     1      44.317 -19.639   3.155  1.00  0.00     0.020 C 
BRANCH  36  37
HETATM   37  C   UNL     1      43.590 -20.316   1.995  1.00  0.00    -0.003 C 
HETATM   38  C   UNL     1      44.043 -21.759   1.831  1.00  0.00     0.005 C 
ENDBRANCH  36  37
ENDBRANCH  35  36
ENDBRANCH   1  35
TORSDOF 9
ENDMDL
MODEL 8
REMARK VINA RESULT:      -7.7      1.309      2.412
REMARK  9 active torsions:
REMARK  status: ('A' for Active; 'I' for Inactive)
REMARK    1  A    between atoms: C_2  and  C_3 
REMARK    2  A    between atoms: C_3  and  C_4 
REMARK    3  A    between atoms: C_4  and  N_5 
REMARK    4  A    between atoms: C_14  and  C_15 
REMARK    5  A    between atoms: C_15  and  C_16 
REMARK    6  A    between atoms: C_16  and  C_17 
REMARK       I    between atoms: C_17  and  N_18 
REMARK    7  A    between atoms: N_18  and  C_19 
REMARK    8  A    between atoms: N_32  and  C_33 
REMARK    9  A    between atoms: C_33  and  C_34 
ROOT
HETATM    1  N   UNL     1      43.624 -17.903   4.827  1.00  0.00    -0.282 N 
HETATM    2  C   UNL     1      44.357 -17.922   6.013  1.00  0.00     0.331 A 
HETATM    3  O   UNL     1      44.895 -18.928   6.472  1.00  0.00    -0.246 OA
HETATM    4  N   UNL     1      44.494 -16.725   6.688  1.00  0.00    -0.273 N 
HETATM    5  C   UNL     1      44.000 -15.494   6.322  1.00  0.00     0.280 A 
HETATM    6  O   UNL     1      44.229 -14.478   6.966  1.00  0.00    -0.265 OA
HETATM    7  C   UNL     1      43.249 -15.546   5.113  1.00  0.00     0.151 A 
HETATM    8  C   UNL     1      43.095 -16.702   4.404  1.00  0.00     0.168 A 
HETATM    9  N   UNL     1      42.397 -16.496   3.258  1.00  0.00    -0.215 NA
HETATM   10  C   UNL     1      42.014 -15.230   3.304  1.00  0.00     0.109 A 
HETATM   11  N   UNL     1      42.540 -14.599   4.421  1.00  0.00    -0.327 N 
HETATM   12  H   UNL     1      45.029 -16.763   7.544  1.00  0.00     0.173 HD
ENDROOT
BRANCH  10  13
HETATM   13  C   UNL     1      41.144 -14.563   2.278  1.00  0.00     0.088 C 
BRANCH  13  14
HETATM   14  C   UNL     1      41.943 -14.001   1.102  1.00  0.00     0.110 C 
BRANCH  14  15
HETATM   15  C   UNL     1      41.523 -14.588  -0.233  1.00  0.00     0.218 C 
HETATM   16  N   UNL     1      41.342 -13.672  -1.249  1.00  0.00    -0.356 N 
HETATM   17  H   UNL     1      41.806 -12.780  -1.045  1.00  0.00     0.162 HD
HETATM   18  O   UNL     1      41.335 -15.791  -0.370  1.00  0.00    -0.274 OA
BRANCH  16  19
HETATM   19  C   UNL     1      41.244 -14.008  -2.666  1.00  0.00     0.089 C 
HETATM   20  C   UNL     1      41.327 -12.744  -3.534  1.00  0.00     0.063 C 
HETATM   21  C   UNL     1      40.024 -11.932  -3.642  1.00  0.00     0.121 C 
HETATM   22  C   UNL     1      39.724 -11.083  -2.403  1.00  0.00     0.046 C 
HETATM   23  C   UNL     1      40.125 -10.970  -4.845  1.00  0.00     0.046 C 
HETATM   24  N   UNL     1      38.857 -12.847  -3.943  1.00  0.00    -0.059 N 
HETATM   25  H   UNL     1      38.907 -13.085  -4.944  1.00  0.00     0.279 HD
HETATM   26  H   UNL     1      37.979 -12.314  -3.857  1.00  0.00     0.279 HD
HETATM   27  C   UNL     1      38.703 -14.157  -3.193  1.00  0.00     0.121 C 
HETATM   28  C   UNL     1      37.724 -15.011  -4.030  1.00  0.00     0.046 C 
HETATM   29  C   UNL     1      38.041 -13.910  -1.836  1.00  0.00     0.046 C 
HETATM   30  C   UNL     1      40.061 -14.863  -3.141  1.00  0.00     0.063 C 
ENDBRANCH  16  19
ENDBRANCH  14  15
ENDBRANCH  13  14
ENDBRANCH  10  13
BRANCH  11  31
HETATM   31  C   UNL     1      42.415 -13.191   4.755  1.00  0.00     0.134 C 
BRANCH  31  32
HETATM   32  C   UNL     1      41.465 -12.899   5.926  1.00  0.00    -0.004 C 
HETATM   33  C   UNL     1      41.170 -11.405   6.066  1.00  0.00     0.011 C 
HETATM   34  C   UNL     1      40.160 -13.672   5.731  1.00  0.00     0.011 C 
ENDBRANCH  31  32
ENDBRANCH  11  31
BRANCH   1  35
HETATM   35  C   UNL     1      43.355 -19.150   4.117  1.00  0.00     0.135 C 
BRANCH  35  36
HETATM   36  C   UNL     1      44.202 -19.347   2.859  1.00  0.00     0.020 C 
BRANCH  36  37
HETATM   37  C   UNL     1      43.544 -20.266   1.831  1.00  0.00    -0.003 C 
HETATM   38  C   UNL     1      44.086 -21.684   1.936  1.00  0.00     0.005 C 
ENDBRANCH  36  37
ENDBRANCH  35  36
ENDBRANCH   1  35
TORSDOF 9
ENDMDL
MODEL 9
REMARK VINA RESULT:      -7.6      1.799      2.861
REMARK  9 active torsions:
REMARK  status: ('A' for Active; 'I' for Inactive)
REMARK    1  A    between atoms: C_2  and  C_3 
REMARK    2  A    between atoms: C_3  and  C_4 
REMARK    3  A    between atoms: C_4  and  N_5 
REMARK    4  A    between atoms: C_14  and  C_15 
REMARK    5  A    between atoms: C_15  and  C_16 
REMARK    6  A    between atoms: C_16  and  C_17 
REMARK       I    between atoms: C_17  and  N_18 
REMARK    7  A    between atoms: N_18  and  C_19 
REMARK    8  A    between atoms: N_32  and  C_33 
REMARK    9  A    between atoms: C_33  and  C_34 
ROOT
HETATM    1  N   UNL     1      43.091 -17.545   3.802  1.00  0.00    -0.282 N 
HETATM    2  C   UNL     1      42.983 -17.692   5.183  1.00  0.00     0.331 A 
HETATM    3  O   UNL     1      43.715 -18.415   5.857  1.00  0.00    -0.246 OA
HETATM    4  N   UNL     1      42.001 -16.958   5.819  1.00  0.00    -0.273 N 
HETATM    5  C   UNL     1      41.112 -16.076   5.250  1.00  0.00     0.280 A 
HETATM    6  O   UNL     1      40.314 -15.428   5.915  1.00  0.00    -0.265 OA
HETATM    7  C   UNL     1      41.265 -15.984   3.837  1.00  0.00     0.151 A 
HETATM    8  C   UNL     1      42.227 -16.680   3.164  1.00  0.00     0.168 A 
HETATM    9  N   UNL     1      42.224 -16.386   1.839  1.00  0.00    -0.215 NA
HETATM   10  C   UNL     1      41.182 -15.589   1.660  1.00  0.00     0.109 A 
HETATM   11  N   UNL     1      40.576 -15.295   2.872  1.00  0.00    -0.327 N 
HETATM   12  H   UNL     1      41.940 -17.081   6.820  1.00  0.00     0.173 HD
ENDROOT
BRANCH  10  13
HETATM   13  C   UNL     1      40.729 -15.062   0.330  1.00  0.00     0.088 C 
BRANCH  13  14
HETATM   14  C   UNL     1      41.259 -15.886  -0.843  1.00  0.00     0.110 C 
BRANCH  14  15
HETATM   15  C   UNL     1      40.771 -15.381  -2.189  1.00  0.00     0.218 C 
HETATM   16  N   UNL     1      39.669 -14.551  -2.143  1.00  0.00    -0.356 N 
HETATM   17  H   UNL     1      39.529 -14.156  -1.208  1.00  0.00     0.162 HD
HETATM   18  O   UNL     1      41.315 -15.721  -3.233  1.00  0.00    -0.274 OA
BRANCH  16  19
HETATM   19  C   UNL     1      39.214 -13.710  -3.246  1.00  0.00     0.089 C 
HETATM   20  C   UNL     1      40.197 -12.557  -3.495  1.00  0.00     0.063 C 
HETATM   21  C   UNL     1      40.067 -11.361  -2.536  1.00  0.00     0.121 C 
HETATM   22  C   UNL     1      40.680 -11.610  -1.155  1.00  0.00     0.046 C 
HETATM   23  C   UNL     1      40.788 -10.141  -3.146  1.00  0.00     0.046 C 
HETATM   24  N   UNL     1      38.615 -10.954  -2.397  1.00  0.00    -0.059 N 
HETATM   25  H   UNL     1      38.364 -10.427  -3.246  1.00  0.00     0.279 HD
HETATM   26  H   UNL     1      38.530 -10.262  -1.638  1.00  0.00     0.279 HD
HETATM   27  C   UNL     1      37.543 -12.011  -2.209  1.00  0.00     0.121 C 
HETATM   28  C   UNL     1      36.204 -11.320  -2.552  1.00  0.00     0.046 C 
HETATM   29  C   UNL     1      37.471 -12.431  -0.740  1.00  0.00     0.046 C 
HETATM   30  C   UNL     1      37.786 -13.149  -3.205  1.00  0.00     0.063 C 
ENDBRANCH  16  19
ENDBRANCH  14  15
ENDBRANCH  13  14
ENDBRANCH  10  13
BRANCH  11  31
HETATM   31  C   UNL     1      39.467 -14.381   3.083  1.00  0.00     0.134 C 
BRANCH  31  32
HETATM   32  C   UNL     1      39.841 -12.895   2.973  1.00  0.00    -0.004 C 
HETATM   33  C   UNL     1      38.642 -12.031   2.579  1.00  0.00     0.011 C 
HETATM   34  C   UNL     1      40.415 -12.412   4.305  1.00  0.00     0.011 C 
ENDBRANCH  31  32
ENDBRANCH  11  31
BRANCH   1  35
HETATM   35  C   UNL     1      44.039 -18.367   3.054  1.00  0.00     0.135 C 
BRANCH  35  36
HETATM   36  C   UNL     1      43.469 -19.707   2.584  1.00  0.00     0.020 C 
BRANCH  36  37
HETATM   37  C   UNL     1      44.506 -20.830   2.578  1.00  0.00    -0.003 C 
HETATM   38  C   UNL     1      44.101 -21.944   1.626  1.00  0.00     0.005 C 
ENDBRANCH  36  37
ENDBRANCH  35  36
ENDBRANCH   1  35
TORSDOF 9
ENDMDL
MODEL 10
REMARK VINA RESULT:      -7.5      2.650      7.740
REMARK  9 active torsions:
REMARK  status: ('A' for Active; 'I' for Inactive)
REMARK    1  A    between atoms: C_2  and  C_3 
REMARK    2  A    between atoms: C_3  and  C_4 
REMARK    3  A    between atoms: C_4  and  N_5 
REMARK    4  A    between atoms: C_14  and  C_15 
REMARK    5  A    between atoms: C_15  and  C_16 
REMARK    6  A    between atoms: C_16  and  C_17 
REMARK       I    between atoms: C_17  and  N_18 
REMARK    7  A    between atoms: N_18  and  C_19 
REMARK    8  A    between atoms: N_32  and  C_33 
REMARK    9  A    between atoms: C_33  and  C_34 
ROOT
HETATM    1  N   UNL     1      41.069 -15.119   1.382  1.00  0.00    -0.282 N 
HETATM    2  C   UNL     1      41.534 -15.542   0.138  1.00  0.00     0.331 A 
HETATM    3  O   UNL     1      41.088 -15.140  -0.935  1.00  0.00    -0.246 OA
HETATM    4  N   UNL     1      42.571 -16.454   0.130  1.00  0.00    -0.273 N 
HETATM    5  C   UNL     1      43.222 -16.993   1.216  1.00  0.00     0.280 A 
HETATM    6  O   UNL     1      44.175 -17.753   1.098  1.00  0.00    -0.265 OA
HETATM    7  C   UNL     1      42.690 -16.532   2.454  1.00  0.00     0.151 A 
HETATM    8  C   UNL     1      41.673 -15.624   2.514  1.00  0.00     0.168 A 
HETATM    9  N   UNL     1      41.378 -15.288   3.795  1.00  0.00    -0.215 NA
HETATM   10  C   UNL     1      42.133 -16.073   4.547  1.00  0.00     0.109 A 
HETATM   11  N   UNL     1      42.978 -16.840   3.759  1.00  0.00    -0.327 N 
HETATM   12  H   UNL     1      42.891 -16.747  -0.782  1.00  0.00     0.173 HD
ENDROOT
BRANCH  10  13
HETATM   13  C   UNL     1      42.095 -16.114   6.047  1.00  0.00     0.088 C 
BRANCH  13  14
HETATM   14  C   UNL     1      43.146 -15.209   6.689  1.00  0.00     0.110 C 
BRANCH  14  15
HETATM   15  C   UNL     1      43.193 -13.824   6.069  1.00  0.00     0.218 C 
HETATM   16  N   UNL     1      42.103 -13.021   6.337  1.00  0.00    -0.356 N 
HETATM   17  H   UNL     1      41.575 -13.354   7.150  1.00  0.00     0.162 HD
HETATM   18  O   UNL     1      44.129 -13.475   5.360  1.00  0.00    -0.274 OA
BRANCH  16  19
HETATM   19  C   UNL     1      42.058 -11.578   6.118  1.00  0.00     0.089 C 
HETATM   20  C   UNL     1      41.440 -10.862   7.328  1.00  0.00     0.063 C 
HETATM   21  C   UNL     1      39.904 -10.894   7.399  1.00  0.00     0.121 C 
HETATM   22  C   UNL     1      39.337 -12.233   7.880  1.00  0.00     0.046 C 
HETATM   23  C   UNL     1      39.419  -9.810   8.384  1.00  0.00     0.046 C 
HETATM   24  N   UNL     1      39.307 -10.527   6.057  1.00  0.00    -0.059 N 
HETATM   25  H   UNL     1      39.379  -9.504   5.962  1.00  0.00     0.279 HD
HETATM   26  H   UNL     1      38.292 -10.705   6.079  1.00  0.00     0.279 HD
HETATM   27  C   UNL     1      39.875 -11.124   4.783  1.00  0.00     0.121 C 
HETATM   28  C   UNL     1      39.365 -10.226   3.633  1.00  0.00     0.046 C 
HETATM   29  C   UNL     1      39.297 -12.521   4.555  1.00  0.00     0.046 C 
HETATM   30  C   UNL     1      41.403 -11.046   4.836  1.00  0.00     0.063 C 
ENDBRANCH  16  19
ENDBRANCH  14  15
ENDBRANCH  13  14
ENDBRANCH  10  13
BRANCH  11  31
HETATM   31  C   UNL     1      44.012 -17.745   4.230  1.00  0.00     0.134 C 
BRANCH  31  32
HETATM   32  C   UNL     1      43.544 -19.195   4.424  1.00  0.00    -0.004 C 
HETATM   33  C   UNL     1      44.401 -20.184   3.631  1.00  0.00     0.011 C 
HETATM   34  C   UNL     1      43.581 -19.550   5.911  1.00  0.00     0.011 C 
ENDBRANCH  31  32
ENDBRANCH  11  31
BRANCH   1  35
HETATM   35  C   UNL     1      39.909 -14.235   1.464  1.00  0.00     0.135 C 
BRANCH  35  36
HETATM   36  C   UNL     1      38.572 -14.970   1.572  1.00  0.00     0.020 C 
BRANCH  36  37
HETATM   37  C   UNL     1      37.428 -14.237   0.871  1.00  0.00    -0.003 C 
HETATM   38  C   UNL     1      37.948 -13.361  -0.258  1.00  0.00     0.005 C 
ENDBRANCH  36  37
ENDBRANCH  35  36
ENDBRANCH   1  35
TORSDOF 9
ENDMDL
