MODEL 1
REMARK VINA RESULT:      -9.4      0.000      0.000
REMARK  7 active torsions:
REMARK  status: ('A' for Active; 'I' for Inactive)
REMARK    1  A    between atoms: C_2  and  C_3 
REMARK    2  A    between atoms: C_6  and  C_7 
REMARK    3  A    between atoms: C_10  and  C_11 
REMARK       I    between atoms: C_11  and  N_12 
REMARK    4  A    between atoms: N_12  and  C_13 
REMARK    5  A    between atoms: C_25  and  C_26 
REMARK       I    between atoms: C_26  and  N_27 
REMARK    6  A    between atoms: N_27  and  C_28 
REMARK    7  A    between atoms: C_31  and  O_32 
ROOT
HETATM    1  C   UNL     1      42.631 -15.505   3.211  1.00  0.00     0.185 C 
HETATM    2  N   UNL     1      41.936 -15.131   1.971  1.00  0.00    -0.239 N 
HETATM    3  C   UNL     1      40.591 -14.862   1.894  1.00  0.00     0.142 A 
HETATM    4  C   UNL     1      40.328 -14.656   0.552  1.00  0.00     0.097 A 
HETATM    5  C   UNL     1      41.612 -14.703  -0.056  1.00  0.00     0.160 A 
HETATM    6  N   UNL     1      42.596 -14.971   0.805  1.00  0.00    -0.181 NA
HETATM    7  N   UNL     1      39.870 -14.815   3.048  1.00  0.00    -0.343 N 
HETATM    8  C   UNL     1      40.488 -14.834   4.309  1.00  0.00     0.021 C 
HETATM    9  C   UNL     1      39.589 -14.484   5.471  1.00  0.00     0.069 C 
HETATM   10  C   UNL     1      41.808 -15.133   4.434  1.00  0.00     0.061 C 
HETATM   11  H   UNL     1      38.974 -14.325   3.058  1.00  0.00     0.167 HD
ENDROOT
BRANCH  10  12
HETATM   12  C   UNL     1      42.545 -14.877   5.717  1.00  0.00     0.256 C 
HETATM   13  N   UNL     1      43.103 -13.620   5.828  1.00  0.00    -0.323 N 
HETATM   14  H   UNL     1      43.093 -13.014   5.018  1.00  0.00     0.169 HD
HETATM   15  O   UNL     1      42.557 -15.744   6.584  1.00  0.00    -0.267 OA
BRANCH  13  16
HETATM   16  C   UNL     1      43.683 -13.040   6.979  1.00  0.00     0.035 A 
HETATM   17  C   UNL     1      44.884 -13.454   7.551  1.00  0.00     0.032 A 
HETATM   18  C   UNL     1      45.359 -12.843   8.719  1.00  0.00     0.039 A 
HETATM   19  C   UNL     1      44.640 -11.821   9.338  1.00  0.00     0.068 A 
HETATM   20  C   UNL     1      43.445 -11.393   8.764  1.00  0.00     0.039 A 
HETATM   21  C   UNL     1      42.974 -11.996   7.589  1.00  0.00     0.032 A 
BRANCH  19  22
HETATM   22  O   UNL     1      45.209 -11.329  10.479  1.00  0.00    -0.356 OA
HETATM   23  C   UNL     1      44.351 -10.635  11.377  1.00  0.00     0.210 C 
ENDBRANCH  19  22
ENDBRANCH  13  16
ENDBRANCH  10  12
BRANCH   1  24
HETATM   24  C   UNL     1      43.008 -16.988   3.127  1.00  0.00    -0.029 A 
HETATM   25  C   UNL     1      43.841 -17.540   4.114  1.00  0.00     0.010 A 
HETATM   26  C   UNL     1      44.234 -18.878   4.054  1.00  0.00     0.007 A 
HETATM   27  C   UNL     1      43.802 -19.702   3.008  1.00  0.00    -0.059 A 
HETATM   28  C   UNL     1      42.972 -19.160   2.022  1.00  0.00     0.007 A 
HETATM   29  C   UNL     1      42.589 -17.815   2.071  1.00  0.00     0.010 A 
BRANCH  27  30
HETATM   30  C   UNL     1      44.249 -21.140   2.931  1.00  0.00     0.034 C 
HETATM   31  C   UNL     1      43.891 -21.789   1.603  1.00  0.00     0.010 C 
ENDBRANCH  27  30
ENDBRANCH   1  24
BRANCH   4  32
HETATM   32  C   UNL     1      39.085 -14.401  -0.157  1.00  0.00     0.261 C 
HETATM   33  N   UNL     1      39.222 -14.298  -1.529  1.00  0.00    -0.323 N 
HETATM   34  H   UNL     1      40.165 -14.362  -1.887  1.00  0.00     0.169 HD
HETATM   35  O   UNL     1      38.041 -14.265   0.472  1.00  0.00    -0.267 OA
BRANCH  33  36
HETATM   36  C   UNL     1      38.209 -14.023  -2.474  1.00  0.00     0.035 A 
HETATM   37  C   UNL     1      37.646 -14.984  -3.317  1.00  0.00     0.029 A 
HETATM   38  C   UNL     1      36.635 -14.637  -4.218  1.00  0.00     0.002 A 
HETATM   39  C   UNL     1      36.183 -13.322  -4.292  1.00  0.00     0.000 A 
HETATM   40  C   UNL     1      36.740 -12.355  -3.461  1.00  0.00     0.002 A 
HETATM   41  C   UNL     1      37.744 -12.704  -2.551  1.00  0.00     0.029 A 
ENDBRANCH  33  36
ENDBRANCH   4  32
TORSDOF 7
ENDMDL
MODEL 2
REMARK VINA RESULT:      -9.4      1.806      9.654
REMARK  7 active torsions:
REMARK  status: ('A' for Active; 'I' for Inactive)
REMARK    1  A    between atoms: C_2  and  C_3 
REMARK    2  A    between atoms: C_6  and  C_7 
REMARK    3  A    between atoms: C_10  and  C_11 
REMARK       I    between atoms: C_11  and  N_12 
REMARK    4  A    between atoms: N_12  and  C_13 
REMARK    5  A    between atoms: C_25  and  C_26 
REMARK       I    between atoms: C_26  and  N_27 
REMARK    6  A    between atoms: N_27  and  C_28 
REMARK    7  A    between atoms: C_31  and  O_32 
ROOT
HETATM    1  C   UNL     1      41.621 -16.303   3.579  1.00  0.00     0.185 C 
HETATM    2  N   UNL     1      42.254 -15.884   4.837  1.00  0.00    -0.239 N 
HETATM    3  C   UNL     1      43.070 -14.785   4.959  1.00  0.00     0.142 A 
HETATM    4  C   UNL     1      43.531 -14.805   6.263  1.00  0.00     0.097 A 
HETATM    5  C   UNL     1      42.823 -15.886   6.855  1.00  0.00     0.160 A 
HETATM    6  N   UNL     1      42.030 -16.533   5.998  1.00  0.00    -0.181 NA
HETATM    7  N   UNL     1      43.211 -13.957   3.887  1.00  0.00    -0.343 N 
HETATM    8  C   UNL     1      42.402 -14.080   2.745  1.00  0.00     0.021 C 
HETATM    9  C   UNL     1      42.478 -12.923   1.777  1.00  0.00     0.069 C 
HETATM   10  C   UNL     1      41.609 -15.169   2.566  1.00  0.00     0.061 C 
HETATM   11  H   UNL     1      43.540 -13.002   4.033  1.00  0.00     0.167 HD
ENDROOT
BRANCH  10  12
HETATM   12  C   UNL     1      40.536 -15.185   1.516  1.00  0.00     0.256 C 
HETATM   13  N   UNL     1      40.928 -14.729   0.274  1.00  0.00    -0.323 N 
HETATM   14  H   UNL     1      41.842 -14.308   0.181  1.00  0.00     0.169 HD
HETATM   15  O   UNL     1      39.432 -15.642   1.795  1.00  0.00    -0.267 OA
BRANCH  13  16
HETATM   16  C   UNL     1      40.199 -14.805  -0.934  1.00  0.00     0.035 A 
HETATM   17  C   UNL     1      39.004 -14.130  -1.178  1.00  0.00     0.032 A 
HETATM   18  C   UNL     1      38.331 -14.300  -2.395  1.00  0.00     0.039 A 
HETATM   19  C   UNL     1      38.831 -15.153  -3.379  1.00  0.00     0.068 A 
HETATM   20  C   UNL     1      40.031 -15.821  -3.147  1.00  0.00     0.039 A 
HETATM   21  C   UNL     1      40.712 -15.642  -1.934  1.00  0.00     0.032 A 
BRANCH  19  22
HETATM   22  O   UNL     1      38.064 -15.239  -4.507  1.00  0.00    -0.356 OA
HETATM   23  C   UNL     1      36.777 -14.637  -4.456  1.00  0.00     0.210 C 
ENDBRANCH  19  22
ENDBRANCH  13  16
ENDBRANCH  10  12
BRANCH   1  24
HETATM   24  C   UNL     1      42.312 -17.581   3.091  1.00  0.00    -0.029 A 
HETATM   25  C   UNL     1      43.227 -18.231   3.935  1.00  0.00     0.010 A 
HETATM   26  C   UNL     1      43.902 -19.378   3.513  1.00  0.00     0.007 A 
HETATM   27  C   UNL     1      43.677 -19.909   2.238  1.00  0.00    -0.059 A 
HETATM   28  C   UNL     1      42.767 -19.268   1.392  1.00  0.00     0.007 A 
HETATM   29  C   UNL     1      42.100 -18.110   1.806  1.00  0.00     0.010 A 
BRANCH  27  30
HETATM   30  C   UNL     1      44.427 -21.133   1.775  1.00  0.00     0.034 C 
HETATM   31  C   UNL     1      44.422 -22.244   2.813  1.00  0.00     0.010 C 
ENDBRANCH  27  30
ENDBRANCH   1  24
BRANCH   4  32
HETATM   32  C   UNL     1      44.472 -13.948   6.964  1.00  0.00     0.261 C 
HETATM   33  N   UNL     1      43.945 -13.311   8.073  1.00  0.00    -0.323 N 
HETATM   34  H   UNL     1      42.963 -13.468   8.251  1.00  0.00     0.169 HD
HETATM   35  O   UNL     1      45.614 -13.817   6.537  1.00  0.00    -0.267 OA
BRANCH  33  36
HETATM   36  C   UNL     1      44.599 -12.399   8.929  1.00  0.00     0.035 A 
HETATM   37  C   UNL     1      45.863 -11.859   8.677  1.00  0.00     0.029 A 
HETATM   38  C   UNL     1      46.440 -10.948   9.567  1.00  0.00     0.002 A 
HETATM   39  C   UNL     1      45.762 -10.575  10.724  1.00  0.00     0.000 A 
HETATM   40  C   UNL     1      44.505 -11.110  10.990  1.00  0.00     0.002 A 
HETATM   41  C   UNL     1      43.923 -12.013  10.093  1.00  0.00     0.029 A 
ENDBRANCH  33  36
ENDBRANCH   4  32
TORSDOF 7
ENDMDL
MODEL 3
REMARK VINA RESULT:      -9.1      2.796      3.697
REMARK  7 active torsions:
REMARK  status: ('A' for Active; 'I' for Inactive)
REMARK    1  A    between atoms: C_2  and  C_3 
REMARK    2  A    between atoms: C_6  and  C_7 
REMARK    3  A    between atoms: C_10  and  C_11 
REMARK       I    between atoms: C_11  and  N_12 
REMARK    4  A    between atoms: N_12  and  C_13 
REMARK    5  A    between atoms: C_25  and  C_26 
REMARK       I    between atoms: C_26  and  N_27 
REMARK    6  A    between atoms: N_27  and  C_28 
REMARK    7  A    between atoms: C_31  and  O_32 
ROOT
HETATM    1  C   UNL     1      42.286 -12.792   4.756  1.00  0.00     0.185 C 
HETATM    2  N   UNL     1      41.985 -13.267   3.398  1.00  0.00    -0.239 N 
HETATM    3  C   UNL     1      40.720 -13.325   2.865  1.00  0.00     0.142 A 
HETATM    4  C   UNL     1      40.865 -13.917   1.624  1.00  0.00     0.097 A 
HETATM    5  C   UNL     1      42.272 -14.050   1.474  1.00  0.00     0.160 A 
HETATM    6  N   UNL     1      42.960 -13.638   2.541  1.00  0.00    -0.181 NA
HETATM    7  N   UNL     1      39.688 -12.801   3.582  1.00  0.00    -0.343 N 
HETATM    8  C   UNL     1      39.904 -12.034   4.739  1.00  0.00     0.021 C 
HETATM    9  C   UNL     1      38.694 -11.286   5.249  1.00  0.00     0.069 C 
HETATM   10  C   UNL     1      41.131 -11.980   5.321  1.00  0.00     0.061 C 
HETATM   11  H   UNL     1      38.822 -12.550   3.102  1.00  0.00     0.167 HD
ENDROOT
BRANCH  10  12
HETATM   12  C   UNL     1      41.449 -10.954   6.369  1.00  0.00     0.256 C 
HETATM   13  N   UNL     1      41.472 -11.430   7.664  1.00  0.00    -0.323 N 
HETATM   14  H   UNL     1      41.160 -12.376   7.836  1.00  0.00     0.169 HD
HETATM   15  O   UNL     1      41.721  -9.808   6.023  1.00  0.00    -0.267 OA
BRANCH  13  16
HETATM   16  C   UNL     1      41.921 -10.749   8.818  1.00  0.00     0.035 A 
HETATM   17  C   UNL     1      43.180 -10.915   9.393  1.00  0.00     0.032 A 
HETATM   18  C   UNL     1      43.520 -10.226  10.564  1.00  0.00     0.039 A 
HETATM   19  C   UNL     1      42.609  -9.372  11.185  1.00  0.00     0.068 A 
HETATM   20  C   UNL     1      41.354  -9.191  10.609  1.00  0.00     0.039 A 
HETATM   21  C   UNL     1      41.016  -9.872   9.431  1.00  0.00     0.032 A 
BRANCH  19  22
HETATM   22  O   UNL     1      43.065  -8.779  12.329  1.00  0.00    -0.356 OA
HETATM   23  C   UNL     1      43.293  -9.630  13.445  1.00  0.00     0.210 C 
ENDBRANCH  19  22
ENDBRANCH  13  16
ENDBRANCH  10  12
BRANCH   1  24
HETATM   24  C   UNL     1      42.692 -13.996   5.612  1.00  0.00    -0.029 A 
HETATM   25  C   UNL     1      41.811 -15.084   5.728  1.00  0.00     0.010 A 
HETATM   26  C   UNL     1      42.130 -16.184   6.527  1.00  0.00     0.007 A 
HETATM   27  C   UNL     1      43.340 -16.228   7.227  1.00  0.00    -0.059 A 
HETATM   28  C   UNL     1      44.224 -15.150   7.117  1.00  0.00     0.007 A 
HETATM   29  C   UNL     1      43.900 -14.039   6.330  1.00  0.00     0.010 A 
BRANCH  27  30
HETATM   30  C   UNL     1      43.671 -17.405   8.110  1.00  0.00     0.034 C 
HETATM   31  C   UNL     1      43.691 -18.719   7.343  1.00  0.00     0.010 C 
ENDBRANCH  27  30
ENDBRANCH   1  24
BRANCH   4  32
HETATM   32  C   UNL     1      39.886 -14.305   0.623  1.00  0.00     0.261 C 
HETATM   33  N   UNL     1      40.382 -14.366  -0.667  1.00  0.00    -0.323 N 
HETATM   34  H   UNL     1      41.348 -14.093  -0.784  1.00  0.00     0.169 HD
HETATM   35  O   UNL     1      38.723 -14.514   0.954  1.00  0.00    -0.267 OA
BRANCH  33  36
HETATM   36  C   UNL     1      39.670 -14.679  -1.845  1.00  0.00     0.035 A 
HETATM   37  C   UNL     1      38.473 -14.065  -2.221  1.00  0.00     0.029 A 
HETATM   38  C   UNL     1      37.834 -14.419  -3.414  1.00  0.00     0.002 A 
HETATM   39  C   UNL     1      38.381 -15.398  -4.237  1.00  0.00     0.000 A 
HETATM   40  C   UNL     1      39.571 -16.021  -3.871  1.00  0.00     0.002 A 
HETATM   41  C   UNL     1      40.216 -15.658  -2.684  1.00  0.00     0.029 A 
ENDBRANCH  33  36
ENDBRANCH   4  32
TORSDOF 7
ENDMDL
MODEL 4
REMARK VINA RESULT:      -9.1      3.052      9.714
REMARK  7 active torsions:
REMARK  status: ('A' for Active; 'I' for Inactive)
REMARK    1  A    between atoms: C_2  and  C_3 
REMARK    2  A    between atoms: C_6  and  C_7 
REMARK    3  A    between atoms: C_10  and  C_11 
REMARK       I    between atoms: C_11  and  N_12 
REMARK    4  A    between atoms: N_12  and  C_13 
REMARK    5  A    between atoms: C_25  and  C_26 
REMARK       I    between atoms: C_26  and  N_27 
REMARK    6  A    between atoms: N_27  and  C_28 
REMARK    7  A    between atoms: C_31  and  O_32 
ROOT
HETATM    1  C   UNL     1      40.927 -13.496   3.765  1.00  0.00     0.185 C 
HETATM    2  N   UNL     1      41.012 -12.450   4.793  1.00  0.00    -0.239 N 
HETATM    3  C   UNL     1      40.602 -12.614   6.095  1.00  0.00     0.142 A 
HETATM    4  C   UNL     1      40.758 -11.377   6.694  1.00  0.00     0.097 A 
HETATM    5  C   UNL     1      41.386 -10.592   5.690  1.00  0.00     0.160 A 
HETATM    6  N   UNL     1      41.562 -11.244   4.539  1.00  0.00    -0.181 NA
HETATM    7  N   UNL     1      40.204 -13.851   6.500  1.00  0.00    -0.343 N 
HETATM    8  C   UNL     1      40.390 -14.989   5.697  1.00  0.00     0.021 C 
HETATM    9  C   UNL     1      40.169 -16.311   6.394  1.00  0.00     0.069 C 
HETATM   10  C   UNL     1      40.757 -14.871   4.394  1.00  0.00     0.061 C 
HETATM   11  H   UNL     1      40.197 -14.073   7.497  1.00  0.00     0.167 HD
ENDROOT
BRANCH  10  12
HETATM   12  C   UNL     1      41.238 -16.058   3.610  1.00  0.00     0.256 C 
HETATM   13  N   UNL     1      42.515 -16.480   3.916  1.00  0.00    -0.323 N 
HETATM   14  H   UNL     1      43.077 -15.910   4.534  1.00  0.00     0.169 HD
HETATM   15  O   UNL     1      40.476 -16.601   2.817  1.00  0.00    -0.267 OA
BRANCH  13  16
HETATM   16  C   UNL     1      43.151 -17.666   3.484  1.00  0.00     0.035 A 
HETATM   17  C   UNL     1      43.134 -18.137   2.173  1.00  0.00     0.032 A 
HETATM   18  C   UNL     1      43.760 -19.348   1.848  1.00  0.00     0.039 A 
HETATM   19  C   UNL     1      44.399 -20.111   2.825  1.00  0.00     0.068 A 
HETATM   20  C   UNL     1      44.431 -19.640   4.135  1.00  0.00     0.039 A 
HETATM   21  C   UNL     1      43.815 -18.423   4.460  1.00  0.00     0.032 A 
BRANCH  19  22
HETATM   22  O   UNL     1      44.950 -21.277   2.373  1.00  0.00    -0.356 OA
HETATM   23  C   UNL     1      44.136 -22.090   1.537  1.00  0.00     0.210 C 
ENDBRANCH  19  22
ENDBRANCH  13  16
ENDBRANCH  10  12
BRANCH   1  24
HETATM   24  C   UNL     1      39.823 -13.113   2.773  1.00  0.00    -0.029 A 
HETATM   25  C   UNL     1      39.781 -13.741   1.518  1.00  0.00     0.010 A 
HETATM   26  C   UNL     1      38.811 -13.395   0.575  1.00  0.00     0.007 A 
HETATM   27  C   UNL     1      37.856 -12.414   0.863  1.00  0.00    -0.059 A 
HETATM   28  C   UNL     1      37.891 -11.784   2.111  1.00  0.00     0.007 A 
HETATM   29  C   UNL     1      38.870 -12.118   3.052  1.00  0.00     0.010 A 
BRANCH  27  30
HETATM   30  C   UNL     1      36.826 -12.022  -0.167  1.00  0.00     0.034 C 
HETATM   31  C   UNL     1      35.614 -11.344   0.452  1.00  0.00     0.010 C 
ENDBRANCH  27  30
ENDBRANCH   1  24
BRANCH   4  32
HETATM   32  C   UNL     1      40.434 -10.908   8.030  1.00  0.00     0.261 C 
HETATM   33  N   UNL     1      41.438 -11.099   8.961  1.00  0.00    -0.323 N 
HETATM   34  H   UNL     1      42.263 -11.581   8.631  1.00  0.00     0.169 HD
HETATM   35  O   UNL     1      39.330 -10.423   8.256  1.00  0.00    -0.267 OA
BRANCH  33  36
HETATM   36  C   UNL     1      41.406 -10.780  10.336  1.00  0.00     0.035 A 
HETATM   37  C   UNL     1      40.443 -11.259  11.226  1.00  0.00     0.029 A 
HETATM   38  C   UNL     1      40.486 -10.909  12.580  1.00  0.00     0.002 A 
HETATM   39  C   UNL     1      41.488 -10.068  13.054  1.00  0.00     0.000 A 
HETATM   40  C   UNL     1      42.451  -9.580  12.175  1.00  0.00     0.002 A 
HETATM   41  C   UNL     1      42.414  -9.939  10.823  1.00  0.00     0.029 A 
ENDBRANCH  33  36
ENDBRANCH   4  32
TORSDOF 7
ENDMDL
MODEL 5
REMARK VINA RESULT:      -9.0      1.904      9.647
REMARK  7 active torsions:
REMARK  status: ('A' for Active; 'I' for Inactive)
REMARK    1  A    between atoms: C_2  and  C_3 
REMARK    2  A    between atoms: C_6  and  C_7 
REMARK    3  A    between atoms: C_10  and  C_11 
REMARK       I    between atoms: C_11  and  N_12 
REMARK    4  A    between atoms: N_12  and  C_13 
REMARK    5  A    between atoms: C_25  and  C_26 
REMARK       I    between atoms: C_26  and  N_27 
REMARK    6  A    between atoms: N_27  and  C_28 
REMARK    7  A    between atoms: C_31  and  O_32 
ROOT
HETATM    1  C   UNL     1      40.848 -15.071   2.321  1.00  0.00     0.185 C 
HETATM    2  N   UNL     1      40.953 -14.532   3.684  1.00  0.00    -0.239 N 
HETATM    3  C   UNL     1      41.610 -13.367   4.003  1.00  0.00     0.142 A 
HETATM    4  C   UNL     1      41.560 -13.277   5.382  1.00  0.00     0.097 A 
HETATM    5  C   UNL     1      40.741 -14.373   5.764  1.00  0.00     0.160 A 
HETATM    6  N   UNL     1      40.352 -15.128   4.734  1.00  0.00    -0.181 NA
HETATM    7  N   UNL     1      42.092 -12.595   2.991  1.00  0.00    -0.343 N 
HETATM    8  C   UNL     1      41.766 -12.846   1.648  1.00  0.00     0.021 C 
HETATM    9  C   UNL     1      42.132 -11.744   0.680  1.00  0.00     0.069 C 
HETATM   10  C   UNL     1      41.151 -14.001   1.283  1.00  0.00     0.061 C 
HETATM   11  H   UNL     1      42.295 -11.609   3.167  1.00  0.00     0.167 HD
ENDROOT
BRANCH  10  12
HETATM   12  C   UNL     1      40.540 -14.161  -0.079  1.00  0.00     0.256 C 
HETATM   13  N   UNL     1      39.233 -13.734  -0.186  1.00  0.00    -0.323 N 
HETATM   14  H   UNL     1      38.742 -13.467   0.657  1.00  0.00     0.169 HD
HETATM   15  O   UNL     1      41.230 -14.590  -0.999  1.00  0.00    -0.267 OA
BRANCH  13  16
HETATM   16  C   UNL     1      38.474 -13.587  -1.369  1.00  0.00     0.035 A 
HETATM   17  C   UNL     1      38.301 -14.588  -2.323  1.00  0.00     0.032 A 
HETATM   18  C   UNL     1      37.564 -14.336  -3.488  1.00  0.00     0.039 A 
HETATM   19  C   UNL     1      37.000 -13.082  -3.723  1.00  0.00     0.068 A 
HETATM   20  C   UNL     1      37.158 -12.081  -2.767  1.00  0.00     0.039 A 
HETATM   21  C   UNL     1      37.886 -12.336  -1.596  1.00  0.00     0.032 A 
BRANCH  19  22
HETATM   22  O   UNL     1      36.324 -12.969  -4.905  1.00  0.00    -0.356 OA
HETATM   23  C   UNL     1      35.393 -13.999  -5.214  1.00  0.00     0.210 C 
ENDBRANCH  19  22
ENDBRANCH  13  16
ENDBRANCH  10  12
BRANCH   1  24
HETATM   24  C   UNL     1      41.734 -16.317   2.223  1.00  0.00    -0.029 A 
HETATM   25  C   UNL     1      43.102 -16.212   2.523  1.00  0.00     0.010 A 
HETATM   26  C   UNL     1      43.949 -17.316   2.412  1.00  0.00     0.007 A 
HETATM   27  C   UNL     1      43.449 -18.558   2.003  1.00  0.00    -0.059 A 
HETATM   28  C   UNL     1      42.089 -18.672   1.703  1.00  0.00     0.007 A 
HETATM   29  C   UNL     1      41.241 -17.563   1.798  1.00  0.00     0.010 A 
BRANCH  27  30
HETATM   30  C   UNL     1      44.370 -19.743   1.859  1.00  0.00     0.034 C 
HETATM   31  C   UNL     1      43.617 -21.065   1.835  1.00  0.00     0.010 C 
ENDBRANCH  27  30
ENDBRANCH   1  24
BRANCH   4  32
HETATM   32  C   UNL     1      42.133 -12.310   6.304  1.00  0.00     0.261 C 
HETATM   33  N   UNL     1      43.080 -12.834   7.164  1.00  0.00    -0.323 N 
HETATM   34  H   UNL     1      43.239 -13.830   7.096  1.00  0.00     0.169 HD
HETATM   35  O   UNL     1      41.740 -11.148   6.291  1.00  0.00    -0.267 OA
BRANCH  33  36
HETATM   36  C   UNL     1      43.781 -12.155   8.184  1.00  0.00     0.035 A 
HETATM   37  C   UNL     1      43.210 -11.187   9.013  1.00  0.00     0.029 A 
HETATM   38  C   UNL     1      43.967 -10.568  10.013  1.00  0.00     0.002 A 
HETATM   39  C   UNL     1      45.306 -10.905  10.187  1.00  0.00     0.000 A 
HETATM   40  C   UNL     1      45.887 -11.864   9.364  1.00  0.00     0.002 A 
HETATM   41  C   UNL     1      45.127 -12.492   8.371  1.00  0.00     0.029 A 
ENDBRANCH  33  36
ENDBRANCH   4  32
TORSDOF 7
ENDMDL
MODEL 6
REMARK VINA RESULT:      -9.0      2.793      3.558
REMARK  7 active torsions:
REMARK  status: ('A' for Active; 'I' for Inactive)
REMARK    1  A    between atoms: C_2  and  C_3 
REMARK    2  A    between atoms: C_6  and  C_7 
REMARK    3  A    between atoms: C_10  and  C_11 
REMARK       I    between atoms: C_11  and  N_12 
REMARK    4  A    between atoms: N_12  and  C_13 
REMARK    5  A    between atoms: C_25  and  C_26 
REMARK       I    between atoms: C_26  and  N_27 
REMARK    6  A    between atoms: N_27  and  C_28 
REMARK    7  A    between atoms: C_31  and  O_32 
ROOT
HETATM    1  C   UNL     1      42.253 -12.788   4.728  1.00  0.00     0.185 C 
HETATM    2  N   UNL     1      41.965 -13.261   3.366  1.00  0.00    -0.239 N 
HETATM    3  C   UNL     1      40.706 -13.313   2.819  1.00  0.00     0.142 A 
HETATM    4  C   UNL     1      40.862 -13.904   1.579  1.00  0.00     0.097 A 
HETATM    5  C   UNL     1      42.270 -14.043   1.445  1.00  0.00     0.160 A 
HETATM    6  N   UNL     1      42.948 -13.634   2.520  1.00  0.00    -0.181 NA
HETATM    7  N   UNL     1      39.668 -12.785   3.525  1.00  0.00    -0.343 N 
HETATM    8  C   UNL     1      39.875 -12.020   4.685  1.00  0.00     0.021 C 
HETATM    9  C   UNL     1      38.663 -11.267   5.183  1.00  0.00     0.069 C 
HETATM   10  C   UNL     1      41.095 -11.971   5.281  1.00  0.00     0.061 C 
HETATM   11  H   UNL     1      38.809 -12.529   3.036  1.00  0.00     0.167 HD
ENDROOT
BRANCH  10  12
HETATM   12  C   UNL     1      41.407 -10.947   6.333  1.00  0.00     0.256 C 
HETATM   13  N   UNL     1      41.417 -11.425   7.628  1.00  0.00    -0.323 N 
HETATM   14  H   UNL     1      41.101 -12.371   7.795  1.00  0.00     0.169 HD
HETATM   15  O   UNL     1      41.684  -9.802   5.992  1.00  0.00    -0.267 OA
BRANCH  13  16
HETATM   16  C   UNL     1      41.857 -10.747   8.787  1.00  0.00     0.035 A 
HETATM   17  C   UNL     1      43.127 -10.881   9.345  1.00  0.00     0.032 A 
HETATM   18  C   UNL     1      43.458 -10.198  10.523  1.00  0.00     0.039 A 
HETATM   19  C   UNL     1      42.527  -9.383  11.166  1.00  0.00     0.068 A 
HETATM   20  C   UNL     1      41.261  -9.233  10.606  1.00  0.00     0.039 A 
HETATM   21  C   UNL     1      40.931  -9.908   9.422  1.00  0.00     0.032 A 
BRANCH  19  22
HETATM   22  O   UNL     1      42.977  -8.792  12.313  1.00  0.00    -0.356 OA
HETATM   23  C   UNL     1      43.284  -9.655  13.401  1.00  0.00     0.210 C 
ENDBRANCH  19  22
ENDBRANCH  13  16
ENDBRANCH  10  12
BRANCH   1  24
HETATM   24  C   UNL     1      42.645 -13.994   5.588  1.00  0.00    -0.029 A 
HETATM   25  C   UNL     1      43.862 -13.972   6.288  1.00  0.00     0.010 A 
HETATM   26  C   UNL     1      44.270 -15.065   7.054  1.00  0.00     0.007 A 
HETATM   27  C   UNL     1      43.469 -16.209   7.145  1.00  0.00    -0.059 A 
HETATM   28  C   UNL     1      42.255 -16.240   6.451  1.00  0.00     0.007 A 
HETATM   29  C   UNL     1      41.851 -15.151   5.671  1.00  0.00     0.010 A 
BRANCH  27  30
HETATM   30  C   UNL     1      43.923 -17.399   7.951  1.00  0.00     0.034 C 
HETATM   31  C   UNL     1      43.493 -18.720   7.331  1.00  0.00     0.010 C 
ENDBRANCH  27  30
ENDBRANCH   1  24
BRANCH   4  32
HETATM   32  C   UNL     1      39.892 -14.287   0.567  1.00  0.00     0.261 C 
HETATM   33  N   UNL     1      40.409 -14.383  -0.711  1.00  0.00    -0.323 N 
HETATM   34  H   UNL     1      41.384 -14.135  -0.816  1.00  0.00     0.169 HD
HETATM   35  O   UNL     1      38.719 -14.463   0.881  1.00  0.00    -0.267 OA
BRANCH  33  36
HETATM   36  C   UNL     1      39.712 -14.701  -1.897  1.00  0.00     0.035 A 
HETATM   37  C   UNL     1      40.151 -15.639  -2.834  1.00  0.00     0.029 A 
HETATM   38  C   UNL     1      39.395 -15.910  -3.980  1.00  0.00     0.002 A 
HETATM   39  C   UNL     1      38.199 -15.236  -4.205  1.00  0.00     0.000 A 
HETATM   40  C   UNL     1      37.754 -14.294  -3.281  1.00  0.00     0.002 A 
HETATM   41  C   UNL     1      38.504 -14.032  -2.129  1.00  0.00     0.029 A 
ENDBRANCH  33  36
ENDBRANCH   4  32
TORSDOF 7
ENDMDL
MODEL 7
REMARK VINA RESULT:      -8.9      3.418      9.363
REMARK  7 active torsions:
REMARK  status: ('A' for Active; 'I' for Inactive)
REMARK    1  A    between atoms: C_2  and  C_3 
REMARK    2  A    between atoms: C_6  and  C_7 
REMARK    3  A    between atoms: C_10  and  C_11 
REMARK       I    between atoms: C_11  and  N_12 
REMARK    4  A    between atoms: N_12  and  C_13 
REMARK    5  A    between atoms: C_25  and  C_26 
REMARK       I    between atoms: C_26  and  N_27 
REMARK    6  A    between atoms: N_27  and  C_28 
REMARK    7  A    between atoms: C_31  and  O_32 
ROOT
HETATM    1  C   UNL     1      42.107 -13.013   3.788  1.00  0.00     0.185 C 
HETATM    2  N   UNL     1      42.687 -14.277   4.261  1.00  0.00    -0.239 N 
HETATM    3  C   UNL     1      42.278 -15.519   3.836  1.00  0.00     0.142 A 
HETATM    4  C   UNL     1      42.999 -16.427   4.590  1.00  0.00     0.097 A 
HETATM    5  C   UNL     1      43.893 -15.613   5.336  1.00  0.00     0.160 A 
HETATM    6  N   UNL     1      43.723 -14.306   5.126  1.00  0.00    -0.181 NA
HETATM    7  N   UNL     1      41.366 -15.593   2.828  1.00  0.00    -0.343 N 
HETATM    8  C   UNL     1      40.990 -14.462   2.085  1.00  0.00     0.021 C 
HETATM    9  C   UNL     1      40.203 -14.751   0.828  1.00  0.00     0.069 C 
HETATM   10  C   UNL     1      41.340 -13.213   2.490  1.00  0.00     0.061 C 
HETATM   11  H   UNL     1      41.282 -16.459   2.293  1.00  0.00     0.167 HD
ENDROOT
BRANCH  10  12
HETATM   12  C   UNL     1      41.203 -12.031   1.574  1.00  0.00     0.256 C 
HETATM   13  N   UNL     1      42.144 -11.961   0.568  1.00  0.00    -0.323 N 
HETATM   14  H   UNL     1      42.916 -12.613   0.583  1.00  0.00     0.169 HD
HETATM   15  O   UNL     1      40.262 -11.259   1.729  1.00  0.00    -0.267 OA
BRANCH  13  16
HETATM   16  C   UNL     1      42.151 -11.080  -0.538  1.00  0.00     0.035 A 
HETATM   17  C   UNL     1      41.207 -11.094  -1.562  1.00  0.00     0.032 A 
HETATM   18  C   UNL     1      41.320 -10.208  -2.641  1.00  0.00     0.039 A 
HETATM   19  C   UNL     1      42.380  -9.305  -2.720  1.00  0.00     0.068 A 
HETATM   20  C   UNL     1      43.321  -9.277  -1.693  1.00  0.00     0.039 A 
HETATM   21  C   UNL     1      43.202 -10.156  -0.607  1.00  0.00     0.032 A 
BRANCH  19  22
HETATM   22  O   UNL     1      42.378  -8.513  -3.834  1.00  0.00    -0.356 OA
HETATM   23  C   UNL     1      42.431  -9.174  -5.092  1.00  0.00     0.210 C 
ENDBRANCH  19  22
ENDBRANCH  13  16
ENDBRANCH  10  12
BRANCH   1  24
HETATM   24  C   UNL     1      41.279 -12.404   4.925  1.00  0.00    -0.029 A 
HETATM   25  C   UNL     1      41.588 -11.113   5.384  1.00  0.00     0.010 A 
HETATM   26  C   UNL     1      40.880 -10.538   6.441  1.00  0.00     0.007 A 
HETATM   27  C   UNL     1      39.839 -11.236   7.064  1.00  0.00    -0.059 A 
HETATM   28  C   UNL     1      39.524 -12.522   6.612  1.00  0.00     0.007 A 
HETATM   29  C   UNL     1      40.242 -13.106   5.564  1.00  0.00     0.010 A 
BRANCH  27  30
HETATM   30  C   UNL     1      39.092 -10.624   8.222  1.00  0.00     0.034 C 
HETATM   31  C   UNL     1      39.745 -10.930   9.561  1.00  0.00     0.010 C 
ENDBRANCH  27  30
ENDBRANCH   1  24
BRANCH   4  32
HETATM   32  C   UNL     1      42.958 -17.879   4.645  1.00  0.00     0.261 C 
HETATM   33  N   UNL     1      44.066 -18.501   4.100  1.00  0.00    -0.323 N 
HETATM   34  H   UNL     1      44.757 -17.892   3.684  1.00  0.00     0.169 HD
HETATM   35  O   UNL     1      41.978 -18.445   5.117  1.00  0.00    -0.267 OA
BRANCH  33  36
HETATM   36  C   UNL     1      44.298 -19.888   3.979  1.00  0.00     0.035 A 
HETATM   37  C   UNL     1      44.668 -20.714   5.043  1.00  0.00     0.029 A 
HETATM   38  C   UNL     1      44.865 -22.085   4.846  1.00  0.00     0.002 A 
HETATM   39  C   UNL     1      44.704 -22.641   3.580  1.00  0.00     0.000 A 
HETATM   40  C   UNL     1      44.341 -21.827   2.511  1.00  0.00     0.002 A 
HETATM   41  C   UNL     1      44.132 -20.458   2.711  1.00  0.00     0.029 A 
ENDBRANCH  33  36
ENDBRANCH   4  32
TORSDOF 7
ENDMDL
MODEL 8
REMARK VINA RESULT:      -8.7      3.899      9.841
REMARK  7 active torsions:
REMARK  status: ('A' for Active; 'I' for Inactive)
REMARK    1  A    between atoms: C_2  and  C_3 
REMARK    2  A    between atoms: C_6  and  C_7 
REMARK    3  A    between atoms: C_10  and  C_11 
REMARK       I    between atoms: C_11  and  N_12 
REMARK    4  A    between atoms: N_12  and  C_13 
REMARK    5  A    between atoms: C_25  and  C_26 
REMARK       I    between atoms: C_26  and  N_27 
REMARK    6  A    between atoms: N_27  and  C_28 
REMARK    7  A    between atoms: C_31  and  O_32 
ROOT
HETATM    1  C   UNL     1      41.861 -12.502   1.612  1.00  0.00     0.185 C 
HETATM    2  N   UNL     1      42.417 -13.682   2.288  1.00  0.00    -0.239 N 
HETATM    3  C   UNL     1      42.021 -14.973   2.034  1.00  0.00     0.142 A 
HETATM    4  C   UNL     1      42.706 -15.759   2.942  1.00  0.00     0.097 A 
HETATM    5  C   UNL     1      43.574 -14.843   3.596  1.00  0.00     0.160 A 
HETATM    6  N   UNL     1      43.417 -13.581   3.189  1.00  0.00    -0.181 NA
HETATM    7  N   UNL     1      41.150 -15.197   1.012  1.00  0.00    -0.343 N 
HETATM    8  C   UNL     1      40.808 -14.188   0.096  1.00  0.00     0.021 C 
HETATM    9  C   UNL     1      40.071 -14.661  -1.136  1.00  0.00     0.069 C 
HETATM   10  C   UNL     1      41.146 -12.892   0.327  1.00  0.00     0.061 C 
HETATM   11  H   UNL     1      41.083 -16.132   0.607  1.00  0.00     0.167 HD
ENDROOT
BRANCH  10  12
HETATM   12  C   UNL     1      41.051 -11.858  -0.757  1.00  0.00     0.256 C 
HETATM   13  N   UNL     1      42.201 -11.683  -1.499  1.00  0.00    -0.323 N 
HETATM   14  H   UNL     1      43.045 -12.151  -1.197  1.00  0.00     0.169 HD
HETATM   15  O   UNL     1      39.980 -11.294  -0.955  1.00  0.00    -0.267 OA
BRANCH  13  16
HETATM   16  C   UNL     1      42.348 -10.929  -2.685  1.00  0.00     0.035 A 
HETATM   17  C   UNL     1      42.525  -9.547  -2.724  1.00  0.00     0.032 A 
HETATM   18  C   UNL     1      42.621  -8.881  -3.953  1.00  0.00     0.039 A 
HETATM   19  C   UNL     1      42.529  -9.578  -5.157  1.00  0.00     0.068 A 
HETATM   20  C   UNL     1      42.364 -10.961  -5.125  1.00  0.00     0.039 A 
HETATM   21  C   UNL     1      42.280 -11.631  -3.896  1.00  0.00     0.032 A 
BRANCH  19  22
HETATM   22  O   UNL     1      42.619  -8.802  -6.279  1.00  0.00    -0.356 OA
HETATM   23  C   UNL     1      41.786  -7.650  -6.331  1.00  0.00     0.210 C 
ENDBRANCH  19  22
ENDBRANCH  13  16
ENDBRANCH  10  12
BRANCH   1  24
HETATM   24  C   UNL     1      40.990 -11.734   2.612  1.00  0.00    -0.029 A 
HETATM   25  C   UNL     1      41.042 -10.331   2.631  1.00  0.00     0.010 A 
HETATM   26  C   UNL     1      40.290  -9.598   3.551  1.00  0.00     0.007 A 
HETATM   27  C   UNL     1      39.463 -10.247   4.474  1.00  0.00    -0.059 A 
HETATM   28  C   UNL     1      39.405 -11.644   4.461  1.00  0.00     0.007 A 
HETATM   29  C   UNL     1      40.169 -12.382   3.551  1.00  0.00     0.010 A 
BRANCH  27  30
HETATM   30  C   UNL     1      38.672  -9.454   5.483  1.00  0.00     0.034 C 
HETATM   31  C   UNL     1      39.409  -9.296   6.804  1.00  0.00     0.010 C 
ENDBRANCH  27  30
ENDBRANCH   1  24
BRANCH   4  32
HETATM   32  C   UNL     1      42.658 -17.187   3.208  1.00  0.00     0.261 C 
HETATM   33  N   UNL     1      43.715 -17.902   2.676  1.00  0.00    -0.323 N 
HETATM   34  H   UNL     1      44.377 -17.373   2.125  1.00  0.00     0.169 HD
HETATM   35  O   UNL     1      41.712 -17.661   3.829  1.00  0.00    -0.267 OA
BRANCH  33  36
HETATM   36  C   UNL     1      43.925 -19.297   2.738  1.00  0.00     0.035 A 
HETATM   37  C   UNL     1      43.532 -20.191   1.740  1.00  0.00     0.029 A 
HETATM   38  C   UNL     1      43.789 -21.560   1.868  1.00  0.00     0.002 A 
HETATM   39  C   UNL     1      44.432 -22.049   3.001  1.00  0.00     0.000 A 
HETATM   40  C   UNL     1      44.823 -21.169   4.005  1.00  0.00     0.002 A 
HETATM   41  C   UNL     1      44.577 -19.798   3.872  1.00  0.00     0.029 A 
ENDBRANCH  33  36
ENDBRANCH   4  32
TORSDOF 7
ENDMDL
MODEL 9
REMARK VINA RESULT:      -8.5      2.295      9.773
REMARK  7 active torsions:
REMARK  status: ('A' for Active; 'I' for Inactive)
REMARK    1  A    between atoms: C_2  and  C_3 
REMARK    2  A    between atoms: C_6  and  C_7 
REMARK    3  A    between atoms: C_10  and  C_11 
REMARK       I    between atoms: C_11  and  N_12 
REMARK    4  A    between atoms: N_12  and  C_13 
REMARK    5  A    between atoms: C_25  and  C_26 
REMARK       I    between atoms: C_26  and  N_27 
REMARK    6  A    between atoms: N_27  and  C_28 
REMARK    7  A    between atoms: C_31  and  O_32 
ROOT
HETATM    1  C   UNL     1      40.520 -14.377   2.068  1.00  0.00     0.185 C 
HETATM    2  N   UNL     1      40.501 -13.782   3.411  1.00  0.00    -0.239 N 
HETATM    3  C   UNL     1      41.098 -12.585   3.731  1.00  0.00     0.142 A 
HETATM    4  C   UNL     1      40.936 -12.442   5.097  1.00  0.00     0.097 A 
HETATM    5  C   UNL     1      40.120 -13.548   5.460  1.00  0.00     0.160 A 
HETATM    6  N   UNL     1      39.835 -14.355   4.435  1.00  0.00    -0.181 NA
HETATM    7  N   UNL     1      41.636 -11.839   2.728  1.00  0.00    -0.343 N 
HETATM    8  C   UNL     1      41.425 -12.153   1.376  1.00  0.00     0.021 C 
HETATM    9  C   UNL     1      41.835 -11.079   0.395  1.00  0.00     0.069 C 
HETATM   10  C   UNL     1      40.874 -13.341   1.013  1.00  0.00     0.061 C 
HETATM   11  H   UNL     1      41.797 -10.841   2.878  1.00  0.00     0.167 HD
ENDROOT
BRANCH  10  12
HETATM   12  C   UNL     1      40.377 -13.573  -0.385  1.00  0.00     0.256 C 
HETATM   13  N   UNL     1      39.014 -13.438  -0.550  1.00  0.00    -0.323 N 
HETATM   14  H   UNL     1      38.438 -13.320   0.273  1.00  0.00     0.169 HD
HETATM   15  O   UNL     1      41.187 -13.802  -1.278  1.00  0.00    -0.267 OA
BRANCH  13  16
HETATM   16  C   UNL     1      38.298 -13.412  -1.768  1.00  0.00     0.035 A 
HETATM   17  C   UNL     1      37.784 -12.258  -2.356  1.00  0.00     0.032 A 
HETATM   18  C   UNL     1      37.050 -12.337  -3.547  1.00  0.00     0.039 A 
HETATM   19  C   UNL     1      36.808 -13.565  -4.161  1.00  0.00     0.068 A 
HETATM   20  C   UNL     1      37.329 -14.722  -3.585  1.00  0.00     0.039 A 
HETATM   21  C   UNL     1      38.074 -14.643  -2.400  1.00  0.00     0.032 A 
BRANCH  19  22
HETATM   22  O   UNL     1      36.063 -13.498  -5.305  1.00  0.00    -0.356 OA
HETATM   23  C   UNL     1      34.702 -13.111  -5.163  1.00  0.00     0.210 C 
ENDBRANCH  19  22
ENDBRANCH  13  16
ENDBRANCH  10  12
BRANCH   1  24
HETATM   24  C   UNL     1      41.446 -15.598   2.092  1.00  0.00    -0.029 A 
HETATM   25  C   UNL     1      40.974 -16.827   1.601  1.00  0.00     0.010 A 
HETATM   26  C   UNL     1      41.775 -17.969   1.637  1.00  0.00     0.007 A 
HETATM   27  C   UNL     1      43.072 -17.913   2.161  1.00  0.00    -0.059 A 
HETATM   28  C   UNL     1      43.550 -16.694   2.651  1.00  0.00     0.007 A 
HETATM   29  C   UNL     1      42.743 -15.551   2.630  1.00  0.00     0.010 A 
BRANCH  27  30
HETATM   30  C   UNL     1      43.926 -19.155   2.223  1.00  0.00     0.034 C 
HETATM   31  C   UNL     1      44.291 -19.537   3.649  1.00  0.00     0.010 C 
ENDBRANCH  27  30
ENDBRANCH   1  24
BRANCH   4  32
HETATM   32  C   UNL     1      41.406 -11.422   6.020  1.00  0.00     0.261 C 
HETATM   33  N   UNL     1      41.350 -11.789   7.352  1.00  0.00    -0.323 N 
HETATM   34  H   UNL     1      40.949 -12.696   7.546  1.00  0.00     0.169 HD
HETATM   35  O   UNL     1      41.777 -10.335   5.590  1.00  0.00    -0.267 OA
BRANCH  33  36
HETATM   36  C   UNL     1      41.703 -11.006   8.472  1.00  0.00     0.035 A 
HETATM   37  C   UNL     1      42.965 -11.023   9.070  1.00  0.00     0.029 A 
HETATM   38  C   UNL     1      43.244 -10.205  10.171  1.00  0.00     0.002 A 
HETATM   39  C   UNL     1      42.258  -9.371  10.690  1.00  0.00     0.000 A 
HETATM   40  C   UNL     1      40.995  -9.349  10.106  1.00  0.00     0.002 A 
HETATM   41  C   UNL     1      40.720 -10.158   8.998  1.00  0.00     0.029 A 
ENDBRANCH  33  36
ENDBRANCH   4  32
TORSDOF 7
ENDMDL
MODEL 10
REMARK VINA RESULT:      -8.5      3.154      9.372
REMARK  7 active torsions:
REMARK  status: ('A' for Active; 'I' for Inactive)
REMARK    1  A    between atoms: C_2  and  C_3 
REMARK    2  A    between atoms: C_6  and  C_7 
REMARK    3  A    between atoms: C_10  and  C_11 
REMARK       I    between atoms: C_11  and  N_12 
REMARK    4  A    between atoms: N_12  and  C_13 
REMARK    5  A    between atoms: C_25  and  C_26 
REMARK       I    between atoms: C_26  and  N_27 
REMARK    6  A    between atoms: N_27  and  C_28 
REMARK    7  A    between atoms: C_31  and  O_32 
ROOT
HETATM    1  C   UNL     1      41.206 -12.991   3.850  1.00  0.00     0.185 C 
HETATM    2  N   UNL     1      42.007 -14.199   4.094  1.00  0.00    -0.239 N 
HETATM    3  C   UNL     1      41.572 -15.476   3.833  1.00  0.00     0.142 A 
HETATM    4  C   UNL     1      42.573 -16.312   4.294  1.00  0.00     0.097 A 
HETATM    5  C   UNL     1      43.604 -15.418   4.690  1.00  0.00     0.160 A 
HETATM    6  N   UNL     1      43.274 -14.132   4.552  1.00  0.00    -0.181 NA
HETATM    7  N   UNL     1      40.380 -15.640   3.197  1.00  0.00    -0.343 N 
HETATM    8  C   UNL     1      39.688 -14.557   2.629  1.00  0.00     0.021 C 
HETATM    9  C   UNL     1      38.544 -14.933   1.715  1.00  0.00     0.069 C 
HETATM   10  C   UNL     1      40.060 -13.277   2.892  1.00  0.00     0.061 C 
HETATM   11  H   UNL     1      40.183 -16.523   2.722  1.00  0.00     0.167 HD
ENDROOT
BRANCH  10  12
HETATM   12  C   UNL     1      39.530 -12.131   2.079  1.00  0.00     0.256 C 
HETATM   13  N   UNL     1      40.163 -11.932   0.869  1.00  0.00    -0.323 N 
HETATM   14  H   UNL     1      40.996 -12.468   0.666  1.00  0.00     0.169 HD
HETATM   15  O   UNL     1      38.564 -11.499   2.494  1.00  0.00    -0.267 OA
BRANCH  13  16
HETATM   16  C   UNL     1      39.763 -11.065  -0.173  1.00  0.00     0.035 A 
HETATM   17  C   UNL     1      40.181  -9.742  -0.301  1.00  0.00     0.032 A 
HETATM   18  C   UNL     1      39.698  -8.945  -1.347  1.00  0.00     0.039 A 
HETATM   19  C   UNL     1      38.785  -9.450  -2.271  1.00  0.00     0.068 A 
HETATM   20  C   UNL     1      38.372 -10.776  -2.157  1.00  0.00     0.039 A 
HETATM   21  C   UNL     1      38.864 -11.578  -1.117  1.00  0.00     0.032 A 
BRANCH  19  22
HETATM   22  O   UNL     1      38.383  -8.560  -3.227  1.00  0.00    -0.356 OA
HETATM   23  C   UNL     1      37.949  -7.284  -2.774  1.00  0.00     0.210 C 
ENDBRANCH  19  22
ENDBRANCH  13  16
ENDBRANCH  10  12
BRANCH   1  24
HETATM   24  C   UNL     1      40.772 -12.415   5.202  1.00  0.00    -0.029 A 
HETATM   25  C   UNL     1      39.695 -13.005   5.885  1.00  0.00     0.010 A 
HETATM   26  C   UNL     1      39.249 -12.488   7.102  1.00  0.00     0.007 A 
HETATM   27  C   UNL     1      39.869 -11.371   7.672  1.00  0.00    -0.059 A 
HETATM   28  C   UNL     1      40.941 -10.778   6.999  1.00  0.00     0.007 A 
HETATM   29  C   UNL     1      41.381 -11.284   5.772  1.00  0.00     0.010 A 
BRANCH  27  30
HETATM   30  C   UNL     1      39.367 -10.798   8.974  1.00  0.00     0.034 C 
HETATM   31  C   UNL     1      38.759  -9.414   8.805  1.00  0.00     0.010 C 
ENDBRANCH  27  30
ENDBRANCH   1  24
BRANCH   4  32
HETATM   32  C   UNL     1      42.663 -17.761   4.357  1.00  0.00     0.261 C 
HETATM   33  N   UNL     1      43.694 -18.301   3.610  1.00  0.00    -0.323 N 
HETATM   34  H   UNL     1      44.240 -17.646   3.068  1.00  0.00     0.169 HD
HETATM   35  O   UNL     1      41.841 -18.396   5.009  1.00  0.00    -0.267 OA
BRANCH  33  36
HETATM   36  C   UNL     1      44.011 -19.667   3.449  1.00  0.00     0.035 A 
HETATM   37  C   UNL     1      44.570 -20.464   4.451  1.00  0.00     0.029 A 
HETATM   38  C   UNL     1      44.843 -21.816   4.219  1.00  0.00     0.002 A 
HETATM   39  C   UNL     1      44.569 -22.382   2.977  1.00  0.00     0.000 A 
HETATM   40  C   UNL     1      44.018 -21.597   1.969  1.00  0.00     0.002 A 
HETATM   41  C   UNL     1      43.734 -20.248   2.205  1.00  0.00     0.029 A 
ENDBRANCH  33  36
ENDBRANCH   4  32
TORSDOF 7
ENDMDL
