MODEL 1
REMARK VINA RESULT:      -7.9      0.000      0.000
REMARK  6 active torsions:
REMARK  status: ('A' for Active; 'I' for Inactive)
REMARK    1  A    between atoms: C_2  and  N_3 
REMARK       I    between atoms: N_3  and  C_4 
REMARK    2  A    between atoms: C_4  and  C_5 
REMARK    3  A    between atoms: C_6  and  N_7 
REMARK       I    between atoms: N_7  and  C_8 
REMARK    4  A    between atoms: C_8  and  C_9 
REMARK    5  A    between atoms: C_11  and  O_12 
REMARK    6  A    between atoms: O_12  and  C_13 
ROOT
HETATM    1  N   UNL     1      44.004 -18.348   2.978  1.00  0.00    -0.322 N 
HETATM    2  C   UNL     1      42.812 -17.794   2.544  1.00  0.00     0.256 C 
HETATM    3  O   UNL     1      41.820 -18.419   2.185  1.00  0.00    -0.267 OA
HETATM    4  H   UNL     1      44.800 -17.728   3.088  1.00  0.00     0.169 HD
ENDROOT
BRANCH   1   5
HETATM    5  C   UNL     1      44.264 -19.717   3.263  1.00  0.00     0.050 A 
HETATM    6  C   UNL     1      44.500 -20.123   4.595  1.00  0.00     0.058 A 
HETATM    7  C   UNL     1      44.665 -21.480   4.915  1.00  0.00     0.019 A 
HETATM    8  C   UNL     1      44.633 -22.446   3.913  1.00  0.00     0.001 A 
HETATM    9  C   UNL     1      44.427 -22.058   2.594  1.00  0.00     0.002 A 
HETATM   10  C   UNL     1      44.239 -20.707   2.273  1.00  0.00     0.030 A 
BRANCH   6  11
HETATM   11  C   UNL     1      44.591 -19.168   5.728  1.00  0.00     0.253 C 
HETATM   12  N   UNL     1      43.588 -19.269   6.674  1.00  0.00    -0.357 N 
HETATM   13  H   UNL     1      42.754 -19.782   6.404  1.00  0.00     0.162 HD
HETATM   14  O   UNL     1      45.488 -18.335   5.767  1.00  0.00    -0.268 OA
BRANCH  12  15
HETATM   15  C   UNL     1      43.443 -18.263   7.709  1.00  0.00     0.118 C 
HETATM   16  C   UNL     1      42.567 -17.104   7.269  1.00  0.00     0.026 C 
ENDBRANCH  12  15
ENDBRANCH   6  11
ENDBRANCH   1   5
BRANCH   2  17
HETATM   17  C   UNL     1      42.758 -16.304   2.475  1.00  0.00     0.037 A 
HETATM   18  C   UNL     1      43.436 -15.583   3.461  1.00  0.00     0.075 A 
HETATM   19  C   UNL     1      43.433 -14.205   3.382  1.00  0.00     0.165 A 
HETATM   20  N   UNL     1      42.805 -13.509   2.412  1.00  0.00    -0.237 NA
HETATM   21  C   UNL     1      42.167 -14.228   1.464  1.00  0.00     0.120 A 
HETATM   22  C   UNL     1      42.118 -15.612   1.445  1.00  0.00     0.036 A 
BRANCH  19  23
HETATM   23  O   UNL     1      44.139 -13.529   4.358  1.00  0.00    -0.329 OA
BRANCH  23  24
HETATM   24  C   UNL     1      44.140 -14.119   5.674  1.00  0.00     0.130 C 
HETATM   25  C   UNL     1      45.410 -13.903   6.539  1.00  0.00     0.032 C 
HETATM   26  C   UNL     1      44.479 -13.700   7.748  1.00  0.00     0.005 C 
HETATM   27  C   UNL     1      43.381 -13.294   6.749  1.00  0.00     0.032 C 
ENDBRANCH  23  24
ENDBRANCH  19  23
ENDBRANCH   2  17
TORSDOF 6
ENDMDL
MODEL 2
REMARK VINA RESULT:      -7.8      1.744      3.571
REMARK  6 active torsions:
REMARK  status: ('A' for Active; 'I' for Inactive)
REMARK    1  A    between atoms: C_2  and  N_3 
REMARK       I    between atoms: N_3  and  C_4 
REMARK    2  A    between atoms: C_4  and  C_5 
REMARK    3  A    between atoms: C_6  and  N_7 
REMARK       I    between atoms: N_7  and  C_8 
REMARK    4  A    between atoms: C_8  and  C_9 
REMARK    5  A    between atoms: C_11  and  O_12 
REMARK    6  A    between atoms: O_12  and  C_13 
ROOT
HETATM    1  N   UNL     1      43.959 -18.400   3.098  1.00  0.00    -0.322 N 
HETATM    2  C   UNL     1      42.856 -17.664   3.495  1.00  0.00     0.256 C 
HETATM    3  O   UNL     1      41.865 -18.108   4.064  1.00  0.00    -0.267 OA
HETATM    4  H   UNL     1      44.636 -17.947   2.492  1.00  0.00     0.169 HD
ENDROOT
BRANCH   1   5
HETATM    5  C   UNL     1      44.249 -19.756   3.415  1.00  0.00     0.050 A 
HETATM    6  C   UNL     1      44.528 -20.119   4.751  1.00  0.00     0.058 A 
HETATM    7  C   UNL     1      44.724 -21.463   5.106  1.00  0.00     0.019 A 
HETATM    8  C   UNL     1      44.680 -22.458   4.134  1.00  0.00     0.001 A 
HETATM    9  C   UNL     1      44.431 -22.112   2.810  1.00  0.00     0.002 A 
HETATM   10  C   UNL     1      44.213 -20.775   2.456  1.00  0.00     0.030 A 
BRANCH   6  11
HETATM   11  C   UNL     1      44.635 -19.129   5.852  1.00  0.00     0.253 C 
HETATM   12  N   UNL     1      43.589 -19.129   6.756  1.00  0.00    -0.357 N 
HETATM   13  H   UNL     1      42.734 -19.597   6.468  1.00  0.00     0.162 HD
HETATM   14  O   UNL     1      45.582 -18.354   5.902  1.00  0.00    -0.268 OA
BRANCH  12  15
HETATM   15  C   UNL     1      43.468 -18.077   7.748  1.00  0.00     0.118 C 
HETATM   16  C   UNL     1      42.602 -16.927   7.267  1.00  0.00     0.026 C 
ENDBRANCH  12  15
ENDBRANCH   6  11
ENDBRANCH   1   5
BRANCH   2  17
HETATM   17  C   UNL     1      42.872 -16.209   3.159  1.00  0.00     0.037 A 
HETATM   18  C   UNL     1      42.113 -15.786   2.066  1.00  0.00     0.075 A 
HETATM   19  C   UNL     1      42.082 -14.437   1.774  1.00  0.00     0.165 A 
HETATM   20  N   UNL     1      42.751 -13.501   2.477  1.00  0.00    -0.237 NA
HETATM   21  C   UNL     1      43.468 -13.932   3.536  1.00  0.00     0.120 A 
HETATM   22  C   UNL     1      43.557 -15.260   3.921  1.00  0.00     0.036 A 
BRANCH  19  23
HETATM   23  O   UNL     1      41.296 -14.055   0.704  1.00  0.00    -0.329 OA
BRANCH  23  24
HETATM   24  C   UNL     1      39.959 -14.593   0.665  1.00  0.00     0.130 C 
HETATM   25  C   UNL     1      38.990 -14.149   1.792  1.00  0.00     0.032 C 
HETATM   26  C   UNL     1      37.885 -14.058   0.725  1.00  0.00     0.005 C 
HETATM   27  C   UNL     1      39.001 -13.866  -0.317  1.00  0.00     0.032 C 
ENDBRANCH  23  24
ENDBRANCH  19  23
ENDBRANCH   2  17
TORSDOF 6
ENDMDL
MODEL 3
REMARK VINA RESULT:      -7.7      2.446      5.816
REMARK  6 active torsions:
REMARK  status: ('A' for Active; 'I' for Inactive)
REMARK    1  A    between atoms: C_2  and  N_3 
REMARK       I    between atoms: N_3  and  C_4 
REMARK    2  A    between atoms: C_4  and  C_5 
REMARK    3  A    between atoms: C_6  and  N_7 
REMARK       I    between atoms: N_7  and  C_8 
REMARK    4  A    between atoms: C_8  and  C_9 
REMARK    5  A    between atoms: C_11  and  O_12 
REMARK    6  A    between atoms: O_12  and  C_13 
ROOT
HETATM    1  N   UNL     1      42.220 -17.735   1.630  1.00  0.00    -0.322 N 
HETATM    2  C   UNL     1      43.562 -18.076   1.616  1.00  0.00     0.256 C 
HETATM    3  O   UNL     1      44.459 -17.433   1.081  1.00  0.00    -0.267 OA
HETATM    4  H   UNL     1      41.560 -18.431   1.961  1.00  0.00     0.169 HD
ENDROOT
BRANCH   1   5
HETATM    5  C   UNL     1      41.637 -16.512   1.196  1.00  0.00     0.050 A 
HETATM    6  C   UNL     1      41.400 -15.479   2.128  1.00  0.00     0.058 A 
HETATM    7  C   UNL     1      40.914 -14.230   1.710  1.00  0.00     0.019 A 
HETATM    8  C   UNL     1      40.626 -14.003   0.367  1.00  0.00     0.001 A 
HETATM    9  C   UNL     1      40.831 -15.020  -0.558  1.00  0.00     0.002 A 
HETATM   10  C   UNL     1      41.337 -16.261  -0.148  1.00  0.00     0.030 A 
BRANCH   6  11
HETATM   11  C   UNL     1      41.638 -15.634   3.586  1.00  0.00     0.253 C 
HETATM   12  N   UNL     1      40.503 -15.635   4.377  1.00  0.00    -0.357 N 
HETATM   13  H   UNL     1      39.651 -15.278   3.955  1.00  0.00     0.162 HD
HETATM   14  O   UNL     1      42.778 -15.714   4.024  1.00  0.00    -0.268 OA
BRANCH  12  15
HETATM   15  C   UNL     1      40.609 -15.566   5.822  1.00  0.00     0.118 C 
HETATM   16  C   UNL     1      40.711 -16.940   6.459  1.00  0.00     0.026 C 
ENDBRANCH  12  15
ENDBRANCH   6  11
ENDBRANCH   1   5
BRANCH   2  17
HETATM   17  C   UNL     1      43.928 -19.361   2.280  1.00  0.00     0.037 A 
HETATM   18  C   UNL     1      44.218 -19.327   3.646  1.00  0.00     0.075 A 
HETATM   19  C   UNL     1      44.511 -20.516   4.283  1.00  0.00     0.165 A 
HETATM   20  N   UNL     1      44.546 -21.712   3.661  1.00  0.00    -0.237 NA
HETATM   21  C   UNL     1      44.250 -21.722   2.345  1.00  0.00     0.120 A 
HETATM   22  C   UNL     1      43.932 -20.588   1.614  1.00  0.00     0.036 A 
BRANCH  19  23
HETATM   23  O   UNL     1      44.763 -20.444   5.639  1.00  0.00    -0.329 OA
BRANCH  23  24
HETATM   24  C   UNL     1      44.056 -19.422   6.371  1.00  0.00     0.130 C 
HETATM   25  C   UNL     1      43.736 -19.720   7.859  1.00  0.00     0.032 C 
HETATM   26  C   UNL     1      44.090 -18.254   8.167  1.00  0.00     0.005 C 
HETATM   27  C   UNL     1      44.951 -18.266   6.891  1.00  0.00     0.032 C 
ENDBRANCH  23  24
ENDBRANCH  19  23
ENDBRANCH   2  17
TORSDOF 6
ENDMDL
MODEL 4
REMARK VINA RESULT:      -7.7      2.173      3.826
REMARK  6 active torsions:
REMARK  status: ('A' for Active; 'I' for Inactive)
REMARK    1  A    between atoms: C_2  and  N_3 
REMARK       I    between atoms: N_3  and  C_4 
REMARK    2  A    between atoms: C_4  and  C_5 
REMARK    3  A    between atoms: C_6  and  N_7 
REMARK       I    between atoms: N_7  and  C_8 
REMARK    4  A    between atoms: C_8  and  C_9 
REMARK    5  A    between atoms: C_11  and  O_12 
REMARK    6  A    between atoms: O_12  and  C_13 
ROOT
HETATM    1  N   UNL     1      43.909 -17.472   4.554  1.00  0.00    -0.322 N 
HETATM    2  C   UNL     1      42.751 -16.923   5.078  1.00  0.00     0.256 C 
HETATM    3  O   UNL     1      41.660 -17.479   5.143  1.00  0.00    -0.267 OA
HETATM    4  H   UNL     1      44.700 -16.853   4.408  1.00  0.00     0.169 HD
ENDROOT
BRANCH   1   5
HETATM    5  C   UNL     1      44.119 -18.821   4.155  1.00  0.00     0.050 A 
HETATM    6  C   UNL     1      43.834 -19.211   2.829  1.00  0.00     0.058 A 
HETATM    7  C   UNL     1      44.121 -20.511   2.383  1.00  0.00     0.019 A 
HETATM    8  C   UNL     1      44.662 -21.449   3.258  1.00  0.00     0.001 A 
HETATM    9  C   UNL     1      44.925 -21.085   4.575  1.00  0.00     0.002 A 
HETATM   10  C   UNL     1      44.661 -19.782   5.017  1.00  0.00     0.030 A 
BRANCH   6  11
HETATM   11  C   UNL     1      43.221 -18.298   1.831  1.00  0.00     0.253 C 
HETATM   12  N   UNL     1      41.855 -18.116   1.951  1.00  0.00    -0.357 N 
HETATM   13  H   UNL     1      41.351 -18.794   2.516  1.00  0.00     0.162 HD
HETATM   14  O   UNL     1      43.904 -17.790   0.951  1.00  0.00    -0.268 OA
BRANCH  12  15
HETATM   15  C   UNL     1      41.107 -17.424   0.920  1.00  0.00     0.118 C 
HETATM   16  C   UNL     1      40.894 -15.957   1.248  1.00  0.00     0.026 C 
ENDBRANCH  12  15
ENDBRANCH   6  11
ENDBRANCH   1   5
BRANCH   2  17
HETATM   17  C   UNL     1      42.845 -15.516   5.568  1.00  0.00     0.037 A 
HETATM   18  C   UNL     1      43.713 -15.255   6.630  1.00  0.00     0.075 A 
HETATM   19  C   UNL     1      43.845 -13.950   7.062  1.00  0.00     0.165 A 
HETATM   20  N   UNL     1      43.176 -12.910   6.524  1.00  0.00    -0.237 NA
HETATM   21  C   UNL     1      42.353 -13.185   5.491  1.00  0.00     0.120 A 
HETATM   22  C   UNL     1      42.157 -14.456   4.975  1.00  0.00     0.036 A 
BRANCH  19  23
HETATM   23  O   UNL     1      44.735 -13.728   8.094  1.00  0.00    -0.329 OA
BRANCH  23  24
HETATM   24  C   UNL     1      44.674 -12.434   8.728  1.00  0.00     0.130 C 
HETATM   25  C   UNL     1      44.619 -12.413  10.278  1.00  0.00     0.032 C 
HETATM   26  C   UNL     1      45.579 -11.211  10.236  1.00  0.00     0.005 C 
HETATM   27  C   UNL     1      46.045 -11.717   8.859  1.00  0.00     0.032 C 
ENDBRANCH  23  24
ENDBRANCH  19  23
ENDBRANCH   2  17
TORSDOF 6
ENDMDL
MODEL 5
REMARK VINA RESULT:      -7.6      2.573      4.514
REMARK  6 active torsions:
REMARK  status: ('A' for Active; 'I' for Inactive)
REMARK    1  A    between atoms: C_2  and  N_3 
REMARK       I    between atoms: N_3  and  C_4 
REMARK    2  A    between atoms: C_4  and  C_5 
REMARK    3  A    between atoms: C_6  and  N_7 
REMARK       I    between atoms: N_7  and  C_8 
REMARK    4  A    between atoms: C_8  and  C_9 
REMARK    5  A    between atoms: C_11  and  O_12 
REMARK    6  A    between atoms: O_12  and  C_13 
ROOT
HETATM    1  N   UNL     1      42.438 -18.470   2.349  1.00  0.00    -0.322 N 
HETATM    2  C   UNL     1      42.561 -17.538   1.332  1.00  0.00     0.256 C 
HETATM    3  O   UNL     1      43.493 -17.462   0.539  1.00  0.00    -0.267 OA
HETATM    4  H   UNL     1      41.707 -18.324   3.037  1.00  0.00     0.169 HD
ENDROOT
BRANCH   1   5
HETATM    5  C   UNL     1      43.253 -19.615   2.571  1.00  0.00     0.050 A 
HETATM    6  C   UNL     1      44.076 -19.678   3.716  1.00  0.00     0.058 A 
HETATM    7  C   UNL     1      44.817 -20.834   4.007  1.00  0.00     0.019 A 
HETATM    8  C   UNL     1      44.776 -21.928   3.148  1.00  0.00     0.001 A 
HETATM    9  C   UNL     1      43.989 -21.871   2.003  1.00  0.00     0.002 A 
HETATM   10  C   UNL     1      43.230 -20.727   1.721  1.00  0.00     0.030 A 
BRANCH   6  11
HETATM   11  C   UNL     1      44.219 -18.551   4.672  1.00  0.00     0.253 C 
HETATM   12  N   UNL     1      44.538 -18.908   5.969  1.00  0.00    -0.357 N 
HETATM   13  H   UNL     1      44.394 -19.881   6.225  1.00  0.00     0.162 HD
HETATM   14  O   UNL     1      44.022 -17.399   4.308  1.00  0.00    -0.268 OA
BRANCH  12  15
HETATM   15  C   UNL     1      44.497 -17.928   7.038  1.00  0.00     0.118 C 
HETATM   16  C   UNL     1      43.110 -17.788   7.640  1.00  0.00     0.026 C 
ENDBRANCH  12  15
ENDBRANCH   6  11
ENDBRANCH   1   5
BRANCH   2  17
HETATM   17  C   UNL     1      41.476 -16.519   1.231  1.00  0.00     0.037 A 
HETATM   18  C   UNL     1      41.412 -15.752   0.066  1.00  0.00     0.075 A 
HETATM   19  C   UNL     1      40.384 -14.839  -0.060  1.00  0.00     0.165 A 
HETATM   20  N   UNL     1      39.440 -14.634   0.881  1.00  0.00    -0.237 NA
HETATM   21  C   UNL     1      39.515 -15.397   1.992  1.00  0.00     0.120 A 
HETATM   22  C   UNL     1      40.498 -16.348   2.213  1.00  0.00     0.036 A 
BRANCH  19  23
HETATM   23  O   UNL     1      40.338 -14.120  -1.239  1.00  0.00    -0.329 OA
BRANCH  23  24
HETATM   24  C   UNL     1      41.603 -13.859  -1.882  1.00  0.00     0.130 C 
HETATM   25  C   UNL     1      41.553 -13.352  -3.347  1.00  0.00     0.032 C 
HETATM   26  C   UNL     1      42.701 -12.390  -2.990  1.00  0.00     0.005 C 
HETATM   27  C   UNL     1      42.236 -12.487  -1.526  1.00  0.00     0.032 C 
ENDBRANCH  23  24
ENDBRANCH  19  23
ENDBRANCH   2  17
TORSDOF 6
ENDMDL
MODEL 6
REMARK VINA RESULT:      -7.3      2.295      4.042
REMARK  6 active torsions:
REMARK  status: ('A' for Active; 'I' for Inactive)
REMARK    1  A    between atoms: C_2  and  N_3 
REMARK       I    between atoms: N_3  and  C_4 
REMARK    2  A    between atoms: C_4  and  C_5 
REMARK    3  A    between atoms: C_6  and  N_7 
REMARK       I    between atoms: N_7  and  C_8 
REMARK    4  A    between atoms: C_8  and  C_9 
REMARK    5  A    between atoms: C_11  and  O_12 
REMARK    6  A    between atoms: O_12  and  C_13 
ROOT
HETATM    1  N   UNL     1      44.176 -18.030   4.334  1.00  0.00    -0.322 N 
HETATM    2  C   UNL     1      43.123 -17.393   4.969  1.00  0.00     0.256 C 
HETATM    3  O   UNL     1      41.966 -17.794   5.016  1.00  0.00    -0.267 OA
HETATM    4  H   UNL     1      45.043 -17.516   4.226  1.00  0.00     0.169 HD
ENDROOT
BRANCH   1   5
HETATM    5  C   UNL     1      44.178 -19.337   3.772  1.00  0.00     0.050 A 
HETATM    6  C   UNL     1      43.724 -19.531   2.449  1.00  0.00     0.058 A 
HETATM    7  C   UNL     1      43.804 -20.793   1.838  1.00  0.00     0.019 A 
HETATM    8  C   UNL     1      44.303 -21.884   2.545  1.00  0.00     0.001 A 
HETATM    9  C   UNL     1      44.730 -21.712   3.857  1.00  0.00     0.002 A 
HETATM   10  C   UNL     1      44.673 -20.450   4.462  1.00  0.00     0.030 A 
BRANCH   6  11
HETATM   11  C   UNL     1      43.139 -18.442   1.626  1.00  0.00     0.253 C 
HETATM   12  N   UNL     1      41.807 -18.162   1.870  1.00  0.00    -0.357 N 
HETATM   13  H   UNL     1      41.277 -18.864   2.378  1.00  0.00     0.162 HD
HETATM   14  O   UNL     1      43.812 -17.879   0.772  1.00  0.00    -0.268 OA
BRANCH  12  15
HETATM   15  C   UNL     1      41.065 -17.274   0.996  1.00  0.00     0.118 C 
HETATM   16  C   UNL     1      40.333 -16.187   1.762  1.00  0.00     0.026 C 
ENDBRANCH  12  15
ENDBRANCH   6  11
ENDBRANCH   1   5
BRANCH   2  17
HETATM   17  C   UNL     1      43.433 -16.083   5.614  1.00  0.00     0.037 A 
HETATM   18  C   UNL     1      42.765 -14.952   5.141  1.00  0.00     0.075 A 
HETATM   19  C   UNL     1      43.007 -13.742   5.761  1.00  0.00     0.165 A 
HETATM   20  N   UNL     1      43.860 -13.584   6.793  1.00  0.00    -0.237 NA
HETATM   21  C   UNL     1      44.484 -14.694   7.241  1.00  0.00     0.120 A 
HETATM   22  C   UNL     1      44.305 -15.955   6.698  1.00  0.00     0.036 A 
BRANCH  19  23
HETATM   23  O   UNL     1      42.306 -12.652   5.283  1.00  0.00    -0.329 OA
BRANCH  23  24
HETATM   24  C   UNL     1      41.220 -12.176   6.106  1.00  0.00     0.130 C 
HETATM   25  C   UNL     1      41.429 -10.817   6.825  1.00  0.00     0.032 C 
HETATM   26  C   UNL     1      39.965 -10.483   6.489  1.00  0.00     0.005 C 
HETATM   27  C   UNL     1      40.076 -11.480   5.322  1.00  0.00     0.032 C 
ENDBRANCH  23  24
ENDBRANCH  19  23
ENDBRANCH   2  17
TORSDOF 6
ENDMDL
MODEL 7
REMARK VINA RESULT:      -7.2      3.292      8.002
REMARK  6 active torsions:
REMARK  status: ('A' for Active; 'I' for Inactive)
REMARK    1  A    between atoms: C_2  and  N_3 
REMARK       I    between atoms: N_3  and  C_4 
REMARK    2  A    between atoms: C_4  and  C_5 
REMARK    3  A    between atoms: C_6  and  N_7 
REMARK       I    between atoms: N_7  and  C_8 
REMARK    4  A    between atoms: C_8  and  C_9 
REMARK    5  A    between atoms: C_11  and  O_12 
REMARK    6  A    between atoms: O_12  and  C_13 
ROOT
HETATM    1  N   UNL     1      43.904 -12.618   7.483  1.00  0.00    -0.322 N 
HETATM    2  C   UNL     1      44.095 -13.962   7.209  1.00  0.00     0.256 C 
HETATM    3  O   UNL     1      44.641 -14.773   7.949  1.00  0.00    -0.267 OA
HETATM    4  H   UNL     1      43.590 -12.022   6.724  1.00  0.00     0.169 HD
ENDROOT
BRANCH   1   5
HETATM    5  C   UNL     1      44.134 -11.949   8.717  1.00  0.00     0.050 A 
HETATM    6  C   UNL     1      43.188 -11.016   9.195  1.00  0.00     0.058 A 
HETATM    7  C   UNL     1      43.344 -10.413  10.453  1.00  0.00     0.019 A 
HETATM    8  C   UNL     1      44.458 -10.703  11.236  1.00  0.00     0.001 A 
HETATM    9  C   UNL     1      45.410 -11.601  10.767  1.00  0.00     0.002 A 
HETATM   10  C   UNL     1      45.246 -12.222   9.522  1.00  0.00     0.030 A 
BRANCH   6  11
HETATM   11  C   UNL     1      41.989 -10.611   8.419  1.00  0.00     0.253 C 
HETATM   12  N   UNL     1      40.793 -11.160   8.843  1.00  0.00    -0.357 N 
HETATM   13  H   UNL     1      40.851 -11.970   9.453  1.00  0.00     0.162 HD
HETATM   14  O   UNL     1      42.097  -9.868   7.451  1.00  0.00    -0.268 OA
BRANCH  12  15
HETATM   15  C   UNL     1      39.589 -11.014   8.047  1.00  0.00     0.118 C 
HETATM   16  C   UNL     1      39.473 -12.083   6.974  1.00  0.00     0.026 C 
ENDBRANCH  12  15
ENDBRANCH   6  11
ENDBRANCH   1   5
BRANCH   2  17
HETATM   17  C   UNL     1      43.623 -14.442   5.877  1.00  0.00     0.037 A 
HETATM   18  C   UNL     1      43.498 -15.820   5.690  1.00  0.00     0.075 A 
HETATM   19  C   UNL     1      43.018 -16.275   4.479  1.00  0.00     0.165 A 
HETATM   20  N   UNL     1      42.669 -15.467   3.457  1.00  0.00    -0.237 NA
HETATM   21  C   UNL     1      42.786 -14.139   3.666  1.00  0.00     0.120 A 
HETATM   22  C   UNL     1      43.247 -13.578   4.846  1.00  0.00     0.036 A 
BRANCH  19  23
HETATM   23  O   UNL     1      42.881 -17.643   4.343  1.00  0.00    -0.329 OA
BRANCH  23  24
HETATM   24  C   UNL     1      43.920 -18.322   3.608  1.00  0.00     0.130 C 
HETATM   25  C   UNL     1      44.292 -19.753   4.079  1.00  0.00     0.032 C 
HETATM   26  C   UNL     1      44.400 -20.149   2.596  1.00  0.00     0.005 C 
HETATM   27  C   UNL     1      43.446 -18.982   2.285  1.00  0.00     0.032 C 
ENDBRANCH  23  24
ENDBRANCH  19  23
ENDBRANCH   2  17
TORSDOF 6
ENDMDL
MODEL 8
REMARK VINA RESULT:      -7.1      2.425      2.812
REMARK  6 active torsions:
REMARK  status: ('A' for Active; 'I' for Inactive)
REMARK    1  A    between atoms: C_2  and  N_3 
REMARK       I    between atoms: N_3  and  C_4 
REMARK    2  A    between atoms: C_4  and  C_5 
REMARK    3  A    between atoms: C_6  and  N_7 
REMARK       I    between atoms: N_7  and  C_8 
REMARK    4  A    between atoms: C_8  and  C_9 
REMARK    5  A    between atoms: C_11  and  O_12 
REMARK    6  A    between atoms: O_12  and  C_13 
ROOT
HETATM    1  N   UNL     1      42.615 -18.582   2.293  1.00  0.00    -0.322 N 
HETATM    2  C   UNL     1      42.944 -17.548   1.433  1.00  0.00     0.256 C 
HETATM    3  O   UNL     1      44.032 -17.387   0.890  1.00  0.00    -0.267 OA
HETATM    4  H   UNL     1      41.740 -18.511   2.802  1.00  0.00     0.169 HD
ENDROOT
BRANCH   1   5
HETATM    5  C   UNL     1      43.386 -19.741   2.582  1.00  0.00     0.050 A 
HETATM    6  C   UNL     1      43.985 -19.886   3.852  1.00  0.00     0.058 A 
HETATM    7  C   UNL     1      44.672 -21.061   4.195  1.00  0.00     0.019 A 
HETATM    8  C   UNL     1      44.802 -22.092   3.269  1.00  0.00     0.001 A 
HETATM    9  C   UNL     1      44.239 -21.953   2.005  1.00  0.00     0.002 A 
HETATM   10  C   UNL     1      43.534 -20.791   1.667  1.00  0.00     0.030 A 
BRANCH   6  11
HETATM   11  C   UNL     1      43.936 -18.829   4.894  1.00  0.00     0.253 C 
HETATM   12  N   UNL     1      45.057 -18.735   5.699  1.00  0.00    -0.357 N 
HETATM   13  H   UNL     1      45.691 -19.529   5.696  1.00  0.00     0.162 HD
HETATM   14  O   UNL     1      42.938 -18.133   5.027  1.00  0.00    -0.268 OA
BRANCH  12  15
HETATM   15  C   UNL     1      45.051 -17.894   6.880  1.00  0.00     0.118 C 
HETATM   16  C   UNL     1      44.237 -18.494   8.012  1.00  0.00     0.026 C 
ENDBRANCH  12  15
ENDBRANCH   6  11
ENDBRANCH   1   5
BRANCH   2  17
HETATM   17  C   UNL     1      41.884 -16.527   1.184  1.00  0.00     0.037 A 
HETATM   18  C   UNL     1      41.189 -16.030   2.289  1.00  0.00     0.075 A 
HETATM   19  C   UNL     1      40.239 -15.051   2.077  1.00  0.00     0.165 A 
HETATM   20  N   UNL     1      39.932 -14.551   0.863  1.00  0.00    -0.237 NA
HETATM   21  C   UNL     1      40.626 -15.038  -0.187  1.00  0.00     0.120 A 
HETATM   22  C   UNL     1      41.606 -16.012  -0.083  1.00  0.00     0.036 A 
BRANCH  19  23
HETATM   23  O   UNL     1      39.595 -14.564   3.198  1.00  0.00    -0.329 OA
BRANCH  23  24
HETATM   24  C   UNL     1      39.881 -13.198   3.561  1.00  0.00     0.130 C 
HETATM   25  C   UNL     1      39.635 -12.798   5.039  1.00  0.00     0.032 C 
HETATM   26  C   UNL     1      40.933 -11.975   4.971  1.00  0.00     0.005 C 
HETATM   27  C   UNL     1      41.382 -12.904   3.828  1.00  0.00     0.032 C 
ENDBRANCH  23  24
ENDBRANCH  19  23
ENDBRANCH   2  17
TORSDOF 6
ENDMDL
MODEL 9
REMARK VINA RESULT:      -7.1      3.258      6.361
REMARK  6 active torsions:
REMARK  status: ('A' for Active; 'I' for Inactive)
REMARK    1  A    between atoms: C_2  and  N_3 
REMARK       I    between atoms: N_3  and  C_4 
REMARK    2  A    between atoms: C_4  and  C_5 
REMARK    3  A    between atoms: C_6  and  N_7 
REMARK       I    between atoms: N_7  and  C_8 
REMARK    4  A    between atoms: C_8  and  C_9 
REMARK    5  A    between atoms: C_11  and  O_12 
REMARK    6  A    between atoms: O_12  and  C_13 
ROOT
HETATM    1  N   UNL     1      42.392 -16.033   2.920  1.00  0.00    -0.322 N 
HETATM    2  C   UNL     1      41.318 -16.090   2.047  1.00  0.00     0.256 C 
HETATM    3  O   UNL     1      40.312 -16.775   2.193  1.00  0.00    -0.267 OA
HETATM    4  H   UNL     1      43.231 -15.558   2.605  1.00  0.00     0.169 HD
ENDROOT
BRANCH   1   5
HETATM    5  C   UNL     1      42.475 -16.601   4.221  1.00  0.00     0.050 A 
HETATM    6  C   UNL     1      43.214 -17.787   4.422  1.00  0.00     0.058 A 
HETATM    7  C   UNL     1      43.391 -18.317   5.710  1.00  0.00     0.019 A 
HETATM    8  C   UNL     1      42.807 -17.694   6.810  1.00  0.00     0.001 A 
HETATM    9  C   UNL     1      42.056 -16.539   6.624  1.00  0.00     0.002 A 
HETATM   10  C   UNL     1      41.896 -15.995   5.343  1.00  0.00     0.030 A 
BRANCH   6  11
HETATM   11  C   UNL     1      43.842 -18.547   3.311  1.00  0.00     0.253 C 
HETATM   12  N   UNL     1      43.958 -19.910   3.513  1.00  0.00    -0.357 N 
HETATM   13  H   UNL     1      43.857 -20.242   4.468  1.00  0.00     0.162 HD
HETATM   14  O   UNL     1      44.252 -17.965   2.314  1.00  0.00    -0.268 OA
BRANCH  12  15
HETATM   15  C   UNL     1      44.738 -20.729   2.605  1.00  0.00     0.118 C 
HETATM   16  C   UNL     1      43.875 -21.693   1.811  1.00  0.00     0.026 C 
ENDBRANCH  12  15
ENDBRANCH   6  11
ENDBRANCH   1   5
BRANCH   2  17
HETATM   17  C   UNL     1      41.428 -15.271   0.805  1.00  0.00     0.037 A 
HETATM   18  C   UNL     1      41.128 -15.889  -0.411  1.00  0.00     0.075 A 
HETATM   19  C   UNL     1      41.180 -15.129  -1.562  1.00  0.00     0.165 A 
HETATM   20  N   UNL     1      41.514 -13.823  -1.586  1.00  0.00    -0.237 NA
HETATM   21  C   UNL     1      41.788 -13.244  -0.398  1.00  0.00     0.120 A 
HETATM   22  C   UNL     1      41.755 -13.913   0.815  1.00  0.00     0.036 A 
BRANCH  19  23
HETATM   23  O   UNL     1      40.847 -15.770  -2.740  1.00  0.00    -0.329 OA
BRANCH  23  24
HETATM   24  C   UNL     1      39.818 -15.151  -3.539  1.00  0.00     0.130 C 
HETATM   25  C   UNL     1      38.883 -16.099  -4.336  1.00  0.00     0.032 C 
HETATM   26  C   UNL     1      37.716 -15.171  -3.956  1.00  0.00     0.005 C 
HETATM   27  C   UNL     1      38.554 -14.725  -2.744  1.00  0.00     0.032 C 
ENDBRANCH  23  24
ENDBRANCH  19  23
ENDBRANCH   2  17
TORSDOF 6
ENDMDL
MODEL 10
REMARK VINA RESULT:      -7.0      2.531      7.459
REMARK  6 active torsions:
REMARK  status: ('A' for Active; 'I' for Inactive)
REMARK    1  A    between atoms: C_2  and  N_3 
REMARK       I    between atoms: N_3  and  C_4 
REMARK    2  A    between atoms: C_4  and  C_5 
REMARK    3  A    between atoms: C_6  and  N_7 
REMARK       I    between atoms: N_7  and  C_8 
REMARK    4  A    between atoms: C_8  and  C_9 
REMARK    5  A    between atoms: C_11  and  O_12 
REMARK    6  A    between atoms: O_12  and  C_13 
ROOT
HETATM    1  N   UNL     1      41.714 -15.068   5.593  1.00  0.00    -0.322 N 
HETATM    2  C   UNL     1      41.348 -16.296   6.119  1.00  0.00     0.256 C 
HETATM    3  O   UNL     1      40.212 -16.629   6.437  1.00  0.00    -0.267 OA
HETATM    4  H   UNL     1      42.705 -14.860   5.528  1.00  0.00     0.169 HD
ENDROOT
BRANCH   1   5
HETATM    5  C   UNL     1      40.850 -14.026   5.157  1.00  0.00     0.050 A 
HETATM    6  C   UNL     1      40.656 -13.810   3.775  1.00  0.00     0.058 A 
HETATM    7  C   UNL     1      39.737 -12.851   3.319  1.00  0.00     0.019 A 
HETATM    8  C   UNL     1      39.026 -12.073   4.228  1.00  0.00     0.001 A 
HETATM    9  C   UNL     1      39.225 -12.259   5.591  1.00  0.00     0.002 A 
HETATM   10  C   UNL     1      40.124 -13.230   6.051  1.00  0.00     0.030 A 
BRANCH   6  11
HETATM   11  C   UNL     1      41.394 -14.559   2.727  1.00  0.00     0.253 C 
HETATM   12  N   UNL     1      40.623 -15.038   1.684  1.00  0.00    -0.357 N 
HETATM   13  H   UNL     1      39.619 -15.073   1.834  1.00  0.00     0.162 HD
HETATM   14  O   UNL     1      42.598 -14.754   2.835  1.00  0.00    -0.268 OA
BRANCH  12  15
HETATM   15  C   UNL     1      41.183 -15.960   0.713  1.00  0.00     0.118 C 
HETATM   16  C   UNL     1      41.157 -15.399  -0.697  1.00  0.00     0.026 C 
ENDBRANCH  12  15
ENDBRANCH   6  11
ENDBRANCH   1   5
BRANCH   2  17
HETATM   17  C   UNL     1      42.450 -17.276   6.348  1.00  0.00     0.037 A 
HETATM   18  C   UNL     1      43.044 -17.859   5.226  1.00  0.00     0.075 A 
HETATM   19  C   UNL     1      44.096 -18.731   5.423  1.00  0.00     0.165 A 
HETATM   20  N   UNL     1      44.581 -19.063   6.636  1.00  0.00    -0.237 NA
HETATM   21  C   UNL     1      43.999 -18.477   7.704  1.00  0.00     0.120 A 
HETATM   22  C   UNL     1      42.946 -17.581   7.617  1.00  0.00     0.036 A 
BRANCH  19  23
HETATM   23  O   UNL     1      44.676 -19.263   4.288  1.00  0.00    -0.329 OA
BRANCH  23  24
HETATM   24  C   UNL     1      43.865 -20.176   3.520  1.00  0.00     0.130 C 
HETATM   25  C   UNL     1      43.685 -19.856   2.013  1.00  0.00     0.032 C 
HETATM   26  C   UNL     1      43.827 -21.363   1.737  1.00  0.00     0.005 C 
HETATM   27  C   UNL     1      44.602 -21.464   3.063  1.00  0.00     0.032 C 
ENDBRANCH  23  24
ENDBRANCH  19  23
ENDBRANCH   2  17
TORSDOF 6
ENDMDL
