MODEL 1
REMARK VINA RESULT:      -8.7      0.000      0.000
REMARK  8 active torsions:
REMARK  status: ('A' for Active; 'I' for Inactive)
REMARK    1  A    between atoms: C_2  and  C_3 
REMARK    2  A    between atoms: C_3  and  O_4 
REMARK    3  A    between atoms: O_4  and  C_5 
REMARK    4  A    between atoms: C_8  and  C_9 
REMARK    5  A    between atoms: N_10  and  C_11 
REMARK    6  A    between atoms: C_11  and  C_12 
REMARK    7  A    between atoms: C_25  and  C_26 
REMARK    8  A    between atoms: C_27  and  O_28 
ROOT
HETATM    1  C   UNL     1      42.203 -14.690   3.134  1.00  0.00     0.159 A 
HETATM    2  N   UNL     1      41.199 -13.858   2.418  1.00  0.00    -0.329 N 
HETATM    3  C   UNL     1      40.037 -13.610   3.162  1.00  0.00     0.273 A 
HETATM    4  O   UNL     1      39.087 -12.905   2.874  1.00  0.00    -0.266 OA
HETATM    5  C   UNL     1      40.232 -14.361   4.345  1.00  0.00     0.129 A 
HETATM    6  C   UNL     1      41.438 -14.994   4.365  1.00  0.00     0.034 A 
HETATM    7  N   UNL     1      39.577 -14.692   5.469  1.00  0.00    -0.272 N 
HETATM    8  H   UNL     1      38.653 -14.410   5.782  1.00  0.00     0.189 HD
HETATM    9  N   UNL     1      40.299 -15.559   6.229  1.00  0.00    -0.173 NA
HETATM   10  C   UNL     1      41.444 -15.764   5.537  1.00  0.00     0.101 A 
ENDROOT
BRANCH   1  11
HETATM   11  C   UNL     1      42.519 -16.018   2.489  1.00  0.00    -0.030 A 
HETATM   12  C   UNL     1      43.867 -16.395   2.340  1.00  0.00     0.012 A 
HETATM   13  C   UNL     1      44.206 -17.678   1.914  1.00  0.00     0.037 A 
HETATM   14  C   UNL     1      43.203 -18.602   1.645  1.00  0.00     0.069 A 
HETATM   15  C   UNL     1      41.862 -18.228   1.701  1.00  0.00     0.037 A 
HETATM   16  C   UNL     1      41.522 -16.940   2.122  1.00  0.00     0.012 A 
BRANCH  14  17
HETATM   17  O   UNL     1      43.588 -19.878   1.334  1.00  0.00    -0.348 OA
BRANCH  17  18
HETATM   18  C   UNL     1      44.462 -20.409   2.340  1.00  0.00     0.202 C 
BRANCH  18  19
HETATM   19  C   UNL     1      44.215 -21.886   2.426  1.00  0.00    -0.011 C 
HETATM   20  C   UNL     1      44.582 -22.666   3.450  1.00  0.00     0.009 C 
ENDBRANCH  18  19
ENDBRANCH  17  18
ENDBRANCH  14  17
ENDBRANCH   1  11
BRANCH   2  21
HETATM   21  C   UNL     1      41.539 -13.108   1.228  1.00  0.00     0.167 C 
BRANCH  21  22
HETATM   22  C   UNL     1      40.916 -13.700  -0.005  1.00  0.00    -0.023 A 
HETATM   23  C   UNL     1      39.699 -13.235  -0.493  1.00  0.00     0.125 A 
HETATM   24  N   UNL     1      39.068 -13.748  -1.573  1.00  0.00    -0.273 NA
HETATM   25  C   UNL     1      39.678 -14.773  -2.206  1.00  0.00     0.116 A 
HETATM   26  C   UNL     1      40.891 -15.308  -1.806  1.00  0.00     0.020 A 
HETATM   27  C   UNL     1      41.515 -14.762  -0.689  1.00  0.00     0.012 A 
ENDBRANCH  21  22
ENDBRANCH   2  21
BRANCH  10  28
HETATM   28  C   UNL     1      42.457 -16.717   5.971  1.00  0.00     0.028 A 
HETATM   29  C   UNL     1      43.540 -16.341   6.776  1.00  0.00     0.078 A 
HETATM   30  C   UNL     1      44.569 -17.239   7.055  1.00  0.00     0.037 A 
HETATM   31  C   UNL     1      44.511 -18.540   6.555  1.00  0.00     0.003 A 
HETATM   32  C   UNL     1      43.423 -18.941   5.780  1.00  0.00     0.001 A 
HETATM   33  C   UNL     1      42.400 -18.033   5.489  1.00  0.00     0.017 A 
BRANCH  29  34
HETATM   34  O   UNL     1      43.653 -15.095   7.334  1.00  0.00    -0.360 OA
HETATM   35  H   UNL     1      43.983 -15.217   8.243  1.00  0.00     0.217 HD
ENDBRANCH  29  34
ENDBRANCH  10  28
TORSDOF 8
ENDMDL
MODEL 2
REMARK VINA RESULT:      -8.5      2.369      5.882
REMARK  8 active torsions:
REMARK  status: ('A' for Active; 'I' for Inactive)
REMARK    1  A    between atoms: C_2  and  C_3 
REMARK    2  A    between atoms: C_3  and  O_4 
REMARK    3  A    between atoms: O_4  and  C_5 
REMARK    4  A    between atoms: C_8  and  C_9 
REMARK    5  A    between atoms: N_10  and  C_11 
REMARK    6  A    between atoms: C_11  and  C_12 
REMARK    7  A    between atoms: C_25  and  C_26 
REMARK    8  A    between atoms: C_27  and  O_28 
ROOT
HETATM    1  C   UNL     1      41.387 -16.707   3.400  1.00  0.00     0.159 A 
HETATM    2  N   UNL     1      40.793 -15.547   2.682  1.00  0.00    -0.329 N 
HETATM    3  C   UNL     1      41.218 -15.428   1.351  1.00  0.00     0.273 A 
HETATM    4  O   UNL     1      40.849 -14.636   0.504  1.00  0.00    -0.266 OA
HETATM    5  C   UNL     1      42.173 -16.464   1.213  1.00  0.00     0.129 A 
HETATM    6  C   UNL     1      42.305 -17.203   2.349  1.00  0.00     0.034 A 
HETATM    7  N   UNL     1      43.043 -16.942   0.310  1.00  0.00    -0.272 N 
HETATM    8  H   UNL     1      43.220 -16.631  -0.640  1.00  0.00     0.189 HD
HETATM    9  N   UNL     1      43.780 -17.963   0.822  1.00  0.00    -0.173 NA
HETATM   10  C   UNL     1      43.340 -18.114   2.093  1.00  0.00     0.101 A 
ENDROOT
BRANCH   1  11
HETATM   11  C   UNL     1      42.248 -16.358   4.591  1.00  0.00    -0.030 A 
HETATM   12  C   UNL     1      43.189 -15.321   4.464  1.00  0.00     0.012 A 
HETATM   13  C   UNL     1      43.882 -14.846   5.576  1.00  0.00     0.037 A 
HETATM   14  C   UNL     1      43.630 -15.393   6.830  1.00  0.00     0.069 A 
HETATM   15  C   UNL     1      42.766 -16.477   6.968  1.00  0.00     0.037 A 
HETATM   16  C   UNL     1      42.078 -16.958   5.852  1.00  0.00     0.012 A 
BRANCH  14  17
HETATM   17  O   UNL     1      44.255 -14.820   7.905  1.00  0.00    -0.348 OA
BRANCH  17  18
HETATM   18  C   UNL     1      44.965 -13.636   7.514  1.00  0.00     0.202 C 
BRANCH  18  19
HETATM   19  C   UNL     1      44.783 -12.617   8.599  1.00  0.00    -0.011 C 
HETATM   20  C   UNL     1      45.735 -11.780   9.030  1.00  0.00     0.009 C 
ENDBRANCH  18  19
ENDBRANCH  17  18
ENDBRANCH  14  17
ENDBRANCH   1  11
BRANCH   2  21
HETATM   21  C   UNL     1      39.647 -14.833   3.201  1.00  0.00     0.167 C 
BRANCH  21  22
HETATM   22  C   UNL     1      40.051 -13.706   4.111  1.00  0.00    -0.023 A 
HETATM   23  C   UNL     1      40.725 -12.591   3.624  1.00  0.00     0.125 A 
HETATM   24  N   UNL     1      41.148 -11.564   4.393  1.00  0.00    -0.273 NA
HETATM   25  C   UNL     1      40.886 -11.644   5.715  1.00  0.00     0.116 A 
HETATM   26  C   UNL     1      40.220 -12.706   6.303  1.00  0.00     0.020 A 
HETATM   27  C   UNL     1      39.799 -13.751   5.486  1.00  0.00     0.012 A 
ENDBRANCH  21  22
ENDBRANCH   2  21
BRANCH  10  28
HETATM   28  C   UNL     1      43.950 -19.054   3.024  1.00  0.00     0.028 A 
HETATM   29  C   UNL     1      44.026 -20.427   2.756  1.00  0.00     0.078 A 
HETATM   30  C   UNL     1      44.482 -21.319   3.725  1.00  0.00     0.037 A 
HETATM   31  C   UNL     1      44.898 -20.843   4.968  1.00  0.00     0.003 A 
HETATM   32  C   UNL     1      44.862 -19.475   5.239  1.00  0.00     0.001 A 
HETATM   33  C   UNL     1      44.389 -18.585   4.270  1.00  0.00     0.017 A 
BRANCH  29  34
HETATM   34  O   UNL     1      43.670 -20.968   1.549  1.00  0.00    -0.360 OA
HETATM   35  H   UNL     1      44.045 -20.394   0.857  1.00  0.00     0.217 HD
ENDBRANCH  29  34
ENDBRANCH  10  28
TORSDOF 8
ENDMDL
MODEL 3
REMARK VINA RESULT:      -8.1      1.676      2.075
REMARK  8 active torsions:
REMARK  status: ('A' for Active; 'I' for Inactive)
REMARK    1  A    between atoms: C_2  and  C_3 
REMARK    2  A    between atoms: C_3  and  O_4 
REMARK    3  A    between atoms: O_4  and  C_5 
REMARK    4  A    between atoms: C_8  and  C_9 
REMARK    5  A    between atoms: N_10  and  C_11 
REMARK    6  A    between atoms: C_11  and  C_12 
REMARK    7  A    between atoms: C_25  and  C_26 
REMARK    8  A    between atoms: C_27  and  O_28 
ROOT
HETATM    1  C   UNL     1      42.130 -15.256   1.799  1.00  0.00     0.159 A 
HETATM    2  N   UNL     1      41.103 -14.862   0.799  1.00  0.00    -0.329 N 
HETATM    3  C   UNL     1      39.904 -14.410   1.368  1.00  0.00     0.273 A 
HETATM    4  O   UNL     1      38.923 -13.952   0.809  1.00  0.00    -0.266 OA
HETATM    5  C   UNL     1      40.104 -14.593   2.756  1.00  0.00     0.129 A 
HETATM    6  C   UNL     1      41.344 -15.078   3.042  1.00  0.00     0.034 A 
HETATM    7  N   UNL     1      39.434 -14.475   3.913  1.00  0.00    -0.272 N 
HETATM    8  H   UNL     1      38.485 -14.152   4.077  1.00  0.00     0.189 HD
HETATM    9  N   UNL     1      40.181 -14.901   4.967  1.00  0.00    -0.173 NA
HETATM   10  C   UNL     1      41.359 -15.295   4.427  1.00  0.00     0.101 A 
ENDROOT
BRANCH   1  11
HETATM   11  C   UNL     1      42.546 -16.707   1.762  1.00  0.00    -0.030 A 
HETATM   12  C   UNL     1      43.910 -17.024   1.901  1.00  0.00     0.012 A 
HETATM   13  C   UNL     1      44.323 -18.348   2.048  1.00  0.00     0.037 A 
HETATM   14  C   UNL     1      43.377 -19.366   2.071  1.00  0.00     0.069 A 
HETATM   15  C   UNL     1      42.030 -19.087   1.848  1.00  0.00     0.037 A 
HETATM   16  C   UNL     1      41.617 -17.761   1.695  1.00  0.00     0.012 A 
BRANCH  14  17
HETATM   17  O   UNL     1      43.823 -20.635   2.325  1.00  0.00    -0.348 OA
BRANCH  17  18
HETATM   18  C   UNL     1      45.074 -20.608   3.026  1.00  0.00     0.202 C 
BRANCH  18  19
HETATM   19  C   UNL     1      44.837 -21.151   4.403  1.00  0.00    -0.011 C 
HETATM   20  C   UNL     1      44.795 -22.452   4.718  1.00  0.00     0.009 C 
ENDBRANCH  18  19
ENDBRANCH  17  18
ENDBRANCH  14  17
ENDBRANCH   1  11
BRANCH   2  21
HETATM   21  C   UNL     1      41.435 -14.648  -0.593  1.00  0.00     0.167 C 
BRANCH  21  22
HETATM   22  C   UNL     1      41.999 -13.275  -0.831  1.00  0.00    -0.023 A 
HETATM   23  C   UNL     1      42.188 -12.380   0.217  1.00  0.00     0.125 A 
HETATM   24  N   UNL     1      42.654 -11.121   0.065  1.00  0.00    -0.273 NA
HETATM   25  C   UNL     1      42.953 -10.729  -1.192  1.00  0.00     0.116 A 
HETATM   26  C   UNL     1      42.805 -11.540  -2.305  1.00  0.00     0.020 A 
HETATM   27  C   UNL     1      42.319 -12.830  -2.118  1.00  0.00     0.012 A 
ENDBRANCH  21  22
ENDBRANCH   2  21
BRANCH  10  28
HETATM   28  C   UNL     1      42.412 -15.913   5.222  1.00  0.00     0.028 A 
HETATM   29  C   UNL     1      43.352 -15.157   5.934  1.00  0.00     0.078 A 
HETATM   30  C   UNL     1      44.432 -15.772   6.565  1.00  0.00     0.037 A 
HETATM   31  C   UNL     1      44.569 -17.158   6.516  1.00  0.00     0.003 A 
HETATM   32  C   UNL     1      43.623 -17.929   5.840  1.00  0.00     0.001 A 
HETATM   33  C   UNL     1      42.549 -17.309   5.196  1.00  0.00     0.017 A 
BRANCH  29  34
HETATM   34  O   UNL     1      43.268 -13.795   6.058  1.00  0.00    -0.360 OA
HETATM   35  H   UNL     1      42.458 -13.604   6.565  1.00  0.00     0.217 HD
ENDBRANCH  29  34
ENDBRANCH  10  28
TORSDOF 8
ENDMDL
MODEL 4
REMARK VINA RESULT:      -8.1      1.594      6.005
REMARK  8 active torsions:
REMARK  status: ('A' for Active; 'I' for Inactive)
REMARK    1  A    between atoms: C_2  and  C_3 
REMARK    2  A    between atoms: C_3  and  O_4 
REMARK    3  A    between atoms: O_4  and  C_5 
REMARK    4  A    between atoms: C_8  and  C_9 
REMARK    5  A    between atoms: N_10  and  C_11 
REMARK    6  A    between atoms: C_11  and  C_12 
REMARK    7  A    between atoms: C_25  and  C_26 
REMARK    8  A    between atoms: C_27  and  O_28 
ROOT
HETATM    1  C   UNL     1      40.441 -14.540   3.282  1.00  0.00     0.159 A 
HETATM    2  N   UNL     1      40.909 -14.196   4.651  1.00  0.00    -0.329 N 
HETATM    3  C   UNL     1      41.286 -12.854   4.800  1.00  0.00     0.273 A 
HETATM    4  O   UNL     1      41.631 -12.269   5.811  1.00  0.00    -0.266 OA
HETATM    5  C   UNL     1      41.153 -12.325   3.494  1.00  0.00     0.129 A 
HETATM    6  C   UNL     1      40.689 -13.246   2.606  1.00  0.00     0.034 A 
HETATM    7  N   UNL     1      41.382 -11.186   2.822  1.00  0.00    -0.272 N 
HETATM    8  H   UNL     1      41.735 -10.296   3.164  1.00  0.00     0.189 HD
HETATM    9  N   UNL     1      41.113 -11.328   1.497  1.00  0.00    -0.173 NA
HETATM   10  C   UNL     1      40.703 -12.610   1.356  1.00  0.00     0.101 A 
ENDROOT
BRANCH   1  11
HETATM   11  C   UNL     1      41.272 -15.569   2.554  1.00  0.00    -0.030 A 
HETATM   12  C   UNL     1      42.674 -15.467   2.608  1.00  0.00     0.012 A 
HETATM   13  C   UNL     1      43.483 -16.484   2.102  1.00  0.00     0.037 A 
HETATM   14  C   UNL     1      42.898 -17.619   1.551  1.00  0.00     0.069 A 
HETATM   15  C   UNL     1      41.515 -17.705   1.408  1.00  0.00     0.037 A 
HETATM   16  C   UNL     1      40.705 -16.683   1.908  1.00  0.00     0.012 A 
BRANCH  14  17
HETATM   17  O   UNL     1      43.733 -18.634   1.167  1.00  0.00    -0.348 OA
BRANCH  17  18
HETATM   18  C   UNL     1      44.035 -19.495   2.275  1.00  0.00     0.202 C 
BRANCH  18  19
HETATM   19  C   UNL     1      43.469 -20.850   1.967  1.00  0.00    -0.011 C 
HETATM   20  C   UNL     1      44.190 -21.914   1.588  1.00  0.00     0.009 C 
ENDBRANCH  18  19
ENDBRANCH  17  18
ENDBRANCH  14  17
ENDBRANCH   1  11
BRANCH   2  21
HETATM   21  C   UNL     1      40.673 -15.070   5.780  1.00  0.00     0.167 C 
BRANCH  21  22
HETATM   22  C   UNL     1      41.741 -16.119   5.913  1.00  0.00    -0.023 A 
HETATM   23  C   UNL     1      42.997 -15.811   6.424  1.00  0.00     0.125 A 
HETATM   24  N   UNL     1      44.011 -16.698   6.534  1.00  0.00    -0.273 NA
HETATM   25  C   UNL     1      43.766 -17.958   6.119  1.00  0.00     0.116 A 
HETATM   26  C   UNL     1      42.551 -18.372   5.598  1.00  0.00     0.020 A 
HETATM   27  C   UNL     1      41.527 -17.436   5.493  1.00  0.00     0.012 A 
ENDBRANCH  21  22
ENDBRANCH   2  21
BRANCH  10  28
HETATM   28  C   UNL     1      40.409 -13.196   0.055  1.00  0.00     0.028 A 
HETATM   29  C   UNL     1      39.156 -13.063  -0.558  1.00  0.00     0.078 A 
HETATM   30  C   UNL     1      38.857 -13.754  -1.731  1.00  0.00     0.037 A 
HETATM   31  C   UNL     1      39.824 -14.566  -2.324  1.00  0.00     0.003 A 
HETATM   32  C   UNL     1      41.088 -14.682  -1.746  1.00  0.00     0.001 A 
HETATM   33  C   UNL     1      41.378 -14.000  -0.561  1.00  0.00     0.017 A 
BRANCH  29  34
HETATM   34  O   UNL     1      38.167 -12.259  -0.057  1.00  0.00    -0.360 OA
HETATM   35  H   UNL     1      38.300 -11.371  -0.437  1.00  0.00     0.217 HD
ENDBRANCH  29  34
ENDBRANCH  10  28
TORSDOF 8
ENDMDL
MODEL 5
REMARK VINA RESULT:      -7.9      2.776      6.117
REMARK  8 active torsions:
REMARK  status: ('A' for Active; 'I' for Inactive)
REMARK    1  A    between atoms: C_2  and  C_3 
REMARK    2  A    between atoms: C_3  and  O_4 
REMARK    3  A    between atoms: O_4  and  C_5 
REMARK    4  A    between atoms: C_8  and  C_9 
REMARK    5  A    between atoms: N_10  and  C_11 
REMARK    6  A    between atoms: C_11  and  C_12 
REMARK    7  A    between atoms: C_25  and  C_26 
REMARK    8  A    between atoms: C_27  and  O_28 
ROOT
HETATM    1  C   UNL     1      40.456 -13.645   4.477  1.00  0.00     0.159 A 
HETATM    2  N   UNL     1      40.263 -12.232   4.899  1.00  0.00    -0.329 N 
HETATM    3  C   UNL     1      40.764 -11.295   3.984  1.00  0.00     0.273 A 
HETATM    4  O   UNL     1      40.683 -10.080   4.019  1.00  0.00    -0.266 OA
HETATM    5  C   UNL     1      41.378 -12.095   2.991  1.00  0.00     0.129 A 
HETATM    6  C   UNL     1      41.235 -13.426   3.237  1.00  0.00     0.034 A 
HETATM    7  N   UNL     1      42.109 -11.960   1.874  1.00  0.00    -0.272 N 
HETATM    8  H   UNL     1      42.414 -11.114   1.402  1.00  0.00     0.189 HD
HETATM    9  N   UNL     1      42.490 -13.168   1.380  1.00  0.00    -0.173 NA
HETATM   10  C   UNL     1      41.968 -14.079   2.234  1.00  0.00     0.101 A 
ENDROOT
BRANCH   1  11
HETATM   11  C   UNL     1      41.327 -14.478   5.387  1.00  0.00    -0.030 A 
HETATM   12  C   UNL     1      40.852 -15.731   5.817  1.00  0.00     0.012 A 
HETATM   13  C   UNL     1      41.684 -16.609   6.511  1.00  0.00     0.037 A 
HETATM   14  C   UNL     1      43.002 -16.250   6.770  1.00  0.00     0.069 A 
HETATM   15  C   UNL     1      43.470 -14.982   6.431  1.00  0.00     0.037 A 
HETATM   16  C   UNL     1      42.634 -14.099   5.742  1.00  0.00     0.012 A 
BRANCH  14  17
HETATM   17  O   UNL     1      43.807 -17.188   7.358  1.00  0.00    -0.348 OA
BRANCH  17  18
HETATM   18  C   UNL     1      44.896 -17.543   6.493  1.00  0.00     0.202 C 
BRANCH  18  19
HETATM   19  C   UNL     1      44.601 -18.897   5.922  1.00  0.00    -0.011 C 
HETATM   20  C   UNL     1      43.838 -19.829   6.510  1.00  0.00     0.009 C 
ENDBRANCH  18  19
ENDBRANCH  17  18
ENDBRANCH  14  17
ENDBRANCH   1  11
BRANCH   2  21
HETATM   21  C   UNL     1      39.355 -11.871   5.966  1.00  0.00     0.167 C 
BRANCH  21  22
HETATM   22  C   UNL     1      40.087 -11.441   7.207  1.00  0.00    -0.023 A 
HETATM   23  C   UNL     1      39.443 -11.374   8.438  1.00  0.00     0.125 A 
HETATM   24  N   UNL     1      40.034 -10.960   9.582  1.00  0.00    -0.273 NA
HETATM   25  C   UNL     1      41.332 -10.598   9.501  1.00  0.00     0.116 A 
HETATM   26  C   UNL     1      42.066 -10.631   8.328  1.00  0.00     0.020 A 
HETATM   27  C   UNL     1      41.431 -11.058   7.166  1.00  0.00     0.012 A 
ENDBRANCH  21  22
ENDBRANCH   2  21
BRANCH  10  28
HETATM   28  C   UNL     1      42.232 -15.506   2.109  1.00  0.00     0.028 A 
HETATM   29  C   UNL     1      41.335 -16.380   1.480  1.00  0.00     0.078 A 
HETATM   30  C   UNL     1      41.545 -17.757   1.504  1.00  0.00     0.037 A 
HETATM   31  C   UNL     1      42.675 -18.278   2.134  1.00  0.00     0.003 A 
HETATM   32  C   UNL     1      43.595 -17.420   2.736  1.00  0.00     0.001 A 
HETATM   33  C   UNL     1      43.374 -16.040   2.724  1.00  0.00     0.017 A 
BRANCH  29  34
HETATM   34  O   UNL     1      40.222 -15.944   0.811  1.00  0.00    -0.360 OA
HETATM   35  H   UNL     1      39.452 -16.373   1.228  1.00  0.00     0.217 HD
ENDBRANCH  29  34
ENDBRANCH  10  28
TORSDOF 8
ENDMDL
MODEL 6
REMARK VINA RESULT:      -7.9      2.711      6.574
REMARK  8 active torsions:
REMARK  status: ('A' for Active; 'I' for Inactive)
REMARK    1  A    between atoms: C_2  and  C_3 
REMARK    2  A    between atoms: C_3  and  O_4 
REMARK    3  A    between atoms: O_4  and  C_5 
REMARK    4  A    between atoms: C_8  and  C_9 
REMARK    5  A    between atoms: N_10  and  C_11 
REMARK    6  A    between atoms: C_11  and  C_12 
REMARK    7  A    between atoms: C_25  and  C_26 
REMARK    8  A    between atoms: C_27  and  O_28 
ROOT
HETATM    1  C   UNL     1      42.665 -15.244   2.570  1.00  0.00     0.159 A 
HETATM    2  N   UNL     1      42.558 -16.618   2.010  1.00  0.00    -0.329 N 
HETATM    3  C   UNL     1      41.243 -17.012   1.725  1.00  0.00     0.273 A 
HETATM    4  O   UNL     1      40.855 -18.036   1.194  1.00  0.00    -0.266 OA
HETATM    5  C   UNL     1      40.463 -15.925   2.186  1.00  0.00     0.129 A 
HETATM    6  C   UNL     1      41.226 -14.911   2.679  1.00  0.00     0.034 A 
HETATM    7  N   UNL     1      39.175 -15.577   2.334  1.00  0.00    -0.272 N 
HETATM    8  H   UNL     1      38.336 -16.093   2.084  1.00  0.00     0.189 HD
HETATM    9  N   UNL     1      39.053 -14.369   2.945  1.00  0.00    -0.173 NA
HETATM   10  C   UNL     1      40.322 -13.962   3.179  1.00  0.00     0.101 A 
ENDROOT
BRANCH   1  11
HETATM   11  C   UNL     1      43.232 -15.157   3.967  1.00  0.00    -0.030 A 
HETATM   12  C   UNL     1      43.992 -14.027   4.320  1.00  0.00     0.012 A 
HETATM   13  C   UNL     1      44.387 -13.818   5.640  1.00  0.00     0.037 A 
HETATM   14  C   UNL     1      44.014 -14.727   6.624  1.00  0.00     0.069 A 
HETATM   15  C   UNL     1      43.336 -15.896   6.286  1.00  0.00     0.037 A 
HETATM   16  C   UNL     1      42.946 -16.110   4.962  1.00  0.00     0.012 A 
BRANCH  14  17
HETATM   17  O   UNL     1      44.334 -14.421   7.919  1.00  0.00    -0.348 OA
BRANCH  17  18
HETATM   18  C   UNL     1      45.134 -13.231   7.981  1.00  0.00     0.202 C 
BRANCH  18  19
HETATM   19  C   UNL     1      44.716 -12.465   9.201  1.00  0.00    -0.011 C 
HETATM   20  C   UNL     1      45.343 -11.381   9.677  1.00  0.00     0.009 C 
ENDBRANCH  18  19
ENDBRANCH  17  18
ENDBRANCH  14  17
ENDBRANCH   1  11
BRANCH   2  21
HETATM   21  C   UNL     1      43.712 -17.326   1.501  1.00  0.00     0.167 C 
BRANCH  21  22
HETATM   22  C   UNL     1      43.941 -18.623   2.225  1.00  0.00    -0.023 A 
HETATM   23  C   UNL     1      44.343 -18.645   3.557  1.00  0.00     0.125 A 
HETATM   24  N   UNL     1      44.602 -19.775   4.253  1.00  0.00    -0.273 NA
HETATM   25  C   UNL     1      44.449 -20.944   3.596  1.00  0.00     0.116 A 
HETATM   26  C   UNL     1      44.050 -21.035   2.273  1.00  0.00     0.020 A 
HETATM   27  C   UNL     1      43.794 -19.856   1.581  1.00  0.00     0.012 A 
ENDBRANCH  21  22
ENDBRANCH   2  21
BRANCH  10  28
HETATM   28  C   UNL     1      40.627 -12.741   3.914  1.00  0.00     0.028 A 
HETATM   29  C   UNL     1      40.672 -12.703   5.314  1.00  0.00     0.078 A 
HETATM   30  C   UNL     1      40.821 -11.495   5.991  1.00  0.00     0.037 A 
HETATM   31  C   UNL     1      40.959 -10.308   5.272  1.00  0.00     0.003 A 
HETATM   32  C   UNL     1      40.951 -10.331   3.878  1.00  0.00     0.001 A 
HETATM   33  C   UNL     1      40.785 -11.543   3.202  1.00  0.00     0.017 A 
BRANCH  29  34
HETATM   34  O   UNL     1      40.579 -13.829   6.089  1.00  0.00    -0.360 OA
HETATM   35  H   UNL     1      39.635 -14.070   6.132  1.00  0.00     0.217 HD
ENDBRANCH  29  34
ENDBRANCH  10  28
TORSDOF 8
ENDMDL
MODEL 7
REMARK VINA RESULT:      -7.7      2.691      6.301
REMARK  8 active torsions:
REMARK  status: ('A' for Active; 'I' for Inactive)
REMARK    1  A    between atoms: C_2  and  C_3 
REMARK    2  A    between atoms: C_3  and  O_4 
REMARK    3  A    between atoms: O_4  and  C_5 
REMARK    4  A    between atoms: C_8  and  C_9 
REMARK    5  A    between atoms: N_10  and  C_11 
REMARK    6  A    between atoms: C_11  and  C_12 
REMARK    7  A    between atoms: C_25  and  C_26 
REMARK    8  A    between atoms: C_27  and  O_28 
ROOT
HETATM    1  C   UNL     1      41.970 -16.395   5.332  1.00  0.00     0.159 A 
HETATM    2  N   UNL     1      43.018 -17.371   5.734  1.00  0.00    -0.329 N 
HETATM    3  C   UNL     1      44.072 -16.802   6.462  1.00  0.00     0.273 A 
HETATM    4  O   UNL     1      45.021 -17.358   6.986  1.00  0.00    -0.266 OA
HETATM    5  C   UNL     1      43.767 -15.420   6.464  1.00  0.00     0.129 A 
HETATM    6  C   UNL     1      42.594 -15.147   5.829  1.00  0.00     0.034 A 
HETATM    7  N   UNL     1      44.296 -14.255   6.868  1.00  0.00    -0.272 N 
HETATM    8  H   UNL     1      45.163 -14.079   7.367  1.00  0.00     0.189 HD
HETATM    9  N   UNL     1      43.524 -13.201   6.491  1.00  0.00    -0.173 NA
HETATM   10  C   UNL     1      42.479 -13.749   5.828  1.00  0.00     0.101 A 
ENDROOT
BRANCH   1  11
HETATM   11  C   UNL     1      41.787 -16.218   3.844  1.00  0.00    -0.030 A 
HETATM   12  C   UNL     1      42.914 -15.930   3.053  1.00  0.00     0.012 A 
HETATM   13  C   UNL     1      42.828 -15.931   1.662  1.00  0.00     0.037 A 
HETATM   14  C   UNL     1      41.619 -16.234   1.046  1.00  0.00     0.069 A 
HETATM   15  C   UNL     1      40.469 -16.439   1.807  1.00  0.00     0.037 A 
HETATM   16  C   UNL     1      40.554 -16.431   3.201  1.00  0.00     0.012 A 
BRANCH  14  17
HETATM   17  O   UNL     1      41.612 -16.328  -0.319  1.00  0.00    -0.348 OA
BRANCH  17  18
HETATM   18  C   UNL     1      40.972 -15.187  -0.908  1.00  0.00     0.202 C 
BRANCH  18  19
HETATM   19  C   UNL     1      40.961 -15.386  -2.394  1.00  0.00    -0.011 C 
HETATM   20  C   UNL     1      41.179 -14.423  -3.298  1.00  0.00     0.009 C 
ENDBRANCH  18  19
ENDBRANCH  17  18
ENDBRANCH  14  17
ENDBRANCH   1  11
BRANCH   2  21
HETATM   21  C   UNL     1      42.794 -18.799   5.673  1.00  0.00     0.167 C 
BRANCH  21  22
HETATM   22  C   UNL     1      43.547 -19.439   4.540  1.00  0.00    -0.023 A 
HETATM   23  C   UNL     1      44.701 -20.180   4.768  1.00  0.00     0.125 A 
HETATM   24  N   UNL     1      45.444 -20.748   3.792  1.00  0.00    -0.273 NA
HETATM   25  C   UNL     1      45.018 -20.576   2.523  1.00  0.00     0.116 A 
HETATM   26  C   UNL     1      43.881 -19.860   2.186  1.00  0.00     0.020 A 
HETATM   27  C   UNL     1      43.139 -19.283   3.212  1.00  0.00     0.012 A 
ENDBRANCH  21  22
ENDBRANCH   2  21
BRANCH  10  28
HETATM   28  C   UNL     1      41.460 -12.939   5.173  1.00  0.00     0.028 A 
HETATM   29  C   UNL     1      40.166 -12.804   5.691  1.00  0.00     0.078 A 
HETATM   30  C   UNL     1      39.173 -12.144   4.968  1.00  0.00     0.037 A 
HETATM   31  C   UNL     1      39.473 -11.583   3.727  1.00  0.00     0.003 A 
HETATM   32  C   UNL     1      40.765 -11.680   3.212  1.00  0.00     0.001 A 
HETATM   33  C   UNL     1      41.754 -12.355   3.932  1.00  0.00     0.017 A 
BRANCH  29  34
HETATM   34  O   UNL     1      39.802 -13.295   6.917  1.00  0.00    -0.360 OA
HETATM   35  H   UNL     1      39.458 -14.196   6.773  1.00  0.00     0.217 HD
ENDBRANCH  29  34
ENDBRANCH  10  28
TORSDOF 8
ENDMDL
MODEL 8
REMARK VINA RESULT:      -7.6      2.328      3.223
REMARK  8 active torsions:
REMARK  status: ('A' for Active; 'I' for Inactive)
REMARK    1  A    between atoms: C_2  and  C_3 
REMARK    2  A    between atoms: C_3  and  O_4 
REMARK    3  A    between atoms: O_4  and  C_5 
REMARK    4  A    between atoms: C_8  and  C_9 
REMARK    5  A    between atoms: N_10  and  C_11 
REMARK    6  A    between atoms: C_11  and  C_12 
REMARK    7  A    between atoms: C_25  and  C_26 
REMARK    8  A    between atoms: C_27  and  O_28 
ROOT
HETATM    1  C   UNL     1      41.793 -14.168   0.741  1.00  0.00     0.159 A 
HETATM    2  N   UNL     1      41.058 -13.927  -0.530  1.00  0.00    -0.329 N 
HETATM    3  C   UNL     1      39.798 -13.338  -0.351  1.00  0.00     0.273 A 
HETATM    4  O   UNL     1      39.012 -12.955  -1.198  1.00  0.00    -0.266 OA
HETATM    5  C   UNL     1      39.658 -13.273   1.055  1.00  0.00     0.129 A 
HETATM    6  C   UNL     1      40.757 -13.740   1.709  1.00  0.00     0.034 A 
HETATM    7  N   UNL     1      38.749 -12.925   1.980  1.00  0.00    -0.272 N 
HETATM    8  H   UNL     1      37.816 -12.545   1.854  1.00  0.00     0.189 HD
HETATM    9  N   UNL     1      39.197 -13.178   3.238  1.00  0.00    -0.173 NA
HETATM   10  C   UNL     1      40.434 -13.703   3.073  1.00  0.00     0.101 A 
ENDROOT
BRANCH   1  11
HETATM   11  C   UNL     1      42.094 -15.616   1.048  1.00  0.00    -0.030 A 
HETATM   12  C   UNL     1      43.292 -15.931   1.714  1.00  0.00     0.012 A 
HETATM   13  C   UNL     1      43.534 -17.225   2.173  1.00  0.00     0.037 A 
HETATM   14  C   UNL     1      42.574 -18.213   1.986  1.00  0.00     0.069 A 
HETATM   15  C   UNL     1      41.418 -17.947   1.255  1.00  0.00     0.037 A 
HETATM   16  C   UNL     1      41.179 -16.652   0.788  1.00  0.00     0.012 A 
BRANCH  14  17
HETATM   17  O   UNL     1      42.811 -19.438   2.550  1.00  0.00    -0.348 OA
BRANCH  17  18
HETATM   18  C   UNL     1      44.204 -19.599   2.855  1.00  0.00     0.202 C 
BRANCH  18  19
HETATM   19  C   UNL     1      44.590 -21.002   2.494  1.00  0.00    -0.011 C 
HETATM   20  C   UNL     1      43.875 -21.815   1.704  1.00  0.00     0.009 C 
ENDBRANCH  18  19
ENDBRANCH  17  18
ENDBRANCH  14  17
ENDBRANCH   1  11
BRANCH   2  21
HETATM   21  C   UNL     1      41.719 -13.980  -1.816  1.00  0.00     0.167 C 
BRANCH  21  22
HETATM   22  C   UNL     1      42.051 -12.609  -2.334  1.00  0.00    -0.023 A 
HETATM   23  C   UNL     1      41.716 -12.225  -3.629  1.00  0.00     0.125 A 
HETATM   24  N   UNL     1      42.019 -11.023  -4.167  1.00  0.00    -0.273 NA
HETATM   25  C   UNL     1      42.686 -10.153  -3.378  1.00  0.00     0.116 A 
HETATM   26  C   UNL     1      43.064 -10.432  -2.076  1.00  0.00     0.020 A 
HETATM   27  C   UNL     1      42.741 -11.679  -1.550  1.00  0.00     0.012 A 
ENDBRANCH  21  22
ENDBRANCH   2  21
BRANCH  10  28
HETATM   28  C   UNL     1      41.224 -14.203   4.190  1.00  0.00     0.028 A 
HETATM   29  C   UNL     1      42.306 -13.488   4.719  1.00  0.00     0.078 A 
HETATM   30  C   UNL     1      43.132 -14.055   5.688  1.00  0.00     0.037 A 
HETATM   31  C   UNL     1      42.865 -15.339   6.164  1.00  0.00     0.003 A 
HETATM   32  C   UNL     1      41.771 -16.051   5.673  1.00  0.00     0.001 A 
HETATM   33  C   UNL     1      40.955 -15.486   4.690  1.00  0.00     0.017 A 
BRANCH  29  34
HETATM   34  O   UNL     1      42.612 -12.211   4.330  1.00  0.00    -0.360 OA
HETATM   35  H   UNL     1      41.854 -11.649   4.573  1.00  0.00     0.217 HD
ENDBRANCH  29  34
ENDBRANCH  10  28
TORSDOF 8
ENDMDL
MODEL 9
REMARK VINA RESULT:      -7.3      2.557      5.305
REMARK  8 active torsions:
REMARK  status: ('A' for Active; 'I' for Inactive)
REMARK    1  A    between atoms: C_2  and  C_3 
REMARK    2  A    between atoms: C_3  and  O_4 
REMARK    3  A    between atoms: O_4  and  C_5 
REMARK    4  A    between atoms: C_8  and  C_9 
REMARK    5  A    between atoms: N_10  and  C_11 
REMARK    6  A    between atoms: C_11  and  C_12 
REMARK    7  A    between atoms: C_25  and  C_26 
REMARK    8  A    between atoms: C_27  and  O_28 
ROOT
HETATM    1  C   UNL     1      40.330 -15.084   3.355  1.00  0.00     0.159 A 
HETATM    2  N   UNL     1      39.653 -14.181   2.386  1.00  0.00    -0.329 N 
HETATM    3  C   UNL     1      39.638 -14.670   1.072  1.00  0.00     0.273 A 
HETATM    4  O   UNL     1      39.095 -14.195   0.091  1.00  0.00    -0.266 OA
HETATM    5  C   UNL     1      40.394 -15.864   1.153  1.00  0.00     0.129 A 
HETATM    6  C   UNL     1      40.811 -16.129   2.422  1.00  0.00     0.034 A 
HETATM    7  N   UNL     1      40.878 -16.826   0.353  1.00  0.00    -0.272 N 
HETATM    8  H   UNL     1      40.771 -16.944  -0.651  1.00  0.00     0.189 HD
HETATM    9  N   UNL     1      41.639 -17.714   1.047  1.00  0.00    -0.173 NA
HETATM   10  C   UNL     1      41.616 -17.273   2.326  1.00  0.00     0.101 A 
ENDROOT
BRANCH   1  11
HETATM   11  C   UNL     1      41.556 -14.511   4.024  1.00  0.00    -0.030 A 
HETATM   12  C   UNL     1      41.620 -14.506   5.429  1.00  0.00     0.012 A 
HETATM   13  C   UNL     1      42.796 -14.152   6.088  1.00  0.00     0.037 A 
HETATM   14  C   UNL     1      43.925 -13.813   5.350  1.00  0.00     0.069 A 
HETATM   15  C   UNL     1      43.862 -13.728   3.961  1.00  0.00     0.037 A 
HETATM   16  C   UNL     1      42.682 -14.076   3.300  1.00  0.00     0.012 A 
BRANCH  14  17
HETATM   17  O   UNL     1      45.083 -13.578   6.041  1.00  0.00    -0.348 OA
BRANCH  17  18
HETATM   18  C   UNL     1      44.909 -13.847   7.439  1.00  0.00     0.202 C 
BRANCH  18  19
HETATM   19  C   UNL     1      45.544 -12.723   8.202  1.00  0.00    -0.011 C 
HETATM   20  C   UNL     1      46.752 -12.205   7.941  1.00  0.00     0.009 C 
ENDBRANCH  18  19
ENDBRANCH  17  18
ENDBRANCH  14  17
ENDBRANCH   1  11
BRANCH   2  21
HETATM   21  C   UNL     1      38.808 -13.090   2.822  1.00  0.00     0.167 C 
BRANCH  21  22
HETATM   22  C   UNL     1      39.526 -11.770   2.776  1.00  0.00    -0.023 A 
HETATM   23  C   UNL     1      39.669 -11.067   1.585  1.00  0.00     0.125 A 
HETATM   24  N   UNL     1      40.335  -9.896   1.470  1.00  0.00    -0.273 NA
HETATM   25  C   UNL     1      40.882  -9.393   2.596  1.00  0.00     0.116 A 
HETATM   26  C   UNL     1      40.795 -10.009   3.833  1.00  0.00     0.020 A 
HETATM   27  C   UNL     1      40.108 -11.216   3.920  1.00  0.00     0.012 A 
ENDBRANCH  21  22
ENDBRANCH   2  21
BRANCH  10  28
HETATM   28  C   UNL     1      42.399 -17.903   3.382  1.00  0.00     0.028 A 
HETATM   29  C   UNL     1      43.636 -18.512   3.133  1.00  0.00     0.078 A 
HETATM   30  C   UNL     1      44.291 -19.231   4.131  1.00  0.00     0.037 A 
HETATM   31  C   UNL     1      43.729 -19.325   5.403  1.00  0.00     0.003 A 
HETATM   32  C   UNL     1      42.515 -18.696   5.678  1.00  0.00     0.001 A 
HETATM   33  C   UNL     1      41.852 -17.988   4.671  1.00  0.00     0.017 A 
BRANCH  29  34
HETATM   34  O   UNL     1      44.269 -18.435   1.921  1.00  0.00    -0.360 OA
HETATM   35  H   UNL     1      44.989 -19.092   1.933  1.00  0.00     0.217 HD
ENDBRANCH  29  34
ENDBRANCH  10  28
TORSDOF 8
ENDMDL
MODEL 10
REMARK VINA RESULT:      -7.2      2.131      5.096
REMARK  8 active torsions:
REMARK  status: ('A' for Active; 'I' for Inactive)
REMARK    1  A    between atoms: C_2  and  C_3 
REMARK    2  A    between atoms: C_3  and  O_4 
REMARK    3  A    between atoms: O_4  and  C_5 
REMARK    4  A    between atoms: C_8  and  C_9 
REMARK    5  A    between atoms: N_10  and  C_11 
REMARK    6  A    between atoms: C_11  and  C_12 
REMARK    7  A    between atoms: C_25  and  C_26 
REMARK    8  A    between atoms: C_27  and  O_28 
ROOT
HETATM    1  C   UNL     1      41.093 -17.017   2.929  1.00  0.00     0.159 A 
HETATM    2  N   UNL     1      40.520 -15.914   2.112  1.00  0.00    -0.329 N 
HETATM    3  C   UNL     1      41.145 -15.748   0.868  1.00  0.00     0.273 A 
HETATM    4  O   UNL     1      40.847 -14.989  -0.036  1.00  0.00    -0.266 OA
HETATM    5  C   UNL     1      42.202 -16.688   0.899  1.00  0.00     0.129 A 
HETATM    6  C   UNL     1      42.214 -17.418   2.048  1.00  0.00     0.034 A 
HETATM    7  N   UNL     1      43.250 -17.077   0.156  1.00  0.00    -0.272 N 
HETATM    8  H   UNL     1      43.551 -16.745  -0.756  1.00  0.00     0.189 HD
HETATM    9  N   UNL     1      43.986 -18.027   0.792  1.00  0.00    -0.173 NA
HETATM   10  C   UNL     1      43.358 -18.226   1.975  1.00  0.00     0.101 A 
ENDROOT
BRANCH   1  11
HETATM   11  C   UNL     1      41.710 -16.595   4.241  1.00  0.00    -0.030 A 
HETATM   12  C   UNL     1      41.294 -17.237   5.422  1.00  0.00     0.012 A 
HETATM   13  C   UNL     1      41.953 -17.009   6.629  1.00  0.00     0.037 A 
HETATM   14  C   UNL     1      43.045 -16.149   6.665  1.00  0.00     0.069 A 
HETATM   15  C   UNL     1      43.423 -15.436   5.529  1.00  0.00     0.037 A 
HETATM   16  C   UNL     1      42.757 -15.659   4.321  1.00  0.00     0.012 A 
BRANCH  14  17
HETATM   17  O   UNL     1      43.724 -16.042   7.849  1.00  0.00    -0.348 OA
BRANCH  17  18
HETATM   18  C   UNL     1      43.434 -17.154   8.708  1.00  0.00     0.202 C 
BRANCH  18  19
HETATM   19  C   UNL     1      44.456 -18.218   8.436  1.00  0.00    -0.011 C 
HETATM   20  C   UNL     1      44.513 -19.403   9.059  1.00  0.00     0.009 C 
ENDBRANCH  18  19
ENDBRANCH  17  18
ENDBRANCH  14  17
ENDBRANCH   1  11
BRANCH   2  21
HETATM   21  C   UNL     1      39.242 -15.314   2.429  1.00  0.00     0.167 C 
BRANCH  21  22
HETATM   22  C   UNL     1      39.398 -13.965   3.073  1.00  0.00    -0.023 A 
HETATM   23  C   UNL     1      39.392 -12.798   2.316  1.00  0.00     0.125 A 
HETATM   24  N   UNL     1      39.565 -11.559   2.828  1.00  0.00    -0.273 NA
HETATM   25  C   UNL     1      39.750 -11.472   4.162  1.00  0.00     0.116 A 
HETATM   26  C   UNL     1      39.770 -12.568   5.008  1.00  0.00     0.020 A 
HETATM   27  C   UNL     1      39.593 -13.831   4.451  1.00  0.00     0.012 A 
ENDBRANCH  21  22
ENDBRANCH   2  21
BRANCH  10  28
HETATM   28  C   UNL     1      43.893 -19.110   3.002  1.00  0.00     0.028 A 
HETATM   29  C   UNL     1      43.888 -20.504   2.864  1.00  0.00     0.078 A 
HETATM   30  C   UNL     1      44.271 -21.327   3.921  1.00  0.00     0.037 A 
HETATM   31  C   UNL     1      44.694 -20.763   5.124  1.00  0.00     0.003 A 
HETATM   32  C   UNL     1      44.737 -19.376   5.267  1.00  0.00     0.001 A 
HETATM   33  C   UNL     1      44.338 -18.553   4.210  1.00  0.00     0.017 A 
BRANCH  29  34
HETATM   34  O   UNL     1      43.520 -21.133   1.704  1.00  0.00    -0.360 OA
HETATM   35  H   UNL     1      44.088 -20.781   0.995  1.00  0.00     0.217 HD
ENDBRANCH  29  34
ENDBRANCH  10  28
TORSDOF 8
ENDMDL
