MODEL 1
REMARK VINA RESULT:      -8.9      0.000      0.000
REMARK  8 active torsions:
REMARK  status: ('A' for Active; 'I' for Inactive)
REMARK    1  A    between atoms: O_2  and  C_3 
REMARK    2  A    between atoms: C_4  and  O_5 
REMARK    3  A    between atoms: C_8  and  C_9 
REMARK    4  A    between atoms: C_9  and  N_10 
REMARK    5  A    between atoms: C_19  and  C_20 
REMARK    6  A    between atoms: C_20  and  N_21 
REMARK    7  A    between atoms: C_25  and  O_26 
REMARK    8  A    between atoms: C_25  and  C_27 
ROOT
HETATM    1  N   UNL     1      41.597 -16.953   1.282  1.00  0.00    -0.061 N 
HETATM    2  H   UNL     1      41.609 -17.965   1.111  1.00  0.00     0.280 HD
HETATM    3  C   UNL     1      40.431 -16.754   2.231  1.00  0.00     0.276 C 
HETATM    4  C   UNL     1      40.267 -15.365   2.784  1.00  0.00     0.002 A 
HETATM    5  C   UNL     1      40.030 -14.287   1.930  1.00  0.00     0.076 A 
HETATM    6  O   UNL     1      39.899 -14.473   0.583  1.00  0.00    -0.349 OA
HETATM    7  C   UNL     1      41.148 -14.812  -0.035  1.00  0.00     0.203 C 
HETATM    8  C   UNL     1      41.353 -16.330  -0.085  1.00  0.00     0.262 C 
HETATM    9  C   UNL     1      40.317 -15.119   4.170  1.00  0.00     0.020 A 
HETATM   10  C   UNL     1      40.184 -13.818   4.691  1.00  0.00    -0.032 A 
HETATM   11  C   UNL     1      39.934 -12.762   3.804  1.00  0.00     0.011 A 
HETATM   12  C   UNL     1      39.837 -13.002   2.431  1.00  0.00     0.038 A 
ENDROOT
BRANCH  10  13
HETATM   13  C   UNL     1      40.341 -13.566   6.173  1.00  0.00     0.273 C 
BRANCH  13  14
HETATM   14  N   UNL     1      40.259 -12.109   6.588  1.00  0.00    -0.067 N 
HETATM   15  H   UNL     1      39.792 -11.605   5.822  1.00  0.00     0.280 HD
HETATM   16  C   UNL     1      39.428 -11.907   7.834  1.00  0.00     0.238 C 
HETATM   17  C   UNL     1      39.408 -10.437   8.214  1.00  0.00     0.071 C 
HETATM   18  C   UNL     1      40.826  -9.894   8.480  1.00  0.00     0.089 C 
HETATM   19  C   UNL     1      41.605 -10.082   7.162  1.00  0.00     0.071 C 
HETATM   20  C   UNL     1      41.656 -11.534   6.718  1.00  0.00     0.238 C 
BRANCH  18  21
HETATM   21  O   UNL     1      40.689  -8.485   8.669  1.00  0.00    -0.385 OA
HETATM   22  H   UNL     1      41.567  -8.060   8.704  1.00  0.00     0.211 HD
ENDBRANCH  18  21
BRANCH  18  23
HETATM   23  C   UNL     1      41.480 -10.485   9.725  1.00  0.00    -0.006 A 
HETATM   24  C   UNL     1      40.750 -10.873  10.849  1.00  0.00     0.126 A 
HETATM   25  N   UNL     1      41.292 -11.332  11.998  1.00  0.00    -0.272 NA
HETATM   26  C   UNL     1      42.628 -11.499  12.031  1.00  0.00     0.116 A 
HETATM   27  C   UNL     1      43.448 -11.214  10.957  1.00  0.00     0.020 A 
HETATM   28  C   UNL     1      42.864 -10.710   9.795  1.00  0.00     0.013 A 
ENDBRANCH  18  23
ENDBRANCH  13  14
ENDBRANCH  10  13
BRANCH   1  29
HETATM   29  C   UNL     1      42.975 -16.648   1.840  1.00  0.00     0.274 C 
BRANCH  29  30
HETATM   30  C   UNL     1      43.579 -17.779   2.626  1.00  0.00    -0.030 A 
HETATM   31  C   UNL     1      43.692 -17.678   4.018  1.00  0.00     0.048 A 
HETATM   32  C   UNL     1      44.109 -18.768   4.782  1.00  0.00     0.102 A 
HETATM   33  C   UNL     1      44.454 -19.981   4.171  1.00  0.00     0.101 A 
HETATM   34  C   UNL     1      44.409 -20.063   2.776  1.00  0.00     0.040 A 
HETATM   35  C   UNL     1      43.971 -18.974   2.009  1.00  0.00     0.012 A 
BRANCH  32  36
HETATM   36  O   UNL     1      44.025 -18.617   6.144  1.00  0.00    -0.353 OA
HETATM   37  C   UNL     1      45.128 -17.858   6.649  1.00  0.00     0.210 C 
ENDBRANCH  32  36
BRANCH  33  38
HETATM   38  O   UNL     1      44.767 -21.022   5.002  1.00  0.00    -0.353 OA
HETATM   39  C   UNL     1      44.789 -22.326   4.432  1.00  0.00     0.210 C 
ENDBRANCH  33  38
ENDBRANCH  29  30
ENDBRANCH   1  29
TORSDOF 8
ENDMDL
MODEL 2
REMARK VINA RESULT:      -8.7      3.744      8.213
REMARK  8 active torsions:
REMARK  status: ('A' for Active; 'I' for Inactive)
REMARK    1  A    between atoms: O_2  and  C_3 
REMARK    2  A    between atoms: C_4  and  O_5 
REMARK    3  A    between atoms: C_8  and  C_9 
REMARK    4  A    between atoms: C_9  and  N_10 
REMARK    5  A    between atoms: C_19  and  C_20 
REMARK    6  A    between atoms: C_20  and  N_21 
REMARK    7  A    between atoms: C_25  and  O_26 
REMARK    8  A    between atoms: C_25  and  C_27 
ROOT
HETATM    1  N   UNL     1      42.419 -15.693   4.920  1.00  0.00    -0.061 N 
HETATM    2  H   UNL     1      43.235 -16.223   5.247  1.00  0.00     0.280 HD
HETATM    3  C   UNL     1      42.981 -14.327   4.571  1.00  0.00     0.276 C 
HETATM    4  C   UNL     1      42.024 -13.375   3.910  1.00  0.00     0.002 A 
HETATM    5  C   UNL     1      40.866 -12.962   4.572  1.00  0.00     0.076 A 
HETATM    6  O   UNL     1      40.598 -13.378   5.844  1.00  0.00    -0.349 OA
HETATM    7  C   UNL     1      40.245 -14.767   5.891  1.00  0.00     0.203 C 
HETATM    8  C   UNL     1      41.478 -15.650   6.117  1.00  0.00     0.262 C 
HETATM    9  C   UNL     1      42.281 -12.852   2.628  1.00  0.00     0.020 A 
HETATM   10  C   UNL     1      41.378 -11.975   1.997  1.00  0.00    -0.032 A 
HETATM   11  C   UNL     1      40.233 -11.573   2.696  1.00  0.00     0.011 A 
HETATM   12  C   UNL     1      39.991 -12.050   3.988  1.00  0.00     0.038 A 
ENDROOT
BRANCH  10  13
HETATM   13  C   UNL     1      41.628 -11.506   0.582  1.00  0.00     0.273 C 
BRANCH  13  14
HETATM   14  N   UNL     1      41.981 -12.603  -0.405  1.00  0.00    -0.067 N 
HETATM   15  H   UNL     1      42.942 -12.902  -0.188  1.00  0.00     0.280 HD
HETATM   16  C   UNL     1      41.089 -13.815  -0.267  1.00  0.00     0.238 C 
HETATM   17  C   UNL     1      41.473 -14.863  -1.298  1.00  0.00     0.071 C 
HETATM   18  C   UNL     1      41.348 -14.326  -2.737  1.00  0.00     0.089 C 
HETATM   19  C   UNL     1      42.314 -13.128  -2.827  1.00  0.00     0.071 C 
HETATM   20  C   UNL     1      41.992 -12.042  -1.813  1.00  0.00     0.238 C 
BRANCH  18  21
HETATM   21  O   UNL     1      41.880 -15.338  -3.592  1.00  0.00    -0.385 OA
HETATM   22  H   UNL     1      41.157 -15.862  -3.987  1.00  0.00     0.211 HD
ENDBRANCH  18  21
BRANCH  18  23
HETATM   23  C   UNL     1      39.909 -14.048  -3.159  1.00  0.00    -0.006 A 
HETATM   24  C   UNL     1      39.412 -12.757  -3.345  1.00  0.00     0.126 A 
HETATM   25  N   UNL     1      38.129 -12.461  -3.645  1.00  0.00    -0.272 NA
HETATM   26  C   UNL     1      37.289 -13.491  -3.859  1.00  0.00     0.116 A 
HETATM   27  C   UNL     1      37.681 -14.812  -3.772  1.00  0.00     0.020 A 
HETATM   28  C   UNL     1      39.003 -15.088  -3.426  1.00  0.00     0.013 A 
ENDBRANCH  18  23
ENDBRANCH  13  14
ENDBRANCH  10  13
BRANCH   1  29
HETATM   29  C   UNL     1      41.875 -16.509   3.763  1.00  0.00     0.274 C 
BRANCH  29  30
HETATM   30  C   UNL     1      42.751 -17.669   3.371  1.00  0.00    -0.030 A 
HETATM   31  C   UNL     1      43.492 -18.343   4.349  1.00  0.00     0.048 A 
HETATM   32  C   UNL     1      44.191 -19.509   4.037  1.00  0.00     0.102 A 
HETATM   33  C   UNL     1      44.194 -20.015   2.730  1.00  0.00     0.101 A 
HETATM   34  C   UNL     1      43.512 -19.306   1.738  1.00  0.00     0.040 A 
HETATM   35  C   UNL     1      42.792 -18.144   2.054  1.00  0.00     0.012 A 
BRANCH  32  36
HETATM   36  O   UNL     1      44.745 -20.182   5.098  1.00  0.00    -0.353 OA
HETATM   37  C   UNL     1      43.964 -20.009   6.284  1.00  0.00     0.210 C 
ENDBRANCH  32  36
BRANCH  33  38
HETATM   38  O   UNL     1      44.832 -21.209   2.533  1.00  0.00    -0.353 OA
HETATM   39  C   UNL     1      44.282 -22.089   1.559  1.00  0.00     0.210 C 
ENDBRANCH  33  38
ENDBRANCH  29  30
ENDBRANCH   1  29
TORSDOF 8
ENDMDL
MODEL 3
REMARK VINA RESULT:      -8.4      2.973      8.882
REMARK  8 active torsions:
REMARK  status: ('A' for Active; 'I' for Inactive)
REMARK    1  A    between atoms: O_2  and  C_3 
REMARK    2  A    between atoms: C_4  and  O_5 
REMARK    3  A    between atoms: C_8  and  C_9 
REMARK    4  A    between atoms: C_9  and  N_10 
REMARK    5  A    between atoms: C_19  and  C_20 
REMARK    6  A    between atoms: C_20  and  N_21 
REMARK    7  A    between atoms: C_25  and  O_26 
REMARK    8  A    between atoms: C_25  and  C_27 
ROOT
HETATM    1  N   UNL     1      42.808 -16.507   7.322  1.00  0.00    -0.061 N 
HETATM    2  H   UNL     1      42.235 -16.084   8.062  1.00  0.00     0.280 HD
HETATM    3  C   UNL     1      41.798 -17.196   6.424  1.00  0.00     0.276 C 
HETATM    4  C   UNL     1      42.347 -17.780   5.151  1.00  0.00     0.002 A 
HETATM    5  C   UNL     1      43.312 -18.786   5.193  1.00  0.00     0.076 A 
HETATM    6  O   UNL     1      43.750 -19.292   6.384  1.00  0.00    -0.349 OA
HETATM    7  C   UNL     1      44.561 -18.351   7.100  1.00  0.00     0.203 C 
HETATM    8  C   UNL     1      43.716 -17.491   8.047  1.00  0.00     0.262 C 
HETATM    9  C   UNL     1      41.882 -17.354   3.892  1.00  0.00     0.020 A 
HETATM   10  C   UNL     1      42.406 -17.882   2.697  1.00  0.00    -0.032 A 
HETATM   11  C   UNL     1      43.366 -18.900   2.778  1.00  0.00     0.011 A 
HETATM   12  C   UNL     1      43.800 -19.363   4.023  1.00  0.00     0.038 A 
ENDROOT
BRANCH  10  13
HETATM   13  C   UNL     1      41.964 -17.338   1.359  1.00  0.00     0.273 C 
BRANCH  13  14
HETATM   14  N   UNL     1      41.441 -15.913   1.386  1.00  0.00    -0.067 N 
HETATM   15  H   UNL     1      41.726 -15.508   2.288  1.00  0.00     0.280 HD
HETATM   16  C   UNL     1      42.041 -15.056   0.296  1.00  0.00     0.238 C 
HETATM   17  C   UNL     1      41.459 -13.654   0.357  1.00  0.00     0.071 C 
HETATM   18  C   UNL     1      39.926 -13.661   0.187  1.00  0.00     0.089 C 
HETATM   19  C   UNL     1      39.375 -14.507   1.352  1.00  0.00     0.071 C 
HETATM   20  C   UNL     1      39.926 -15.923   1.356  1.00  0.00     0.238 C 
BRANCH  18  21
HETATM   21  O   UNL     1      39.490 -12.321   0.419  1.00  0.00    -0.385 OA
HETATM   22  H   UNL     1      39.513 -12.118   1.373  1.00  0.00     0.211 HD
ENDBRANCH  18  21
BRANCH  18  23
HETATM   23  C   UNL     1      39.472 -14.080  -1.207  1.00  0.00    -0.006 A 
HETATM   24  C   UNL     1      38.145 -13.989  -1.628  1.00  0.00     0.126 A 
HETATM   25  N   UNL     1      37.685 -14.416  -2.824  1.00  0.00    -0.272 NA
HETATM   26  C   UNL     1      38.588 -14.890  -3.703  1.00  0.00     0.116 A 
HETATM   27  C   UNL     1      39.939 -14.965  -3.426  1.00  0.00     0.020 A 
HETATM   28  C   UNL     1      40.380 -14.550  -2.170  1.00  0.00     0.013 A 
ENDBRANCH  18  23
ENDBRANCH  13  14
ENDBRANCH  10  13
BRANCH   1  29
HETATM   29  C   UNL     1      43.560 -15.339   6.713  1.00  0.00     0.274 C 
BRANCH  29  30
HETATM   30  C   UNL     1      42.751 -14.540   5.727  1.00  0.00    -0.030 A 
HETATM   31  C   UNL     1      41.416 -14.229   6.012  1.00  0.00     0.048 A 
HETATM   32  C   UNL     1      40.692 -13.367   5.188  1.00  0.00     0.102 A 
HETATM   33  C   UNL     1      41.275 -12.818   4.038  1.00  0.00     0.101 A 
HETATM   34  C   UNL     1      42.585 -13.181   3.714  1.00  0.00     0.040 A 
HETATM   35  C   UNL     1      43.321 -14.032   4.553  1.00  0.00     0.012 A 
BRANCH  32  36
HETATM   36  O   UNL     1      39.452 -12.996   5.645  1.00  0.00    -0.353 OA
HETATM   37  C   UNL     1      39.555 -12.173   6.810  1.00  0.00     0.210 C 
ENDBRANCH  32  36
BRANCH  33  38
HETATM   38  O   UNL     1      40.523 -11.915   3.338  1.00  0.00    -0.353 OA
HETATM   39  C   UNL     1      40.748 -10.534   3.602  1.00  0.00     0.210 C 
ENDBRANCH  33  38
ENDBRANCH  29  30
ENDBRANCH   1  29
TORSDOF 8
ENDMDL
MODEL 4
REMARK VINA RESULT:      -8.3      3.597      8.660
REMARK  8 active torsions:
REMARK  status: ('A' for Active; 'I' for Inactive)
REMARK    1  A    between atoms: O_2  and  C_3 
REMARK    2  A    between atoms: C_4  and  O_5 
REMARK    3  A    between atoms: C_8  and  C_9 
REMARK    4  A    between atoms: C_9  and  N_10 
REMARK    5  A    between atoms: C_19  and  C_20 
REMARK    6  A    between atoms: C_20  and  N_21 
REMARK    7  A    between atoms: C_25  and  O_26 
REMARK    8  A    between atoms: C_25  and  C_27 
ROOT
HETATM    1  N   UNL     1      39.440 -10.319   2.252  1.00  0.00    -0.061 N 
HETATM    2  H   UNL     1      39.133 -10.050   1.310  1.00  0.00     0.280 HD
HETATM    3  C   UNL     1      38.783 -11.667   2.481  1.00  0.00     0.276 C 
HETATM    4  C   UNL     1      39.186 -12.385   3.739  1.00  0.00     0.002 A 
HETATM    5  C   UNL     1      38.938 -11.816   4.989  1.00  0.00     0.076 A 
HETATM    6  O   UNL     1      38.291 -10.619   5.100  1.00  0.00    -0.349 OA
HETATM    7  C   UNL     1      39.105  -9.525   4.656  1.00  0.00     0.203 C 
HETATM    8  C   UNL     1      38.887  -9.235   3.167  1.00  0.00     0.262 C 
HETATM    9  C   UNL     1      39.790 -13.657   3.694  1.00  0.00     0.020 A 
HETATM   10  C   UNL     1      40.188 -14.324   4.868  1.00  0.00    -0.032 A 
HETATM   11  C   UNL     1      39.911 -13.727   6.106  1.00  0.00     0.011 A 
HETATM   12  C   UNL     1      39.270 -12.487   6.163  1.00  0.00     0.038 A 
ENDROOT
BRANCH  10  13
HETATM   13  C   UNL     1      40.924 -15.642   4.789  1.00  0.00     0.273 C 
BRANCH  13  14
HETATM   14  N   UNL     1      41.605 -15.918   3.462  1.00  0.00    -0.067 N 
HETATM   15  H   UNL     1      41.367 -15.137   2.836  1.00  0.00     0.280 HD
HETATM   16  C   UNL     1      43.111 -15.957   3.581  1.00  0.00     0.238 C 
HETATM   17  C   UNL     1      43.732 -16.264   2.230  1.00  0.00     0.071 C 
HETATM   18  C   UNL     1      43.251 -17.619   1.672  1.00  0.00     0.089 C 
HETATM   19  C   UNL     1      41.721 -17.497   1.527  1.00  0.00     0.071 C 
HETATM   20  C   UNL     1      41.035 -17.179   2.846  1.00  0.00     0.238 C 
BRANCH  18  21
HETATM   21  O   UNL     1      43.774 -17.717   0.347  1.00  0.00    -0.385 OA
HETATM   22  H   UNL     1      44.262 -18.556   0.237  1.00  0.00     0.211 HD
ENDBRANCH  18  21
BRANCH  18  23
HETATM   23  C   UNL     1      43.746 -18.817   2.474  1.00  0.00    -0.006 A 
HETATM   24  C   UNL     1      44.172 -18.715   3.799  1.00  0.00     0.126 A 
HETATM   25  N   UNL     1      44.686 -19.733   4.523  1.00  0.00    -0.272 NA
HETATM   26  C   UNL     1      44.715 -20.950   3.949  1.00  0.00     0.116 A 
HETATM   27  C   UNL     1      44.258 -21.189   2.668  1.00  0.00     0.020 A 
HETATM   28  C   UNL     1      43.765 -20.113   1.932  1.00  0.00     0.013 A 
ENDBRANCH  18  23
ENDBRANCH  13  14
ENDBRANCH  10  13
BRANCH   1  29
HETATM   29  C   UNL     1      40.955 -10.317   2.171  1.00  0.00     0.274 C 
BRANCH  29  30
HETATM   30  C   UNL     1      41.499 -10.909   0.900  1.00  0.00    -0.030 A 
HETATM   31  C   UNL     1      41.623 -12.299   0.777  1.00  0.00     0.048 A 
HETATM   32  C   UNL     1      41.983 -12.879  -0.440  1.00  0.00     0.102 A 
HETATM   33  C   UNL     1      42.259 -12.082  -1.559  1.00  0.00     0.101 A 
HETATM   34  C   UNL     1      42.202 -10.692  -1.421  1.00  0.00     0.040 A 
HETATM   35  C   UNL     1      41.822 -10.109  -0.203  1.00  0.00     0.012 A 
BRANCH  32  36
HETATM   36  O   UNL     1      41.913 -14.248  -0.499  1.00  0.00    -0.353 OA
HETATM   37  C   UNL     1      40.555 -14.695  -0.558  1.00  0.00     0.210 C 
ENDBRANCH  32  36
BRANCH  33  38
HETATM   38  O   UNL     1      42.516 -12.737  -2.732  1.00  0.00    -0.353 OA
HETATM   39  C   UNL     1      41.607 -12.530  -3.808  1.00  0.00     0.210 C 
ENDBRANCH  33  38
ENDBRANCH  29  30
ENDBRANCH   1  29
TORSDOF 8
ENDMDL
MODEL 5
REMARK VINA RESULT:      -8.3      3.766      8.339
REMARK  8 active torsions:
REMARK  status: ('A' for Active; 'I' for Inactive)
REMARK    1  A    between atoms: O_2  and  C_3 
REMARK    2  A    between atoms: C_4  and  O_5 
REMARK    3  A    between atoms: C_8  and  C_9 
REMARK    4  A    between atoms: C_9  and  N_10 
REMARK    5  A    between atoms: C_19  and  C_20 
REMARK    6  A    between atoms: C_20  and  N_21 
REMARK    7  A    between atoms: C_25  and  O_26 
REMARK    8  A    between atoms: C_25  and  C_27 
ROOT
HETATM    1  N   UNL     1      42.324 -15.568   4.920  1.00  0.00    -0.061 N 
HETATM    2  H   UNL     1      43.196 -16.035   5.194  1.00  0.00     0.280 HD
HETATM    3  C   UNL     1      42.746 -14.141   4.626  1.00  0.00     0.276 C 
HETATM    4  C   UNL     1      41.684 -13.251   4.044  1.00  0.00     0.002 A 
HETATM    5  C   UNL     1      40.517 -12.981   4.760  1.00  0.00     0.076 A 
HETATM    6  O   UNL     1      40.332 -13.482   6.017  1.00  0.00    -0.349 OA
HETATM    7  C   UNL     1      40.110 -14.898   6.003  1.00  0.00     0.203 C 
HETATM    8  C   UNL     1      41.425 -15.672   6.145  1.00  0.00     0.262 C 
HETATM    9  C   UNL     1      41.848 -12.644   2.784  1.00  0.00     0.020 A 
HETATM   10  C   UNL     1      40.847 -11.826   2.226  1.00  0.00    -0.032 A 
HETATM   11  C   UNL     1      39.694 -11.567   2.979  1.00  0.00     0.011 A 
HETATM   12  C   UNL     1      39.542 -12.126   4.251  1.00  0.00     0.038 A 
ENDROOT
BRANCH  10  13
HETATM   13  C   UNL     1      41.003 -11.267   0.830  1.00  0.00     0.273 C 
BRANCH  13  14
HETATM   14  N   UNL     1      41.170 -12.307  -0.262  1.00  0.00    -0.067 N 
HETATM   15  H   UNL     1      41.251 -13.220   0.204  1.00  0.00     0.280 HD
HETATM   16  C   UNL     1      39.975 -12.376  -1.184  1.00  0.00     0.238 C 
HETATM   17  C   UNL     1      40.213 -13.411  -2.270  1.00  0.00     0.071 C 
HETATM   18  C   UNL     1      41.461 -13.081  -3.113  1.00  0.00     0.089 C 
HETATM   19  C   UNL     1      42.647 -13.075  -2.127  1.00  0.00     0.071 C 
HETATM   20  C   UNL     1      42.469 -12.065  -1.006  1.00  0.00     0.238 C 
BRANCH  18  21
HETATM   21  O   UNL     1      41.665 -14.194  -3.982  1.00  0.00    -0.385 OA
HETATM   22  H   UNL     1      42.598 -14.235  -4.269  1.00  0.00     0.211 HD
ENDBRANCH  18  21
BRANCH  18  23
HETATM   23  C   UNL     1      41.304 -11.827  -3.966  1.00  0.00    -0.006 A 
HETATM   24  C   UNL     1      40.060 -11.319  -4.342  1.00  0.00     0.126 A 
HETATM   25  N   UNL     1      39.875 -10.258  -5.155  1.00  0.00    -0.272 NA
HETATM   26  C   UNL     1      40.971  -9.594  -5.568  1.00  0.00     0.116 A 
HETATM   27  C   UNL     1      42.253  -9.960  -5.207  1.00  0.00     0.020 A 
HETATM   28  C   UNL     1      42.415 -11.081  -4.394  1.00  0.00     0.013 A 
ENDBRANCH  18  23
ENDBRANCH  13  14
ENDBRANCH  10  13
BRANCH   1  29
HETATM   29  C   UNL     1      41.818 -16.375   3.739  1.00  0.00     0.274 C 
BRANCH  29  30
HETATM   30  C   UNL     1      42.714 -17.521   3.355  1.00  0.00    -0.030 A 
HETATM   31  C   UNL     1      43.507 -18.141   4.328  1.00  0.00     0.048 A 
HETATM   32  C   UNL     1      44.231 -19.296   4.029  1.00  0.00     0.102 A 
HETATM   33  C   UNL     1      44.205 -19.844   2.740  1.00  0.00     0.101 A 
HETATM   34  C   UNL     1      43.468 -19.188   1.749  1.00  0.00     0.040 A 
HETATM   35  C   UNL     1      42.725 -18.038   2.053  1.00  0.00     0.012 A 
BRANCH  32  36
HETATM   36  O   UNL     1      44.840 -19.917   5.091  1.00  0.00    -0.353 OA
HETATM   37  C   UNL     1      43.962 -19.993   6.218  1.00  0.00     0.210 C 
ENDBRANCH  32  36
BRANCH  33  38
HETATM   38  O   UNL     1      44.872 -21.025   2.560  1.00  0.00    -0.353 OA
HETATM   39  C   UNL     1      44.254 -22.002   1.728  1.00  0.00     0.210 C 
ENDBRANCH  33  38
ENDBRANCH  29  30
ENDBRANCH   1  29
TORSDOF 8
ENDMDL
MODEL 6
REMARK VINA RESULT:      -8.2      3.438      8.605
REMARK  8 active torsions:
REMARK  status: ('A' for Active; 'I' for Inactive)
REMARK    1  A    between atoms: O_2  and  C_3 
REMARK    2  A    between atoms: C_4  and  O_5 
REMARK    3  A    between atoms: C_8  and  C_9 
REMARK    4  A    between atoms: C_9  and  N_10 
REMARK    5  A    between atoms: C_19  and  C_20 
REMARK    6  A    between atoms: C_20  and  N_21 
REMARK    7  A    between atoms: C_25  and  O_26 
REMARK    8  A    between atoms: C_25  and  C_27 
ROOT
HETATM    1  N   UNL     1      39.221 -10.151   2.424  1.00  0.00    -0.061 N 
HETATM    2  H   UNL     1      38.720  -9.864   1.576  1.00  0.00     0.280 HD
HETATM    3  C   UNL     1      38.491 -11.401   2.879  1.00  0.00     0.276 C 
HETATM    4  C   UNL     1      39.113 -12.138   4.033  1.00  0.00     0.002 A 
HETATM    5  C   UNL     1      39.258 -11.516   5.274  1.00  0.00     0.076 A 
HETATM    6  O   UNL     1      38.805 -10.245   5.481  1.00  0.00    -0.349 OA
HETATM    7  C   UNL     1      39.601  -9.272   4.792  1.00  0.00     0.203 C 
HETATM    8  C   UNL     1      39.049  -8.987   3.391  1.00  0.00     0.262 C 
HETATM    9  C   UNL     1      39.533 -13.476   3.904  1.00  0.00     0.020 A 
HETATM   10  C   UNL     1      40.134 -14.164   4.975  1.00  0.00    -0.032 A 
HETATM   11  C   UNL     1      40.252 -13.512   6.210  1.00  0.00     0.011 A 
HETATM   12  C   UNL     1      39.796 -12.200   6.362  1.00  0.00     0.038 A 
ENDROOT
BRANCH  10  13
HETATM   13  C   UNL     1      40.667 -15.565   4.783  1.00  0.00     0.273 C 
BRANCH  13  14
HETATM   14  N   UNL     1      41.394 -15.801   3.472  1.00  0.00    -0.067 N 
HETATM   15  H   UNL     1      41.145 -15.023   2.848  1.00  0.00     0.280 HD
HETATM   16  C   UNL     1      42.897 -15.788   3.633  1.00  0.00     0.238 C 
HETATM   17  C   UNL     1      43.565 -16.058   2.296  1.00  0.00     0.071 C 
HETATM   18  C   UNL     1      43.149 -17.422   1.711  1.00  0.00     0.089 C 
HETATM   19  C   UNL     1      41.619 -17.353   1.526  1.00  0.00     0.071 C 
HETATM   20  C   UNL     1      40.886 -17.076   2.828  1.00  0.00     0.238 C 
BRANCH  18  21
HETATM   21  O   UNL     1      43.711 -17.487   0.400  1.00  0.00    -0.385 OA
HETATM   22  H   UNL     1      44.609 -17.868   0.435  1.00  0.00     0.211 HD
ENDBRANCH  18  21
BRANCH  18  23
HETATM   23  C   UNL     1      43.665 -18.611   2.515  1.00  0.00    -0.006 A 
HETATM   24  C   UNL     1      44.102 -18.498   3.835  1.00  0.00     0.126 A 
HETATM   25  N   UNL     1      44.634 -19.506   4.559  1.00  0.00    -0.272 NA
HETATM   26  C   UNL     1      44.671 -20.726   3.990  1.00  0.00     0.116 A 
HETATM   27  C   UNL     1      44.205 -20.975   2.715  1.00  0.00     0.020 A 
HETATM   28  C   UNL     1      43.693 -19.909   1.978  1.00  0.00     0.013 A 
ENDBRANCH  18  23
ENDBRANCH  13  14
ENDBRANCH  10  13
BRANCH   1  29
HETATM   29  C   UNL     1      40.656 -10.341   1.969  1.00  0.00     0.274 C 
BRANCH  29  30
HETATM   30  C   UNL     1      40.834 -11.438   0.955  1.00  0.00    -0.030 A 
HETATM   31  C   UNL     1      40.261 -11.310  -0.317  1.00  0.00     0.048 A 
HETATM   32  C   UNL     1      40.535 -12.240  -1.320  1.00  0.00     0.102 A 
HETATM   33  C   UNL     1      41.365 -13.341  -1.069  1.00  0.00     0.101 A 
HETATM   34  C   UNL     1      41.883 -13.508   0.219  1.00  0.00     0.040 A 
HETATM   35  C   UNL     1      41.624 -12.563   1.223  1.00  0.00     0.012 A 
BRANCH  32  36
HETATM   36  O   UNL     1      40.060 -11.934  -2.571  1.00  0.00    -0.353 OA
HETATM   37  C   UNL     1      38.693 -12.331  -2.717  1.00  0.00     0.210 C 
ENDBRANCH  32  36
BRANCH  33  38
HETATM   38  O   UNL     1      41.650 -14.152  -2.133  1.00  0.00    -0.353 OA
HETATM   39  C   UNL     1      40.948 -15.389  -2.216  1.00  0.00     0.210 C 
ENDBRANCH  33  38
ENDBRANCH  29  30
ENDBRANCH   1  29
TORSDOF 8
ENDMDL
MODEL 7
REMARK VINA RESULT:      -8.2      3.624      7.289
REMARK  8 active torsions:
REMARK  status: ('A' for Active; 'I' for Inactive)
REMARK    1  A    between atoms: O_2  and  C_3 
REMARK    2  A    between atoms: C_4  and  O_5 
REMARK    3  A    between atoms: C_8  and  C_9 
REMARK    4  A    between atoms: C_9  and  N_10 
REMARK    5  A    between atoms: C_19  and  C_20 
REMARK    6  A    between atoms: C_20  and  N_21 
REMARK    7  A    between atoms: C_25  and  O_26 
REMARK    8  A    between atoms: C_25  and  C_27 
ROOT
HETATM    1  N   UNL     1      43.550 -14.917   4.099  1.00  0.00    -0.061 N 
HETATM    2  H   UNL     1      44.496 -15.259   3.891  1.00  0.00     0.280 HD
HETATM    3  C   UNL     1      43.117 -14.228   2.819  1.00  0.00     0.276 C 
HETATM    4  C   UNL     1      41.689 -13.758   2.779  1.00  0.00     0.002 A 
HETATM    5  C   UNL     1      41.232 -12.809   3.694  1.00  0.00     0.076 A 
HETATM    6  O   UNL     1      42.075 -12.256   4.614  1.00  0.00    -0.349 OA
HETATM    7  C   UNL     1      42.450 -13.195   5.631  1.00  0.00     0.203 C 
HETATM    8  C   UNL     1      43.734 -13.943   5.255  1.00  0.00     0.262 C 
HETATM    9  C   UNL     1      40.789 -14.235   1.807  1.00  0.00     0.020 A 
HETATM   10  C   UNL     1      39.446 -13.814   1.778  1.00  0.00    -0.032 A 
HETATM   11  C   UNL     1      39.025 -12.850   2.704  1.00  0.00     0.011 A 
HETATM   12  C   UNL     1      39.923 -12.335   3.644  1.00  0.00     0.038 A 
ENDROOT
BRANCH  10  13
HETATM   13  C   UNL     1      38.475 -14.415   0.788  1.00  0.00     0.273 C 
BRANCH  13  14
HETATM   14  N   UNL     1      38.674 -13.978  -0.651  1.00  0.00    -0.067 N 
HETATM   15  H   UNL     1      37.976 -14.481  -1.215  1.00  0.00     0.280 HD
HETATM   16  C   UNL     1      38.430 -12.499  -0.846  1.00  0.00     0.238 C 
HETATM   17  C   UNL     1      38.672 -12.119  -2.297  1.00  0.00     0.071 C 
HETATM   18  C   UNL     1      40.113 -12.440  -2.742  1.00  0.00     0.089 C 
HETATM   19  C   UNL     1      40.281 -13.963  -2.566  1.00  0.00     0.071 C 
HETATM   20  C   UNL     1      40.042 -14.414  -1.134  1.00  0.00     0.238 C 
BRANCH  18  21
HETATM   21  O   UNL     1      40.167 -12.188  -4.146  1.00  0.00    -0.385 OA
HETATM   22  H   UNL     1      39.279 -12.284  -4.542  1.00  0.00     0.211 HD
ENDBRANCH  18  21
BRANCH  18  23
HETATM   23  C   UNL     1      41.167 -11.576  -2.057  1.00  0.00    -0.006 A 
HETATM   24  C   UNL     1      42.421 -12.063  -1.689  1.00  0.00     0.126 A 
HETATM   25  N   UNL     1      43.355 -11.357  -1.017  1.00  0.00    -0.272 NA
HETATM   26  C   UNL     1      43.086 -10.064  -0.755  1.00  0.00     0.116 A 
HETATM   27  C   UNL     1      41.907  -9.451  -1.130  1.00  0.00     0.020 A 
HETATM   28  C   UNL     1      40.947 -10.214  -1.792  1.00  0.00     0.013 A 
ENDBRANCH  18  23
ENDBRANCH  13  14
ENDBRANCH  10  13
BRANCH   1  29
HETATM   29  C   UNL     1      42.775 -16.162   4.486  1.00  0.00     0.274 C 
BRANCH  29  30
HETATM   30  C   UNL     1      43.390 -17.443   3.990  1.00  0.00    -0.030 A 
HETATM   31  C   UNL     1      43.917 -18.362   4.905  1.00  0.00     0.048 A 
HETATM   32  C   UNL     1      44.356 -19.618   4.483  1.00  0.00     0.102 A 
HETATM   33  C   UNL     1      44.309 -19.975   3.129  1.00  0.00     0.101 A 
HETATM   34  C   UNL     1      43.848 -19.033   2.205  1.00  0.00     0.040 A 
HETATM   35  C   UNL     1      43.388 -17.778   2.630  1.00  0.00     0.012 A 
BRANCH  32  36
HETATM   36  O   UNL     1      44.696 -20.502   5.476  1.00  0.00    -0.353 OA
HETATM   37  C   UNL     1      43.821 -20.378   6.602  1.00  0.00     0.210 C 
ENDBRANCH  32  36
BRANCH  33  38
HETATM   38  O   UNL     1      44.676 -21.255   2.817  1.00  0.00    -0.353 OA
HETATM   39  C   UNL     1      44.049 -21.858   1.690  1.00  0.00     0.210 C 
ENDBRANCH  33  38
ENDBRANCH  29  30
ENDBRANCH   1  29
TORSDOF 8
ENDMDL
MODEL 8
REMARK VINA RESULT:      -8.1      3.641      7.680
REMARK  8 active torsions:
REMARK  status: ('A' for Active; 'I' for Inactive)
REMARK    1  A    between atoms: O_2  and  C_3 
REMARK    2  A    between atoms: C_4  and  O_5 
REMARK    3  A    between atoms: C_8  and  C_9 
REMARK    4  A    between atoms: C_9  and  N_10 
REMARK    5  A    between atoms: C_19  and  C_20 
REMARK    6  A    between atoms: C_20  and  N_21 
REMARK    7  A    between atoms: C_25  and  O_26 
REMARK    8  A    between atoms: C_25  and  C_27 
ROOT
HETATM    1  N   UNL     1      43.466 -14.949   4.528  1.00  0.00    -0.061 N 
HETATM    2  H   UNL     1      44.389 -15.373   4.680  1.00  0.00     0.280 HD
HETATM    3  C   UNL     1      43.570 -14.323   3.150  1.00  0.00     0.276 C 
HETATM    4  C   UNL     1      42.295 -13.754   2.593  1.00  0.00     0.002 A 
HETATM    5  C   UNL     1      41.639 -12.711   3.248  1.00  0.00     0.076 A 
HETATM    6  O   UNL     1      42.159 -12.157   4.383  1.00  0.00    -0.349 OA
HETATM    7  C   UNL     1      42.069 -13.047   5.504  1.00  0.00     0.203 C 
HETATM    8  C   UNL     1      43.327 -13.912   5.634  1.00  0.00     0.262 C 
HETATM    9  C   UNL     1      41.748 -14.231   1.386  1.00  0.00     0.020 A 
HETATM   10  C   UNL     1      40.544 -13.716   0.870  1.00  0.00    -0.032 A 
HETATM   11  C   UNL     1      39.919 -12.660   1.549  1.00  0.00     0.011 A 
HETATM   12  C   UNL     1      40.479 -12.148   2.722  1.00  0.00     0.038 A 
ENDROOT
BRANCH  10  13
HETATM   13  C   UNL     1      39.924 -14.312  -0.373  1.00  0.00     0.273 C 
BRANCH  13  14
HETATM   14  N   UNL     1      40.525 -13.834  -1.682  1.00  0.00    -0.067 N 
HETATM   15  H   UNL     1      40.374 -14.583  -2.371  1.00  0.00     0.280 HD
HETATM   16  C   UNL     1      39.848 -12.591  -2.210  1.00  0.00     0.238 C 
HETATM   17  C   UNL     1      40.510 -12.147  -3.502  1.00  0.00     0.071 C 
HETATM   18  C   UNL     1      42.008 -11.840  -3.304  1.00  0.00     0.089 C 
HETATM   19  C   UNL     1      42.648 -13.155  -2.814  1.00  0.00     0.071 C 
HETATM   20  C   UNL     1      42.023 -13.663  -1.526  1.00  0.00     0.238 C 
BRANCH  18  21
HETATM   21  O   UNL     1      42.544 -11.590  -4.603  1.00  0.00    -0.385 OA
HETATM   22  H   UNL     1      42.074 -12.124  -5.272  1.00  0.00     0.211 HD
ENDBRANCH  18  21
BRANCH  18  23
HETATM   23  C   UNL     1      42.268 -10.615  -2.433  1.00  0.00    -0.006 A 
HETATM   24  C   UNL     1      41.449  -9.485  -2.455  1.00  0.00     0.126 A 
HETATM   25  N   UNL     1      41.681  -8.352  -1.758  1.00  0.00    -0.272 NA
HETATM   26  C   UNL     1      42.736  -8.343  -0.922  1.00  0.00     0.116 A 
HETATM   27  C   UNL     1      43.579  -9.425  -0.763  1.00  0.00     0.020 A 
HETATM   28  C   UNL     1      43.335 -10.569  -1.522  1.00  0.00     0.013 A 
ENDBRANCH  18  23
ENDBRANCH  13  14
ENDBRANCH  10  13
BRANCH   1  29
HETATM   29  C   UNL     1      42.492 -16.104   4.668  1.00  0.00     0.274 C 
BRANCH  29  30
HETATM   30  C   UNL     1      43.153 -17.453   4.747  1.00  0.00    -0.030 A 
HETATM   31  C   UNL     1      43.394 -18.181   3.575  1.00  0.00     0.048 A 
HETATM   32  C   UNL     1      44.136 -19.361   3.607  1.00  0.00     0.102 A 
HETATM   33  C   UNL     1      44.632 -19.863   4.818  1.00  0.00     0.101 A 
HETATM   34  C   UNL     1      44.335 -19.175   5.998  1.00  0.00     0.040 A 
HETATM   35  C   UNL     1      43.606 -17.978   5.965  1.00  0.00     0.012 A 
BRANCH  32  36
HETATM   36  O   UNL     1      44.456 -19.906   2.388  1.00  0.00    -0.353 OA
HETATM   37  C   UNL     1      43.392 -20.723   1.891  1.00  0.00     0.210 C 
ENDBRANCH  32  36
BRANCH  33  38
HETATM   38  O   UNL     1      45.423 -20.976   4.745  1.00  0.00    -0.353 OA
HETATM   39  C   UNL     1      44.822 -22.225   5.071  1.00  0.00     0.210 C 
ENDBRANCH  33  38
ENDBRANCH  29  30
ENDBRANCH   1  29
TORSDOF 8
ENDMDL
MODEL 9
REMARK VINA RESULT:      -8.0      4.323      8.009
REMARK  8 active torsions:
REMARK  status: ('A' for Active; 'I' for Inactive)
REMARK    1  A    between atoms: O_2  and  C_3 
REMARK    2  A    between atoms: C_4  and  O_5 
REMARK    3  A    between atoms: C_8  and  C_9 
REMARK    4  A    between atoms: C_9  and  N_10 
REMARK    5  A    between atoms: C_19  and  C_20 
REMARK    6  A    between atoms: C_20  and  N_21 
REMARK    7  A    between atoms: C_25  and  O_26 
REMARK    8  A    between atoms: C_25  and  C_27 
ROOT
HETATM    1  N   UNL     1      41.676 -15.611   4.013  1.00  0.00    -0.061 N 
HETATM    2  H   UNL     1      42.012 -15.804   4.963  1.00  0.00     0.280 HD
HETATM    3  C   UNL     1      41.003 -14.256   4.128  1.00  0.00     0.276 C 
HETATM    4  C   UNL     1      40.546 -13.641   2.835  1.00  0.00     0.002 A 
HETATM    5  C   UNL     1      39.591 -14.283   2.045  1.00  0.00     0.076 A 
HETATM    6  O   UNL     1      39.022 -15.457   2.446  1.00  0.00    -0.349 OA
HETATM    7  C   UNL     1      39.948 -16.550   2.385  1.00  0.00     0.203 C 
HETATM    8  C   UNL     1      40.689 -16.731   3.714  1.00  0.00     0.262 C 
HETATM    9  C   UNL     1      41.040 -12.395   2.402  1.00  0.00     0.020 A 
HETATM   10  C   UNL     1      40.629 -11.824   1.182  1.00  0.00    -0.032 A 
HETATM   11  C   UNL     1      39.659 -12.491   0.422  1.00  0.00     0.011 A 
HETATM   12  C   UNL     1      39.128 -13.706   0.864  1.00  0.00     0.038 A 
ENDROOT
BRANCH  10  13
HETATM   13  C   UNL     1      41.248 -10.535   0.692  1.00  0.00     0.273 C 
BRANCH  13  14
HETATM   14  N   UNL     1      41.803 -10.586  -0.719  1.00  0.00    -0.067 N 
HETATM   15  H   UNL     1      42.452  -9.794  -0.814  1.00  0.00     0.280 HD
HETATM   16  C   UNL     1      42.589 -11.848  -0.987  1.00  0.00     0.238 C 
HETATM   17  C   UNL     1      43.092 -11.854  -2.420  1.00  0.00     0.071 C 
HETATM   18  C   UNL     1      41.935 -11.774  -3.436  1.00  0.00     0.089 C 
HETATM   19  C   UNL     1      41.206 -10.447  -3.143  1.00  0.00     0.071 C 
HETATM   20  C   UNL     1      40.683 -10.371  -1.718  1.00  0.00     0.238 C 
BRANCH  18  21
HETATM   21  O   UNL     1      42.536 -11.629  -4.722  1.00  0.00    -0.385 OA
HETATM   22  H   UNL     1      41.967 -11.090  -5.304  1.00  0.00     0.211 HD
ENDBRANCH  18  21
BRANCH  18  23
HETATM   23  C   UNL     1      41.056 -13.021  -3.454  1.00  0.00    -0.006 A 
HETATM   24  C   UNL     1      41.579 -14.314  -3.435  1.00  0.00     0.126 A 
HETATM   25  N   UNL     1      40.844 -15.443  -3.525  1.00  0.00    -0.272 NA
HETATM   26  C   UNL     1      39.505 -15.311  -3.554  1.00  0.00     0.116 A 
HETATM   27  C   UNL     1      38.869 -14.086  -3.510  1.00  0.00     0.020 A 
HETATM   28  C   UNL     1      39.654 -12.936  -3.452  1.00  0.00     0.013 A 
ENDBRANCH  18  23
ENDBRANCH  13  14
ENDBRANCH  10  13
BRANCH   1  29
HETATM   29  C   UNL     1      42.924 -15.669   3.152  1.00  0.00     0.274 C 
BRANCH  29  30
HETATM   30  C   UNL     1      43.492 -17.053   2.995  1.00  0.00    -0.030 A 
HETATM   31  C   UNL     1      43.879 -17.779   4.129  1.00  0.00     0.048 A 
HETATM   32  C   UNL     1      44.267 -19.115   4.023  1.00  0.00     0.102 A 
HETATM   33  C   UNL     1      44.310 -19.751   2.775  1.00  0.00     0.101 A 
HETATM   34  C   UNL     1      43.992 -19.009   1.634  1.00  0.00     0.040 A 
HETATM   35  C   UNL     1      43.581 -17.672   1.742  1.00  0.00     0.012 A 
BRANCH  32  36
HETATM   36  O   UNL     1      44.464 -19.781   5.207  1.00  0.00    -0.353 OA
HETATM   37  C   UNL     1      44.493 -18.873   6.312  1.00  0.00     0.210 C 
ENDBRANCH  32  36
BRANCH  33  38
HETATM   38  O   UNL     1      44.617 -21.084   2.774  1.00  0.00    -0.353 OA
HETATM   39  C   UNL     1      44.129 -21.865   1.688  1.00  0.00     0.210 C 
ENDBRANCH  33  38
ENDBRANCH  29  30
ENDBRANCH   1  29
TORSDOF 8
ENDMDL
MODEL 10
REMARK VINA RESULT:      -7.9      2.721      8.920
REMARK  8 active torsions:
REMARK  status: ('A' for Active; 'I' for Inactive)
REMARK    1  A    between atoms: O_2  and  C_3 
REMARK    2  A    between atoms: C_4  and  O_5 
REMARK    3  A    between atoms: C_8  and  C_9 
REMARK    4  A    between atoms: C_9  and  N_10 
REMARK    5  A    between atoms: C_19  and  C_20 
REMARK    6  A    between atoms: C_20  and  N_21 
REMARK    7  A    between atoms: C_25  and  O_26 
REMARK    8  A    between atoms: C_25  and  C_27 
ROOT
HETATM    1  N   UNL     1      41.869 -15.702   6.310  1.00  0.00    -0.061 N 
HETATM    2  H   UNL     1      41.217 -15.455   7.064  1.00  0.00     0.280 HD
HETATM    3  C   UNL     1      41.086 -16.677   5.451  1.00  0.00     0.276 C 
HETATM    4  C   UNL     1      41.748 -17.095   4.167  1.00  0.00     0.002 A 
HETATM    5  C   UNL     1      42.970 -17.768   4.187  1.00  0.00     0.076 A 
HETATM    6  O   UNL     1      43.571 -18.098   5.368  1.00  0.00    -0.349 OA
HETATM    7  C   UNL     1      44.084 -16.946   6.050  1.00  0.00     0.203 C 
HETATM    8  C   UNL     1      43.048 -16.359   7.015  1.00  0.00     0.262 C 
HETATM    9  C   UNL     1      41.143 -16.849   2.919  1.00  0.00     0.020 A 
HETATM   10  C   UNL     1      41.768 -17.220   1.713  1.00  0.00    -0.032 A 
HETATM   11  C   UNL     1      42.989 -17.905   1.773  1.00  0.00     0.011 A 
HETATM   12  C   UNL     1      43.575 -18.196   3.008  1.00  0.00     0.038 A 
ENDROOT
BRANCH  10  13
HETATM   13  C   UNL     1      41.147 -16.857   0.384  1.00  0.00     0.273 C 
BRANCH  13  14
HETATM   14  N   UNL     1      41.674 -15.579  -0.243  1.00  0.00    -0.067 N 
HETATM   15  H   UNL     1      42.682 -15.715  -0.396  1.00  0.00     0.280 HD
HETATM   16  C   UNL     1      41.048 -15.293  -1.588  1.00  0.00     0.238 C 
HETATM   17  C   UNL     1      41.593 -13.991  -2.149  1.00  0.00     0.071 C 
HETATM   18  C   UNL     1      41.307 -12.799  -1.214  1.00  0.00     0.089 C 
HETATM   19  C   UNL     1      42.011 -13.129   0.117  1.00  0.00     0.071 C 
HETATM   20  C   UNL     1      41.518 -14.429   0.731  1.00  0.00     0.238 C 
BRANCH  18  21
HETATM   21  O   UNL     1      41.997 -11.679  -1.769  1.00  0.00    -0.385 OA
HETATM   22  H   UNL     1      42.385 -11.133  -1.057  1.00  0.00     0.211 HD
ENDBRANCH  18  21
BRANCH  18  23
HETATM   23  C   UNL     1      39.827 -12.449  -1.111  1.00  0.00    -0.006 A 
HETATM   24  C   UNL     1      39.249 -11.944   0.055  1.00  0.00     0.126 A 
HETATM   25  N   UNL     1      37.933 -11.689   0.214  1.00  0.00    -0.272 NA
HETATM   26  C   UNL     1      37.133 -11.862  -0.855  1.00  0.00     0.116 A 
HETATM   27  C   UNL     1      37.600 -12.291  -2.081  1.00  0.00     0.020 A 
HETATM   28  C   UNL     1      38.959 -12.579  -2.207  1.00  0.00     0.013 A 
ENDBRANCH  18  23
ENDBRANCH  13  14
ENDBRANCH  10  13
BRANCH   1  29
HETATM   29  C   UNL     1      42.223 -14.375   5.666  1.00  0.00     0.274 C 
BRANCH  29  30
HETATM   30  C   UNL     1      41.031 -13.512   5.354  1.00  0.00    -0.030 A 
HETATM   31  C   UNL     1      40.449 -12.736   6.364  1.00  0.00     0.048 A 
HETATM   32  C   UNL     1      39.441 -11.817   6.069  1.00  0.00     0.102 A 
HETATM   33  C   UNL     1      38.966 -11.673   4.758  1.00  0.00     0.101 A 
HETATM   34  C   UNL     1      39.497 -12.495   3.760  1.00  0.00     0.040 A 
HETATM   35  C   UNL     1      40.524 -13.405   4.052  1.00  0.00     0.012 A 
BRANCH  32  36
HETATM   36  O   UNL     1      39.058 -10.992   7.096  1.00  0.00    -0.353 OA
HETATM   37  C   UNL     1      39.307 -11.599   8.368  1.00  0.00     0.210 C 
ENDBRANCH  32  36
BRANCH  33  38
HETATM   38  O   UNL     1      38.041 -10.689   4.545  1.00  0.00    -0.353 OA
HETATM   39  C   UNL     1      38.530  -9.369   4.327  1.00  0.00     0.210 C 
ENDBRANCH  33  38
ENDBRANCH  29  30
ENDBRANCH   1  29
TORSDOF 8
ENDMDL
