MODEL 1
REMARK VINA RESULT:      -9.2      0.000      0.000
REMARK  3 active torsions:
REMARK  status: ('A' for Active; 'I' for Inactive)
REMARK    1  A    between atoms: N_7  and  N_8 
REMARK       I    between atoms: N_8  and  C_9 
REMARK    2  A    between atoms: C_9  and  C_10 
REMARK    3  A    between atoms: C_14  and  C_15 
ROOT
HETATM    1  N   UNL     1      42.862 -16.158   3.286  1.00  0.00    -0.241 N 
HETATM    2  C   UNL     1      43.102 -14.898   2.755  1.00  0.00     0.289 C 
HETATM    3  O   UNL     1      43.924 -14.100   3.194  1.00  0.00    -0.264 OA
HETATM    4  H   UNL     1      42.027 -16.648   3.008  1.00  0.00     0.192 HD
ENDROOT
BRANCH   2   5
HETATM    5  C   UNL     1      42.282 -14.566   1.616  1.00  0.00     0.121 A 
HETATM    6  N   UNL     1      42.048 -13.267   1.265  1.00  0.00    -0.272 N 
HETATM    7  H   UNL     1      42.398 -12.437   1.739  1.00  0.00     0.189 HD
HETATM    8  N   UNL     1      41.263 -13.121   0.188  1.00  0.00    -0.174 NA
HETATM    9  C   UNL     1      41.012 -14.374  -0.222  1.00  0.00     0.089 A 
HETATM   10  C   UNL     1      41.620 -15.311   0.661  1.00  0.00     0.071 A 
BRANCH   9  11
HETATM   11  C   UNL     1      40.214 -14.645  -1.422  1.00  0.00    -0.005 A 
HETATM   12  C   UNL     1      38.964 -14.033  -1.613  1.00  0.00     0.017 A 
HETATM   13  C   UNL     1      38.210 -14.302  -2.759  1.00  0.00     0.043 A 
HETATM   14  C   UNL     1      38.702 -15.183  -3.716  1.00  0.00     0.116 A 
HETATM   15  F   UNL     1      37.977 -15.438  -4.811  1.00  0.00    -0.206 F 
HETATM   16  C   UNL     1      39.934 -15.802  -3.547  1.00  0.00     0.043 A 
HETATM   17  C   UNL     1      40.686 -15.536  -2.401  1.00  0.00     0.017 A 
ENDBRANCH   9  11
ENDBRANCH   2   5
BRANCH   1  18
HETATM   18  N   UNL     1      43.511 -16.554   4.414  1.00  0.00    -0.165 NA
HETATM   19  C   UNL     1      43.932 -17.773   4.535  1.00  0.00     0.157 A 
HETATM   20  C   UNL     1      43.963 -18.940   3.637  1.00  0.00     0.027 A 
HETATM   21  C   UNL     1      44.546 -18.260   5.867  1.00  0.00     0.277 A 
HETATM   22  C   UNL     1      43.645 -19.120   2.302  1.00  0.00     0.016 A 
HETATM   23  C   UNL     1      44.472 -19.998   4.396  1.00  0.00     0.048 A 
HETATM   24  C   UNL     1      43.801 -20.401   1.760  1.00  0.00     0.001 A 
HETATM   25  C   UNL     1      44.286 -21.466   2.540  1.00  0.00     0.002 A 
HETATM   26  C   UNL     1      44.638 -21.267   3.877  1.00  0.00     0.030 A 
HETATM   27  N   UNL     1      44.801 -19.598   5.684  1.00  0.00    -0.321 N 
HETATM   28  H   UNL     1      45.213 -20.174   6.403  1.00  0.00     0.169 HD
HETATM   29  O   UNL     1      44.746 -17.596   6.860  1.00  0.00    -0.266 OA
ENDBRANCH   1  18
TORSDOF 3
ENDMDL
MODEL 2
REMARK VINA RESULT:      -9.0      5.577      8.654
REMARK  3 active torsions:
REMARK  status: ('A' for Active; 'I' for Inactive)
REMARK    1  A    between atoms: N_7  and  N_8 
REMARK       I    between atoms: N_8  and  C_9 
REMARK    2  A    between atoms: C_9  and  C_10 
REMARK    3  A    between atoms: C_14  and  C_15 
ROOT
HETATM    1  N   UNL     1      42.505 -13.143   6.354  1.00  0.00    -0.241 N 
HETATM    2  C   UNL     1      41.917 -13.966   5.402  1.00  0.00     0.289 C 
HETATM    3  O   UNL     1      40.903 -13.687   4.768  1.00  0.00    -0.264 OA
HETATM    4  H   UNL     1      43.191 -13.540   6.976  1.00  0.00     0.192 HD
ENDROOT
BRANCH   2   5
HETATM    5  C   UNL     1      42.591 -15.224   5.205  1.00  0.00     0.121 A 
HETATM    6  N   UNL     1      43.417 -15.744   6.161  1.00  0.00    -0.272 N 
HETATM    7  H   UNL     1      43.640 -15.328   7.062  1.00  0.00     0.189 HD
HETATM    8  N   UNL     1      43.974 -16.918   5.829  1.00  0.00    -0.174 NA
HETATM    9  C   UNL     1      43.455 -17.211   4.626  1.00  0.00     0.089 A 
HETATM   10  C   UNL     1      42.595 -16.163   4.192  1.00  0.00     0.071 A 
BRANCH   9  11
HETATM   11  C   UNL     1      43.783 -18.460   3.932  1.00  0.00    -0.005 A 
HETATM   12  C   UNL     1      44.556 -19.454   4.557  1.00  0.00     0.017 A 
HETATM   13  C   UNL     1      44.866 -20.639   3.883  1.00  0.00     0.043 A 
HETATM   14  C   UNL     1      44.406 -20.835   2.586  1.00  0.00     0.116 A 
HETATM   15  F   UNL     1      44.705 -21.971   1.945  1.00  0.00    -0.206 F 
HETATM   16  C   UNL     1      43.643 -19.866   1.947  1.00  0.00     0.043 A 
HETATM   17  C   UNL     1      43.335 -18.681   2.618  1.00  0.00     0.017 A 
ENDBRANCH   9  11
ENDBRANCH   2   5
BRANCH   1  18
HETATM   18  N   UNL     1      41.914 -11.965   6.692  1.00  0.00    -0.165 NA
HETATM   19  C   UNL     1      42.315 -11.304   7.731  1.00  0.00     0.157 A 
HETATM   20  C   UNL     1      43.415 -11.478   8.693  1.00  0.00     0.027 A 
HETATM   21  C   UNL     1      41.557 -10.039   8.193  1.00  0.00     0.277 A 
HETATM   22  C   UNL     1      44.481 -12.358   8.769  1.00  0.00     0.016 A 
HETATM   23  C   UNL     1      43.260 -10.466   9.645  1.00  0.00     0.048 A 
HETATM   24  C   UNL     1      45.359 -12.231   9.853  1.00  0.00     0.001 A 
HETATM   25  C   UNL     1      45.176 -11.228  10.821  1.00  0.00     0.002 A 
HETATM   26  C   UNL     1      44.119 -10.322  10.717  1.00  0.00     0.030 A 
HETATM   27  N   UNL     1      42.181  -9.642   9.351  1.00  0.00    -0.321 N 
HETATM   28  H   UNL     1      41.890  -8.829   9.873  1.00  0.00     0.169 HD
HETATM   29  O   UNL     1      40.607  -9.522   7.649  1.00  0.00    -0.266 OA
ENDBRANCH   1  18
TORSDOF 3
ENDMDL
MODEL 3
REMARK VINA RESULT:      -8.9      3.072      8.169
REMARK  3 active torsions:
REMARK  status: ('A' for Active; 'I' for Inactive)
REMARK    1  A    between atoms: N_7  and  N_8 
REMARK       I    between atoms: N_8  and  C_9 
REMARK    2  A    between atoms: C_9  and  C_10 
REMARK    3  A    between atoms: C_14  and  C_15 
ROOT
HETATM    1  N   UNL     1      42.480 -13.940   1.760  1.00  0.00    -0.241 N 
HETATM    2  C   UNL     1      43.059 -14.094   3.013  1.00  0.00     0.289 C 
HETATM    3  O   UNL     1      43.382 -13.169   3.752  1.00  0.00    -0.264 OA
HETATM    4  H   UNL     1      42.457 -14.733   1.139  1.00  0.00     0.192 HD
ENDROOT
BRANCH   2   5
HETATM    5  C   UNL     1      43.279 -15.464   3.402  1.00  0.00     0.121 A 
HETATM    6  N   UNL     1      43.096 -15.873   4.693  1.00  0.00    -0.272 N 
HETATM    7  H   UNL     1      42.807 -15.295   5.478  1.00  0.00     0.189 HD
HETATM    8  N   UNL     1      43.346 -17.175   4.898  1.00  0.00    -0.174 NA
HETATM    9  C   UNL     1      43.655 -17.657   3.685  1.00  0.00     0.089 A 
HETATM   10  C   UNL     1      43.641 -16.610   2.721  1.00  0.00     0.071 A 
BRANCH   9  11
HETATM   11  C   UNL     1      43.949 -19.078   3.475  1.00  0.00    -0.005 A 
HETATM   12  C   UNL     1      44.571 -19.844   4.476  1.00  0.00     0.017 A 
HETATM   13  C   UNL     1      44.850 -21.197   4.262  1.00  0.00     0.043 A 
HETATM   14  C   UNL     1      44.510 -21.788   3.051  1.00  0.00     0.116 A 
HETATM   15  F   UNL     1      44.780 -23.084   2.851  1.00  0.00    -0.206 F 
HETATM   16  C   UNL     1      43.897 -21.051   2.047  1.00  0.00     0.043 A 
HETATM   17  C   UNL     1      43.620 -19.698   2.257  1.00  0.00     0.017 A 
ENDBRANCH   9  11
ENDBRANCH   2   5
BRANCH   1  18
HETATM   18  N   UNL     1      42.300 -12.695   1.244  1.00  0.00    -0.165 NA
HETATM   19  C   UNL     1      41.915 -12.542   0.016  1.00  0.00     0.157 A 
HETATM   20  C   UNL     1      41.502 -13.469  -1.050  1.00  0.00     0.027 A 
HETATM   21  C   UNL     1      41.843 -11.131  -0.611  1.00  0.00     0.277 A 
HETATM   22  C   UNL     1      41.276 -14.834  -1.087  1.00  0.00     0.016 A 
HETATM   23  C   UNL     1      41.287 -12.682  -2.185  1.00  0.00     0.048 A 
HETATM   24  C   UNL     1      40.880 -15.399  -2.306  1.00  0.00     0.001 A 
HETATM   25  C   UNL     1      40.695 -14.601  -3.449  1.00  0.00     0.002 A 
HETATM   26  C   UNL     1      40.890 -13.220  -3.393  1.00  0.00     0.030 A 
HETATM   27  N   UNL     1      41.491 -11.333  -1.924  1.00  0.00    -0.321 N 
HETATM   28  H   UNL     1      41.368 -10.572  -2.575  1.00  0.00     0.169 HD
HETATM   29  O   UNL     1      42.063 -10.078  -0.056  1.00  0.00    -0.266 OA
ENDBRANCH   1  18
TORSDOF 3
ENDMDL
MODEL 4
REMARK VINA RESULT:      -8.9      3.509      8.420
REMARK  3 active torsions:
REMARK  status: ('A' for Active; 'I' for Inactive)
REMARK    1  A    between atoms: N_7  and  N_8 
REMARK       I    between atoms: N_8  and  C_9 
REMARK    2  A    between atoms: C_9  and  C_10 
REMARK    3  A    between atoms: C_14  and  C_15 
ROOT
HETATM    1  N   UNL     1      39.548 -15.423   1.522  1.00  0.00    -0.241 N 
HETATM    2  C   UNL     1      40.440 -15.126   2.545  1.00  0.00     0.289 C 
HETATM    3  O   UNL     1      40.398 -14.114   3.237  1.00  0.00    -0.264 OA
HETATM    4  H   UNL     1      39.787 -16.151   0.870  1.00  0.00     0.192 HD
ENDROOT
BRANCH   2   5
HETATM    5  C   UNL     1      41.468 -16.117   2.743  1.00  0.00     0.121 A 
HETATM    6  N   UNL     1      42.655 -15.798   3.338  1.00  0.00    -0.272 N 
HETATM    7  H   UNL     1      42.935 -14.884   3.684  1.00  0.00     0.189 HD
HETATM    8  N   UNL     1      43.510 -16.826   3.446  1.00  0.00    -0.174 NA
HETATM    9  C   UNL     1      42.841 -17.878   2.950  1.00  0.00     0.089 A 
HETATM   10  C   UNL     1      41.560 -17.470   2.482  1.00  0.00     0.071 A 
BRANCH   9  11
HETATM   11  C   UNL     1      43.425 -19.223   2.936  1.00  0.00    -0.005 A 
HETATM   12  C   UNL     1      44.240 -19.669   3.989  1.00  0.00     0.017 A 
HETATM   13  C   UNL     1      44.795 -20.952   3.963  1.00  0.00     0.043 A 
HETATM   14  C   UNL     1      44.539 -21.791   2.884  1.00  0.00     0.116 A 
HETATM   15  F   UNL     1      45.073 -23.018   2.862  1.00  0.00    -0.206 F 
HETATM   16  C   UNL     1      43.739 -21.371   1.829  1.00  0.00     0.043 A 
HETATM   17  C   UNL     1      43.186 -20.088   1.854  1.00  0.00     0.017 A 
ENDBRANCH   9  11
ENDBRANCH   2   5
BRANCH   1  18
HETATM   18  N   UNL     1      38.584 -14.525   1.182  1.00  0.00    -0.165 NA
HETATM   19  C   UNL     1      38.650 -13.885   0.058  1.00  0.00     0.157 A 
HETATM   20  C   UNL     1      39.553 -13.948  -1.104  1.00  0.00     0.027 A 
HETATM   21  C   UNL     1      37.633 -12.768  -0.268  1.00  0.00     0.277 A 
HETATM   22  C   UNL     1      40.596 -14.788  -1.453  1.00  0.00     0.016 A 
HETATM   23  C   UNL     1      39.142 -12.928  -1.968  1.00  0.00     0.048 A 
HETATM   24  C   UNL     1      41.251 -14.549  -2.667  1.00  0.00     0.001 A 
HETATM   25  C   UNL     1      40.848 -13.502  -3.515  1.00  0.00     0.002 A 
HETATM   26  C   UNL     1      39.772 -12.681  -3.171  1.00  0.00     0.030 A 
HETATM   27  N   UNL     1      38.036 -12.249  -1.475  1.00  0.00    -0.321 N 
HETATM   28  H   UNL     1      37.542 -11.497  -1.933  1.00  0.00     0.169 HD
HETATM   29  O   UNL     1      36.691 -12.425   0.409  1.00  0.00    -0.266 OA
ENDBRANCH   1  18
TORSDOF 3
ENDMDL
MODEL 5
REMARK VINA RESULT:      -8.8      2.016      2.392
REMARK  3 active torsions:
REMARK  status: ('A' for Active; 'I' for Inactive)
REMARK    1  A    between atoms: N_7  and  N_8 
REMARK       I    between atoms: N_8  and  C_9 
REMARK    2  A    between atoms: C_9  and  C_10 
REMARK    3  A    between atoms: C_14  and  C_15 
ROOT
HETATM    1  N   UNL     1      43.047 -16.929   4.013  1.00  0.00    -0.241 N 
HETATM    2  C   UNL     1      41.675 -16.857   3.805  1.00  0.00     0.289 C 
HETATM    3  O   UNL     1      40.828 -17.326   4.559  1.00  0.00    -0.264 OA
HETATM    4  H   UNL     1      43.663 -16.720   3.245  1.00  0.00     0.192 HD
ENDROOT
BRANCH   2   5
HETATM    5  C   UNL     1      41.293 -16.178   2.592  1.00  0.00     0.121 A 
HETATM    6  N   UNL     1      40.004 -15.781   2.377  1.00  0.00    -0.272 N 
HETATM    7  H   UNL     1      39.215 -15.913   3.005  1.00  0.00     0.189 HD
HETATM    8  N   UNL     1      39.806 -15.167   1.201  1.00  0.00    -0.174 NA
HETATM    9  C   UNL     1      41.023 -15.110   0.639  1.00  0.00     0.089 A 
HETATM   10  C   UNL     1      41.981 -15.750   1.474  1.00  0.00     0.071 A 
BRANCH   9  11
HETATM   11  C   UNL     1      41.241 -14.457  -0.656  1.00  0.00    -0.005 A 
HETATM   12  C   UNL     1      40.911 -15.106  -1.858  1.00  0.00     0.017 A 
HETATM   13  C   UNL     1      41.128 -14.476  -3.087  1.00  0.00     0.043 A 
HETATM   14  C   UNL     1      41.674 -13.198  -3.119  1.00  0.00     0.116 A 
HETATM   15  F   UNL     1      41.880 -12.598  -4.298  1.00  0.00    -0.206 F 
HETATM   16  C   UNL     1      42.009 -12.538  -1.944  1.00  0.00     0.043 A 
HETATM   17  C   UNL     1      41.796 -13.167  -0.716  1.00  0.00     0.017 A 
ENDBRANCH   9  11
ENDBRANCH   2   5
BRANCH   1  18
HETATM   18  N   UNL     1      43.535 -17.619   5.079  1.00  0.00    -0.165 NA
HETATM   19  C   UNL     1      43.901 -18.855   4.949  1.00  0.00     0.157 A 
HETATM   20  C   UNL     1      44.011 -19.775   3.805  1.00  0.00     0.027 A 
HETATM   21  C   UNL     1      44.326 -19.679   6.186  1.00  0.00     0.277 A 
HETATM   22  C   UNL     1      43.861 -19.614   2.439  1.00  0.00     0.016 A 
HETATM   23  C   UNL     1      44.388 -21.011   4.338  1.00  0.00     0.048 A 
HETATM   24  C   UNL     1      44.047 -20.737   1.623  1.00  0.00     0.001 A 
HETATM   25  C   UNL     1      44.396 -21.984   2.173  1.00  0.00     0.002 A 
HETATM   26  C   UNL     1      44.581 -22.128   3.550  1.00  0.00     0.030 A 
HETATM   27  N   UNL     1      44.562 -20.948   5.715  1.00  0.00    -0.321 N 
HETATM   28  H   UNL     1      44.861 -21.702   6.315  1.00  0.00     0.169 HD
HETATM   29  O   UNL     1      44.416 -19.283   7.326  1.00  0.00    -0.266 OA
ENDBRANCH   1  18
TORSDOF 3
ENDMDL
MODEL 6
REMARK VINA RESULT:      -8.8      3.943      8.098
REMARK  3 active torsions:
REMARK  status: ('A' for Active; 'I' for Inactive)
REMARK    1  A    between atoms: N_7  and  N_8 
REMARK       I    between atoms: N_8  and  C_9 
REMARK    2  A    between atoms: C_9  and  C_10 
REMARK    3  A    between atoms: C_14  and  C_15 
ROOT
HETATM    1  N   UNL     1      41.122 -14.495   5.946  1.00  0.00    -0.241 N 
HETATM    2  C   UNL     1      42.487 -14.464   5.690  1.00  0.00     0.289 C 
HETATM    3  O   UNL     1      43.162 -13.441   5.624  1.00  0.00    -0.264 OA
HETATM    4  H   UNL     1      40.616 -15.346   5.761  1.00  0.00     0.192 HD
ENDROOT
BRANCH   2   5
HETATM    5  C   UNL     1      43.083 -15.760   5.485  1.00  0.00     0.121 A 
HETATM    6  N   UNL     1      43.905 -16.319   6.423  1.00  0.00    -0.272 N 
HETATM    7  H   UNL     1      44.176 -15.910   7.314  1.00  0.00     0.189 HD
HETATM    8  N   UNL     1      44.385 -17.525   6.084  1.00  0.00    -0.174 NA
HETATM    9  C   UNL     1      43.818 -17.797   4.899  1.00  0.00     0.089 A 
HETATM   10  C   UNL     1      43.006 -16.704   4.480  1.00  0.00     0.071 A 
BRANCH   9  11
HETATM   11  C   UNL     1      44.055 -19.067   4.207  1.00  0.00    -0.005 A 
HETATM   12  C   UNL     1      44.626 -20.161   4.878  1.00  0.00     0.017 A 
HETATM   13  C   UNL     1      44.852 -21.366   4.206  1.00  0.00     0.043 A 
HETATM   14  C   UNL     1      44.509 -21.481   2.864  1.00  0.00     0.116 A 
HETATM   15  F   UNL     1      44.727 -22.637   2.225  1.00  0.00    -0.206 F 
HETATM   16  C   UNL     1      43.946 -20.413   2.179  1.00  0.00     0.043 A 
HETATM   17  C   UNL     1      43.723 -19.207   2.848  1.00  0.00     0.017 A 
ENDBRANCH   9  11
ENDBRANCH   2   5
BRANCH   1  18
HETATM   18  N   UNL     1      40.429 -13.332   6.073  1.00  0.00    -0.165 NA
HETATM   19  C   UNL     1      39.784 -12.839   5.064  1.00  0.00     0.157 A 
HETATM   20  C   UNL     1      39.514 -13.307   3.694  1.00  0.00     0.027 A 
HETATM   21  C   UNL     1      39.111 -11.451   5.167  1.00  0.00     0.277 A 
HETATM   22  C   UNL     1      39.768 -14.493   3.028  1.00  0.00     0.016 A 
HETATM   23  C   UNL     1      38.825 -12.269   3.060  1.00  0.00     0.048 A 
HETATM   24  C   UNL     1      39.359 -14.594   1.692  1.00  0.00     0.001 A 
HETATM   25  C   UNL     1      38.693 -13.532   1.055  1.00  0.00     0.002 A 
HETATM   26  C   UNL     1      38.409 -12.352   1.746  1.00  0.00     0.030 A 
HETATM   27  N   UNL     1      38.601 -11.199   3.917  1.00  0.00    -0.321 N 
HETATM   28  H   UNL     1      38.099 -10.351   3.697  1.00  0.00     0.169 HD
HETATM   29  O   UNL     1      39.060 -10.741   6.146  1.00  0.00    -0.266 OA
ENDBRANCH   1  18
TORSDOF 3
ENDMDL
MODEL 7
REMARK VINA RESULT:      -8.8      6.068      8.388
REMARK  3 active torsions:
REMARK  status: ('A' for Active; 'I' for Inactive)
REMARK    1  A    between atoms: N_7  and  N_8 
REMARK       I    between atoms: N_8  and  C_9 
REMARK    2  A    between atoms: C_9  and  C_10 
REMARK    3  A    between atoms: C_14  and  C_15 
ROOT
HETATM    1  N   UNL     1      41.912 -11.913   6.657  1.00  0.00    -0.241 N 
HETATM    2  C   UNL     1      41.362 -12.086   5.394  1.00  0.00     0.289 C 
HETATM    3  O   UNL     1      40.404 -11.456   4.956  1.00  0.00    -0.264 OA
HETATM    4  H   UNL     1      42.540 -12.617   7.010  1.00  0.00     0.192 HD
ENDROOT
BRANCH   2   5
HETATM    5  C   UNL     1      42.005 -13.103   4.599  1.00  0.00     0.121 A 
HETATM    6  N   UNL     1      42.801 -12.776   3.538  1.00  0.00    -0.272 N 
HETATM    7  H   UNL     1      43.014 -11.839   3.204  1.00  0.00     0.189 HD
HETATM    8  N   UNL     1      43.323 -13.832   2.897  1.00  0.00    -0.174 NA
HETATM    9  C   UNL     1      42.898 -14.897   3.593  1.00  0.00     0.089 A 
HETATM   10  C   UNL     1      42.053 -14.482   4.661  1.00  0.00     0.071 A 
BRANCH   9  11
HETATM   11  C   UNL     1      43.300 -16.261   3.234  1.00  0.00    -0.005 A 
HETATM   12  C   UNL     1      43.313 -17.287   4.192  1.00  0.00     0.017 A 
HETATM   13  C   UNL     1      43.703 -18.583   3.839  1.00  0.00     0.043 A 
HETATM   14  C   UNL     1      44.081 -18.855   2.529  1.00  0.00     0.116 A 
HETATM   15  F   UNL     1      44.454 -20.097   2.196  1.00  0.00    -0.206 F 
HETATM   16  C   UNL     1      44.078 -17.856   1.565  1.00  0.00     0.043 A 
HETATM   17  C   UNL     1      43.692 -16.561   1.917  1.00  0.00     0.017 A 
ENDBRANCH   9  11
ENDBRANCH   2   5
BRANCH   1  18
HETATM   18  N   UNL     1      41.340 -11.043   7.532  1.00  0.00    -0.165 NA
HETATM   19  C   UNL     1      41.932 -10.747   8.645  1.00  0.00     0.157 A 
HETATM   20  C   UNL     1      43.241 -11.082   9.229  1.00  0.00     0.027 A 
HETATM   21  C   UNL     1      41.222  -9.868   9.700  1.00  0.00     0.277 A 
HETATM   22  C   UNL     1      44.352 -11.754   8.748  1.00  0.00     0.016 A 
HETATM   23  C   UNL     1      43.251 -10.518  10.508  1.00  0.00     0.048 A 
HETATM   24  C   UNL     1      45.454 -11.891   9.601  1.00  0.00     0.001 A 
HETATM   25  C   UNL     1      45.441 -11.345  10.897  1.00  0.00     0.002 A 
HETATM   26  C   UNL     1      44.330 -10.638  11.361  1.00  0.00     0.030 A 
HETATM   27  N   UNL     1      42.078  -9.823  10.774  1.00  0.00    -0.321 N 
HETATM   28  H   UNL     1      41.865  -9.308  11.615  1.00  0.00     0.169 HD
HETATM   29  O   UNL     1      40.136  -9.344   9.596  1.00  0.00    -0.266 OA
ENDBRANCH   1  18
TORSDOF 3
ENDMDL
MODEL 8
REMARK VINA RESULT:      -8.5      3.579      8.286
REMARK  3 active torsions:
REMARK  status: ('A' for Active; 'I' for Inactive)
REMARK    1  A    between atoms: N_7  and  N_8 
REMARK       I    between atoms: N_8  and  C_9 
REMARK    2  A    between atoms: C_9  and  C_10 
REMARK    3  A    between atoms: C_14  and  C_15 
ROOT
HETATM    1  N   UNL     1      42.656 -13.862   2.042  1.00  0.00    -0.241 N 
HETATM    2  C   UNL     1      42.915 -14.082   3.388  1.00  0.00     0.289 C 
HETATM    3  O   UNL     1      42.891 -13.213   4.255  1.00  0.00    -0.264 OA
HETATM    4  H   UNL     1      42.915 -14.575   1.379  1.00  0.00     0.192 HD
ENDROOT
BRANCH   2   5
HETATM    5  C   UNL     1      43.238 -15.448   3.717  1.00  0.00     0.121 A 
HETATM    6  N   UNL     1      43.318 -15.865   5.015  1.00  0.00    -0.272 N 
HETATM    7  H   UNL     1      43.172 -15.297   5.846  1.00  0.00     0.189 HD
HETATM    8  N   UNL     1      43.632 -17.161   5.158  1.00  0.00    -0.174 NA
HETATM    9  C   UNL     1      43.713 -17.632   3.904  1.00  0.00     0.089 A 
HETATM   10  C   UNL     1      43.489 -16.581   2.969  1.00  0.00     0.071 A 
BRANCH   9  11
HETATM   11  C   UNL     1      43.994 -19.044   3.630  1.00  0.00    -0.005 A 
HETATM   12  C   UNL     1      44.608 -19.860   4.595  1.00  0.00     0.017 A 
HETATM   13  C   UNL     1      44.876 -21.205   4.320  1.00  0.00     0.043 A 
HETATM   14  C   UNL     1      44.532 -21.736   3.083  1.00  0.00     0.116 A 
HETATM   15  F   UNL     1      44.790 -23.024   2.824  1.00  0.00    -0.206 F 
HETATM   16  C   UNL     1      43.927 -20.949   2.112  1.00  0.00     0.043 A 
HETATM   17  C   UNL     1      43.662 -19.605   2.384  1.00  0.00     0.017 A 
ENDBRANCH   9  11
ENDBRANCH   2   5
BRANCH   1  18
HETATM   18  N   UNL     1      42.422 -12.599   1.593  1.00  0.00    -0.165 NA
HETATM   19  C   UNL     1      41.250 -12.265   1.156  1.00  0.00     0.157 A 
HETATM   20  C   UNL     1      39.948 -12.949   1.090  1.00  0.00     0.027 A 
HETATM   21  C   UNL     1      41.019 -10.875   0.520  1.00  0.00     0.277 A 
HETATM   22  C   UNL     1      39.487 -14.163   1.569  1.00  0.00     0.016 A 
HETATM   23  C   UNL     1      39.085 -12.074   0.423  1.00  0.00     0.048 A 
HETATM   24  C   UNL     1      38.153 -14.503   1.317  1.00  0.00     0.001 A 
HETATM   25  C   UNL     1      37.301 -13.628   0.619  1.00  0.00     0.002 A 
HETATM   26  C   UNL     1      37.764 -12.389   0.171  1.00  0.00     0.030 A 
HETATM   27  N   UNL     1      39.713 -10.881   0.093  1.00  0.00    -0.321 N 
HETATM   28  H   UNL     1      39.289 -10.087  -0.363  1.00  0.00     0.169 HD
HETATM   29  O   UNL     1      41.829  -9.982   0.415  1.00  0.00    -0.266 OA
ENDBRANCH   1  18
TORSDOF 3
ENDMDL
MODEL 9
REMARK VINA RESULT:      -8.5      3.987      8.942
REMARK  3 active torsions:
REMARK  status: ('A' for Active; 'I' for Inactive)
REMARK    1  A    between atoms: N_7  and  N_8 
REMARK       I    between atoms: N_8  and  C_9 
REMARK    2  A    between atoms: C_9  and  C_10 
REMARK    3  A    between atoms: C_14  and  C_15 
ROOT
HETATM    1  N   UNL     1      39.879 -15.010  -0.171  1.00  0.00    -0.241 N 
HETATM    2  C   UNL     1      40.158 -15.267   1.165  1.00  0.00     0.289 C 
HETATM    3  O   UNL     1      39.595 -14.727   2.112  1.00  0.00    -0.264 OA
HETATM    4  H   UNL     1      40.533 -15.325  -0.869  1.00  0.00     0.192 HD
ENDROOT
BRANCH   2   5
HETATM    5  C   UNL     1      41.201 -16.240   1.378  1.00  0.00     0.121 A 
HETATM    6  N   UNL     1      42.230 -16.382   0.491  1.00  0.00    -0.272 N 
HETATM    7  H   UNL     1      42.368 -15.857  -0.369  1.00  0.00     0.189 HD
HETATM    8  N   UNL     1      43.117 -17.331   0.825  1.00  0.00    -0.174 NA
HETATM    9  C   UNL     1      42.686 -17.798   2.007  1.00  0.00     0.089 A 
HETATM   10  C   UNL     1      41.474 -17.150   2.380  1.00  0.00     0.071 A 
BRANCH   9  11
HETATM   11  C   UNL     1      43.424 -18.831   2.740  1.00  0.00    -0.005 A 
HETATM   12  C   UNL     1      43.842 -18.618   4.065  1.00  0.00     0.017 A 
HETATM   13  C   UNL     1      44.550 -19.608   4.753  1.00  0.00     0.043 A 
HETATM   14  C   UNL     1      44.841 -20.811   4.121  1.00  0.00     0.116 A 
HETATM   15  F   UNL     1      45.519 -21.756   4.784  1.00  0.00    -0.206 F 
HETATM   16  C   UNL     1      44.441 -21.043   2.812  1.00  0.00     0.043 A 
HETATM   17  C   UNL     1      43.737 -20.054   2.123  1.00  0.00     0.017 A 
ENDBRANCH   9  11
ENDBRANCH   2   5
BRANCH   1  18
HETATM   18  N   UNL     1      38.974 -14.050  -0.503  1.00  0.00    -0.165 NA
HETATM   19  C   UNL     1      39.330 -13.034  -1.224  1.00  0.00     0.157 A 
HETATM   20  C   UNL     1      40.572 -12.656  -1.917  1.00  0.00     0.027 A 
HETATM   21  C   UNL     1      38.340 -11.876  -1.485  1.00  0.00     0.277 A 
HETATM   22  C   UNL     1      41.776 -13.304  -2.132  1.00  0.00     0.016 A 
HETATM   23  C   UNL     1      40.343 -11.386  -2.456  1.00  0.00     0.048 A 
HETATM   24  C   UNL     1      42.764 -12.627  -2.856  1.00  0.00     0.001 A 
HETATM   25  C   UNL     1      42.533 -11.337  -3.368  1.00  0.00     0.002 A 
HETATM   26  C   UNL     1      41.303 -10.705  -3.177  1.00  0.00     0.030 A 
HETATM   27  N   UNL     1      39.053 -10.941  -2.197  1.00  0.00    -0.321 N 
HETATM   28  H   UNL     1      38.646 -10.072  -2.508  1.00  0.00     0.169 HD
HETATM   29  O   UNL     1      37.187 -11.811  -1.125  1.00  0.00    -0.266 OA
ENDBRANCH   1  18
TORSDOF 3
ENDMDL
MODEL 10
REMARK VINA RESULT:      -8.3      3.923      9.132
REMARK  3 active torsions:
REMARK  status: ('A' for Active; 'I' for Inactive)
REMARK    1  A    between atoms: N_7  and  N_8 
REMARK       I    between atoms: N_8  and  C_9 
REMARK    2  A    between atoms: C_9  and  C_10 
REMARK    3  A    between atoms: C_14  and  C_15 
ROOT
HETATM    1  N   UNL     1      40.649 -15.160  -1.469  1.00  0.00    -0.241 N 
HETATM    2  C   UNL     1      41.553 -14.974  -0.431  1.00  0.00     0.289 C 
HETATM    3  O   UNL     1      42.149 -13.926  -0.203  1.00  0.00    -0.264 OA
HETATM    4  H   UNL     1      40.383 -16.100  -1.715  1.00  0.00     0.192 HD
ENDROOT
BRANCH   2   5
HETATM    5  C   UNL     1      41.765 -16.141   0.389  1.00  0.00     0.121 A 
HETATM    6  N   UNL     1      40.765 -17.047   0.605  1.00  0.00    -0.272 N 
HETATM    7  H   UNL     1      39.817 -17.004   0.239  1.00  0.00     0.189 HD
HETATM    8  N   UNL     1      41.115 -18.074   1.392  1.00  0.00    -0.174 NA
HETATM    9  C   UNL     1      42.413 -17.867   1.666  1.00  0.00     0.089 A 
HETATM   10  C   UNL     1      42.853 -16.652   1.068  1.00  0.00     0.071 A 
BRANCH   9  11
HETATM   11  C   UNL     1      43.189 -18.813   2.473  1.00  0.00    -0.005 A 
HETATM   12  C   UNL     1      43.593 -18.487   3.779  1.00  0.00     0.017 A 
HETATM   13  C   UNL     1      44.337 -19.396   4.538  1.00  0.00     0.043 A 
HETATM   14  C   UNL     1      44.679 -20.629   3.996  1.00  0.00     0.116 A 
HETATM   15  F   UNL     1      45.391 -21.495   4.726  1.00  0.00    -0.206 F 
HETATM   16  C   UNL     1      44.293 -20.972   2.707  1.00  0.00     0.043 A 
HETATM   17  C   UNL     1      43.552 -20.064   1.946  1.00  0.00     0.017 A 
ENDBRANCH   9  11
ENDBRANCH   2   5
BRANCH   1  18
HETATM   18  N   UNL     1      40.428 -14.159  -2.364  1.00  0.00    -0.165 NA
HETATM   19  C   UNL     1      39.484 -13.296  -2.163  1.00  0.00     0.157 A 
HETATM   20  C   UNL     1      38.545 -13.045  -1.058  1.00  0.00     0.027 A 
HETATM   21  C   UNL     1      39.144 -12.243  -3.242  1.00  0.00     0.277 A 
HETATM   22  C   UNL     1      38.404 -13.582   0.210  1.00  0.00     0.016 A 
HETATM   23  C   UNL     1      37.709 -12.009  -1.488  1.00  0.00     0.048 A 
HETATM   24  C   UNL     1      37.371 -13.091   1.018  1.00  0.00     0.001 A 
HETATM   25  C   UNL     1      36.517 -12.070   0.564  1.00  0.00     0.002 A 
HETATM   26  C   UNL     1      36.689 -11.509  -0.703  1.00  0.00     0.030 A 
HETATM   27  N   UNL     1      38.059 -11.556  -2.753  1.00  0.00    -0.321 N 
HETATM   28  H   UNL     1      37.624 -10.799  -3.259  1.00  0.00     0.169 HD
HETATM   29  O   UNL     1      39.712 -12.076  -4.298  1.00  0.00    -0.266 OA
ENDBRANCH   1  18
TORSDOF 3
ENDMDL
