MODEL 1
REMARK VINA RESULT:      -9.1      0.000      0.000
REMARK  3 active torsions:
REMARK  status: ('A' for Active; 'I' for Inactive)
REMARK    1  A    between atoms: C_7  and  C_8 
REMARK       I    between atoms: C_8  and  N_9 
REMARK    2  A    between atoms: N_9  and  N_10 
REMARK    3  A    between atoms: N_10  and  C_11 
ROOT
HETATM    1  C   UNL     1      41.753 -12.665   0.433  1.00  0.00     0.124 A 
HETATM    2  N   UNL     1      42.498 -11.613   0.046  1.00  0.00    -0.223 NA
HETATM    3  C   UNL     1      42.853 -11.541  -1.251  1.00  0.00     0.129 A 
HETATM    4 CL   UNL     1      43.796 -10.167  -1.656  1.00  0.00    -0.062 Cl
HETATM    5  C   UNL     1      42.520 -12.473  -2.209  1.00  0.00     0.067 A 
HETATM    6  C   UNL     1      41.765 -13.563  -1.793  1.00  0.00     0.051 A 
HETATM    7  C   UNL     1      41.390 -14.577  -2.730  1.00  0.00     0.099 C 
HETATM    8  N   UNL     1      41.088 -15.396  -3.495  1.00  0.00    -0.191 NA
HETATM    9  C   UNL     1      41.380 -13.668  -0.456  1.00  0.00     0.068 A 
ENDROOT
BRANCH   1  10
HETATM   10  N   UNL     1      41.433 -12.743   1.804  1.00  0.00    -0.186 NA
HETATM   11  H   UNL     1      40.445 -12.460   1.873  1.00  0.00     0.154 HD
BRANCH  10  12
HETATM   12  N   UNL     1      41.641 -14.022   2.357  1.00  0.00    -0.281 N 
HETATM   13  C   UNL     1      42.834 -14.248   3.013  1.00  0.00     0.271 C 
HETATM   14  O   UNL     1      43.606 -13.342   3.327  1.00  0.00    -0.266 OA
HETATM   15  H   UNL     1      41.130 -14.804   1.936  1.00  0.00     0.184 HD
BRANCH  13  16
HETATM   16  C   UNL     1      43.138 -15.680   3.286  1.00  0.00     0.099 A 
HETATM   17  C   UNL     1      43.162 -16.742   2.243  1.00  0.00     0.201 A 
HETATM   18  C   UNL     1      43.534 -18.121   2.654  1.00  0.00     0.045 A 
HETATM   19  O   UNL     1      42.897 -16.486   1.070  1.00  0.00    -0.286 OA
HETATM   20  C   UNL     1      43.841 -18.377   4.009  1.00  0.00     0.052 A 
HETATM   21  C   UNL     1      43.590 -19.134   1.694  1.00  0.00     0.060 A 
HETATM   22  C   UNL     1      44.174 -19.689   4.401  1.00  0.00    -0.031 A 
HETATM   23  N   UNL     1      43.741 -17.329   4.936  1.00  0.00    -0.364 N 
HETATM   24  C   UNL     1      44.498 -20.035   5.827  1.00  0.00     0.050 C 
HETATM   25  C   UNL     1      44.236 -20.696   3.424  1.00  0.00     0.051 A 
HETATM   26  C   UNL     1      43.946 -20.412   2.093  1.00  0.00     0.117 A 
HETATM   27  F   UNL     1      44.011 -21.392   1.183  1.00  0.00    -0.206 F 
HETATM   28  C   UNL     1      43.435 -16.052   4.540  1.00  0.00     0.109 A 
HETATM   29  H   UNL     1      44.095 -17.462   5.877  1.00  0.00     0.165 HD
ENDBRANCH  13  16
ENDBRANCH  10  12
ENDBRANCH   1  10
TORSDOF 3
ENDMDL
MODEL 2
REMARK VINA RESULT:      -9.0      1.579      2.211
REMARK  3 active torsions:
REMARK  status: ('A' for Active; 'I' for Inactive)
REMARK    1  A    between atoms: C_7  and  C_8 
REMARK       I    between atoms: C_8  and  N_9 
REMARK    2  A    between atoms: N_9  and  N_10 
REMARK    3  A    between atoms: N_10  and  C_11 
ROOT
HETATM    1  C   UNL     1      41.803 -13.117   0.618  1.00  0.00     0.124 A 
HETATM    2  N   UNL     1      42.479 -11.995   0.308  1.00  0.00    -0.223 NA
HETATM    3  C   UNL     1      42.734 -11.758  -0.993  1.00  0.00     0.129 A 
HETATM    4 CL   UNL     1      43.593 -10.306  -1.297  1.00  0.00    -0.062 Cl
HETATM    5  C   UNL     1      42.364 -12.587  -2.029  1.00  0.00     0.067 A 
HETATM    6  C   UNL     1      41.682 -13.750  -1.694  1.00  0.00     0.051 A 
HETATM    7  C   UNL     1      41.274 -14.664  -2.717  1.00  0.00     0.099 C 
HETATM    8  N   UNL     1      40.946 -15.401  -3.551  1.00  0.00    -0.191 NA
HETATM    9  C   UNL     1      41.401 -14.026  -0.356  1.00  0.00     0.068 A 
ENDROOT
BRANCH   1  10
HETATM   10  N   UNL     1      41.589 -13.367   1.989  1.00  0.00    -0.186 NA
HETATM   11  H   UNL     1      40.604 -13.123   2.164  1.00  0.00     0.154 HD
BRANCH  10  12
HETATM   12  N   UNL     1      41.863 -14.698   2.366  1.00  0.00    -0.281 N 
HETATM   13  C   UNL     1      43.130 -14.980   2.834  1.00  0.00     0.271 C 
HETATM   14  O   UNL     1      43.938 -14.106   3.146  1.00  0.00    -0.266 OA
HETATM   15  H   UNL     1      41.300 -15.434   1.929  1.00  0.00     0.184 HD
BRANCH  13  16
HETATM   16  C   UNL     1      43.463 -16.430   2.906  1.00  0.00     0.099 A 
HETATM   17  C   UNL     1      43.705 -17.169   4.175  1.00  0.00     0.201 A 
HETATM   18  C   UNL     1      43.975 -18.629   4.097  1.00  0.00     0.045 A 
HETATM   19  O   UNL     1      43.669 -16.594   5.261  1.00  0.00    -0.286 OA
HETATM   20  C   UNL     1      44.002 -19.257   2.833  1.00  0.00     0.052 A 
HETATM   21  C   UNL     1      44.182 -19.355   5.272  1.00  0.00     0.060 A 
HETATM   22  C   UNL     1      44.278 -20.637   2.758  1.00  0.00    -0.031 A 
HETATM   23  N   UNL     1      43.817 -18.476   1.682  1.00  0.00    -0.364 N 
HETATM   24  C   UNL     1      44.335 -21.367   1.446  1.00  0.00     0.050 C 
HETATM   25  C   UNL     1      44.474 -21.358   3.948  1.00  0.00     0.051 A 
HETATM   26  C   UNL     1      44.425 -20.715   5.182  1.00  0.00     0.117 A 
HETATM   27  F   UNL     1      44.618 -21.426   6.300  1.00  0.00    -0.206 F 
HETATM   28  C   UNL     1      43.529 -17.138   1.768  1.00  0.00     0.109 A 
HETATM   29  H   UNL     1      43.689 -18.932   0.786  1.00  0.00     0.165 HD
ENDBRANCH  13  16
ENDBRANCH  10  12
ENDBRANCH   1  10
TORSDOF 3
ENDMDL
MODEL 3
REMARK VINA RESULT:      -8.8      2.448      3.614
REMARK  3 active torsions:
REMARK  status: ('A' for Active; 'I' for Inactive)
REMARK    1  A    between atoms: C_7  and  C_8 
REMARK       I    between atoms: C_8  and  N_9 
REMARK    2  A    between atoms: N_9  and  N_10 
REMARK    3  A    between atoms: N_10  and  C_11 
ROOT
HETATM    1  C   UNL     1      42.576 -13.095   3.402  1.00  0.00     0.124 A 
HETATM    2  N   UNL     1      42.700 -13.011   2.065  1.00  0.00    -0.223 NA
HETATM    3  C   UNL     1      41.724 -12.383   1.383  1.00  0.00     0.129 A 
HETATM    4 CL   UNL     1      41.966 -12.318  -0.313  1.00  0.00    -0.062 Cl
HETATM    5  C   UNL     1      40.599 -11.829   1.955  1.00  0.00     0.067 A 
HETATM    6  C   UNL     1      40.474 -11.937   3.334  1.00  0.00     0.051 A 
HETATM    7  C   UNL     1      39.327 -11.394   3.997  1.00  0.00     0.099 C 
HETATM    8  N   UNL     1      38.396 -10.952   4.528  1.00  0.00    -0.191 NA
HETATM    9  C   UNL     1      41.468 -12.581   4.070  1.00  0.00     0.068 A 
ENDROOT
BRANCH   1  10
HETATM   10  N   UNL     1      43.587 -13.797   4.088  1.00  0.00    -0.186 NA
HETATM   11  H   UNL     1      43.394 -13.652   5.090  1.00  0.00     0.154 HD
BRANCH  10  12
HETATM   12  N   UNL     1      43.634 -15.169   3.767  1.00  0.00    -0.281 N 
HETATM   13  C   UNL     1      43.068 -16.054   4.663  1.00  0.00     0.271 C 
HETATM   14  O   UNL     1      42.343 -15.694   5.591  1.00  0.00    -0.266 OA
HETATM   15  H   UNL     1      44.384 -15.479   3.142  1.00  0.00     0.184 HD
BRANCH  13  16
HETATM   16  C   UNL     1      43.426 -17.482   4.444  1.00  0.00     0.099 A 
HETATM   17  C   UNL     1      43.244 -18.199   3.152  1.00  0.00     0.201 A 
HETATM   18  C   UNL     1      43.698 -19.613   3.064  1.00  0.00     0.045 A 
HETATM   19  O   UNL     1      42.748 -17.638   2.178  1.00  0.00    -0.286 OA
HETATM   20  C   UNL     1      44.271 -20.224   4.201  1.00  0.00     0.052 A 
HETATM   21  C   UNL     1      43.563 -20.305   1.858  1.00  0.00     0.060 A 
HETATM   22  C   UNL     1      44.682 -21.570   4.122  1.00  0.00    -0.031 A 
HETATM   23  N   UNL     1      44.356 -19.492   5.395  1.00  0.00    -0.364 N 
HETATM   24  C   UNL     1      45.287 -22.286   5.296  1.00  0.00     0.050 C 
HETATM   25  C   UNL     1      44.551 -22.252   2.901  1.00  0.00     0.051 A 
HETATM   26  C   UNL     1      43.998 -21.619   1.791  1.00  0.00     0.117 A 
HETATM   27  F   UNL     1      43.882 -22.293   0.641  1.00  0.00    -0.206 F 
HETATM   28  C   UNL     1      43.971 -18.177   5.454  1.00  0.00     0.109 A 
HETATM   29  H   UNL     1      44.893 -19.865   6.170  1.00  0.00     0.165 HD
ENDBRANCH  13  16
ENDBRANCH  10  12
ENDBRANCH   1  10
TORSDOF 3
ENDMDL
MODEL 4
REMARK VINA RESULT:      -8.8      2.480      2.703
REMARK  3 active torsions:
REMARK  status: ('A' for Active; 'I' for Inactive)
REMARK    1  A    between atoms: C_7  and  C_8 
REMARK       I    between atoms: C_8  and  N_9 
REMARK    2  A    between atoms: N_9  and  N_10 
REMARK    3  A    between atoms: N_10  and  C_11 
ROOT
HETATM    1  C   UNL     1      39.265 -14.105  -0.817  1.00  0.00     0.124 A 
HETATM    2  N   UNL     1      40.487 -13.763  -1.265  1.00  0.00    -0.223 NA
HETATM    3  C   UNL     1      40.655 -13.643  -2.596  1.00  0.00     0.129 A 
HETATM    4 CL   UNL     1      42.239 -13.199  -3.078  1.00  0.00    -0.062 Cl
HETATM    5  C   UNL     1      39.668 -13.858  -3.534  1.00  0.00     0.067 A 
HETATM    6  C   UNL     1      38.416 -14.228  -3.059  1.00  0.00     0.051 A 
HETATM    7  C   UNL     1      37.345 -14.478  -3.975  1.00  0.00     0.099 C 
HETATM    8  N   UNL     1      36.481 -14.678  -4.722  1.00  0.00    -0.191 NA
HETATM    9  C   UNL     1      38.208 -14.359  -1.686  1.00  0.00     0.068 A 
ENDROOT
BRANCH   1  10
HETATM   10  N   UNL     1      39.126 -14.269   0.576  1.00  0.00    -0.186 NA
HETATM   11  H   UNL     1      38.115 -14.379   0.742  1.00  0.00     0.154 HD
BRANCH  10  12
HETATM   12  N   UNL     1      39.853 -15.363   1.087  1.00  0.00    -0.281 N 
HETATM   13  C   UNL     1      40.104 -15.384   2.444  1.00  0.00     0.271 C 
HETATM   14  O   UNL     1      39.542 -14.632   3.240  1.00  0.00    -0.266 OA
HETATM   15  H   UNL     1      40.479 -15.854   0.441  1.00  0.00     0.184 HD
BRANCH  13  16
HETATM   16  C   UNL     1      41.135 -16.368   2.875  1.00  0.00     0.099 A 
HETATM   17  C   UNL     1      41.517 -17.574   2.091  1.00  0.00     0.201 A 
HETATM   18  C   UNL     1      42.603 -18.441   2.621  1.00  0.00     0.045 A 
HETATM   19  O   UNL     1      40.963 -17.841   1.027  1.00  0.00    -0.286 OA
HETATM   20  C   UNL     1      43.222 -18.099   3.843  1.00  0.00     0.052 A 
HETATM   21  C   UNL     1      43.001 -19.567   1.896  1.00  0.00     0.060 A 
HETATM   22  C   UNL     1      44.237 -18.933   4.354  1.00  0.00    -0.031 A 
HETATM   23  N   UNL     1      42.763 -16.975   4.545  1.00  0.00    -0.364 N 
HETATM   24  C   UNL     1      44.930 -18.637   5.655  1.00  0.00     0.050 C 
HETATM   25  C   UNL     1      44.636 -20.055   3.610  1.00  0.00     0.051 A 
HETATM   26  C   UNL     1      44.019 -20.359   2.399  1.00  0.00     0.117 A 
HETATM   27  F   UNL     1      44.417 -21.437   1.712  1.00  0.00    -0.206 F 
HETATM   28  C   UNL     1      41.789 -16.160   4.028  1.00  0.00     0.109 A 
HETATM   29  H   UNL     1      43.291 -16.637   5.343  1.00  0.00     0.165 HD
ENDBRANCH  13  16
ENDBRANCH  10  12
ENDBRANCH   1  10
TORSDOF 3
ENDMDL
MODEL 5
REMARK VINA RESULT:      -8.6      1.600      2.125
REMARK  3 active torsions:
REMARK  status: ('A' for Active; 'I' for Inactive)
REMARK    1  A    between atoms: C_7  and  C_8 
REMARK       I    between atoms: C_8  and  N_9 
REMARK    2  A    between atoms: N_9  and  N_10 
REMARK    3  A    between atoms: N_10  and  C_11 
ROOT
HETATM    1  C   UNL     1      41.735 -13.130   0.445  1.00  0.00     0.124 A 
HETATM    2  N   UNL     1      41.366 -14.251  -0.203  1.00  0.00    -0.223 NA
HETATM    3  C   UNL     1      41.436 -14.248  -1.548  1.00  0.00     0.129 A 
HETATM    4 CL   UNL     1      40.953 -15.716  -2.290  1.00  0.00    -0.062 Cl
HETATM    5  C   UNL     1      41.847 -13.176  -2.310  1.00  0.00     0.067 A 
HETATM    6  C   UNL     1      42.209 -12.020  -1.630  1.00  0.00     0.051 A 
HETATM    7  C   UNL     1      42.636 -10.863  -2.356  1.00  0.00     0.099 C 
HETATM    8  N   UNL     1      42.982  -9.928  -2.949  1.00  0.00    -0.191 NA
HETATM    9  C   UNL     1      42.149 -11.990  -0.236  1.00  0.00     0.068 A 
ENDROOT
BRANCH   1  10
HETATM   10  N   UNL     1      41.610 -13.142   1.849  1.00  0.00    -0.186 NA
HETATM   11  H   UNL     1      40.663 -12.786   2.045  1.00  0.00     0.154 HD
BRANCH  10  12
HETATM   12  N   UNL     1      41.809 -14.416   2.419  1.00  0.00    -0.281 N 
HETATM   13  C   UNL     1      43.041 -14.677   2.983  1.00  0.00     0.271 C 
HETATM   14  O   UNL     1      43.873 -13.799   3.210  1.00  0.00    -0.266 OA
HETATM   15  H   UNL     1      41.233 -15.185   2.062  1.00  0.00     0.184 HD
BRANCH  13  16
HETATM   16  C   UNL     1      43.306 -16.114   3.270  1.00  0.00     0.099 A 
HETATM   17  C   UNL     1      43.401 -17.171   2.226  1.00  0.00     0.201 A 
HETATM   18  C   UNL     1      43.724 -18.557   2.657  1.00  0.00     0.045 A 
HETATM   19  O   UNL     1      43.234 -16.906   1.037  1.00  0.00    -0.286 OA
HETATM   20  C   UNL     1      43.918 -18.823   4.030  1.00  0.00     0.052 A 
HETATM   21  C   UNL     1      43.846 -19.565   1.698  1.00  0.00     0.060 A 
HETATM   22  C   UNL     1      44.204 -20.141   4.439  1.00  0.00    -0.031 A 
HETATM   23  N   UNL     1      43.756 -17.780   4.953  1.00  0.00    -0.364 N 
HETATM   24  C   UNL     1      44.409 -20.498   5.884  1.00  0.00     0.050 C 
HETATM   25  C   UNL     1      44.334 -21.144   3.465  1.00  0.00     0.051 A 
HETATM   26  C   UNL     1      44.154 -20.849   2.116  1.00  0.00     0.117 A 
HETATM   27  F   UNL     1      44.281 -21.825   1.208  1.00  0.00    -0.206 F 
HETATM   28  C   UNL     1      43.497 -16.497   4.542  1.00  0.00     0.109 A 
HETATM   29  H   UNL     1      44.032 -17.922   5.919  1.00  0.00     0.165 HD
ENDBRANCH  13  16
ENDBRANCH  10  12
ENDBRANCH   1  10
TORSDOF 3
ENDMDL
MODEL 6
REMARK VINA RESULT:      -8.5      7.586     10.363
REMARK  3 active torsions:
REMARK  status: ('A' for Active; 'I' for Inactive)
REMARK    1  A    between atoms: C_7  and  C_8 
REMARK       I    between atoms: C_8  and  N_9 
REMARK    2  A    between atoms: N_9  and  N_10 
REMARK    3  A    between atoms: N_10  and  C_11 
ROOT
HETATM    1  C   UNL     1      43.984 -15.436   6.676  1.00  0.00     0.124 A 
HETATM    2  N   UNL     1      42.812 -15.010   6.168  1.00  0.00    -0.223 NA
HETATM    3  C   UNL     1      41.946 -15.943   5.727  1.00  0.00     0.129 A 
HETATM    4 CL   UNL     1      40.479 -15.312   5.102  1.00  0.00    -0.062 Cl
HETATM    5  C   UNL     1      42.177 -17.301   5.747  1.00  0.00     0.067 A 
HETATM    6  C   UNL     1      43.397 -17.726   6.258  1.00  0.00     0.051 A 
HETATM    7  C   UNL     1      43.711 -19.121   6.301  1.00  0.00     0.099 C 
HETATM    8  N   UNL     1      43.960 -20.254   6.333  1.00  0.00    -0.191 NA
HETATM    9  C   UNL     1      44.317 -16.786   6.724  1.00  0.00     0.068 A 
ENDROOT
BRANCH   1  10
HETATM   10  N   UNL     1      44.892 -14.441   7.089  1.00  0.00    -0.186 NA
HETATM   11  H   UNL     1      45.335 -14.095   6.226  1.00  0.00     0.154 HD
BRANCH  10  12
HETATM   12  N   UNL     1      44.285 -13.393   7.811  1.00  0.00    -0.281 N 
HETATM   13  C   UNL     1      45.116 -12.496   8.453  1.00  0.00     0.271 C 
HETATM   14  O   UNL     1      46.327 -12.436   8.241  1.00  0.00    -0.266 OA
HETATM   15  H   UNL     1      43.333 -13.550   8.156  1.00  0.00     0.184 HD
BRANCH  13  16
HETATM   16  C   UNL     1      44.440 -11.621   9.450  1.00  0.00     0.099 A 
HETATM   17  C   UNL     1      43.209 -10.833   9.171  1.00  0.00     0.201 A 
HETATM   18  C   UNL     1      42.613 -10.043  10.282  1.00  0.00     0.045 A 
HETATM   19  O   UNL     1      42.686 -10.844   8.059  1.00  0.00    -0.286 OA
HETATM   20  C   UNL     1      43.236 -10.060  11.549  1.00  0.00     0.052 A 
HETATM   21  C   UNL     1      41.444  -9.313  10.058  1.00  0.00     0.060 A 
HETATM   22  C   UNL     1      42.683  -9.295  12.595  1.00  0.00    -0.031 A 
HETATM   23  N   UNL     1      44.426 -10.786  11.711  1.00  0.00    -0.364 N 
HETATM   24  C   UNL     1      43.301  -9.256  13.965  1.00  0.00     0.050 C 
HETATM   25  C   UNL     1      41.501  -8.574  12.361  1.00  0.00     0.051 A 
HETATM   26  C   UNL     1      40.899  -8.589  11.106  1.00  0.00     0.117 A 
HETATM   27  F   UNL     1      39.774  -7.890  10.909  1.00  0.00    -0.206 F 
HETATM   28  C   UNL     1      44.943 -11.543  10.692  1.00  0.00     0.109 A 
HETATM   29  H   UNL     1      44.801 -10.925  12.643  1.00  0.00     0.165 HD
ENDBRANCH  13  16
ENDBRANCH  10  12
ENDBRANCH   1  10
TORSDOF 3
ENDMDL
MODEL 7
REMARK VINA RESULT:      -8.5      2.362      2.848
REMARK  3 active torsions:
REMARK  status: ('A' for Active; 'I' for Inactive)
REMARK    1  A    between atoms: C_7  and  C_8 
REMARK       I    between atoms: C_8  and  N_9 
REMARK    2  A    between atoms: N_9  and  N_10 
REMARK    3  A    between atoms: N_10  and  C_11 
ROOT
HETATM    1  C   UNL     1      39.238 -14.001   0.044  1.00  0.00     0.124 A 
HETATM    2  N   UNL     1      38.586 -14.055  -1.132  1.00  0.00    -0.223 NA
HETATM    3  C   UNL     1      39.139 -13.422  -2.183  1.00  0.00     0.129 A 
HETATM    4 CL   UNL     1      38.244 -13.546  -3.641  1.00  0.00    -0.062 Cl
HETATM    5  C   UNL     1      40.319 -12.712  -2.140  1.00  0.00     0.067 A 
HETATM    6  C   UNL     1      40.974 -12.651  -0.917  1.00  0.00     0.051 A 
HETATM    7  C   UNL     1      42.201 -11.923  -0.793  1.00  0.00     0.099 C 
HETATM    8  N   UNL     1      43.194 -11.333  -0.700  1.00  0.00    -0.191 NA
HETATM    9  C   UNL     1      40.429 -13.297   0.193  1.00  0.00     0.068 A 
ENDROOT
BRANCH   1  10
HETATM   10  N   UNL     1      38.617 -14.633   1.141  1.00  0.00    -0.186 NA
HETATM   11  H   UNL     1      37.711 -14.972   0.788  1.00  0.00     0.154 HD
BRANCH  10  12
HETATM   12  N   UNL     1      39.380 -15.682   1.690  1.00  0.00    -0.281 N 
HETATM   13  C   UNL     1      40.060 -15.430   2.865  1.00  0.00     0.271 C 
HETATM   14  O   UNL     1      39.853 -14.433   3.556  1.00  0.00    -0.266 OA
HETATM   15  H   UNL     1      39.717 -16.405   1.046  1.00  0.00     0.184 HD
BRANCH  13  16
HETATM   16  C   UNL     1      41.092 -16.442   3.221  1.00  0.00     0.099 A 
HETATM   17  C   UNL     1      41.521 -17.549   2.322  1.00  0.00     0.201 A 
HETATM   18  C   UNL     1      42.603 -18.455   2.791  1.00  0.00     0.045 A 
HETATM   19  O   UNL     1      41.009 -17.703   1.215  1.00  0.00    -0.286 OA
HETATM   20  C   UNL     1      43.175 -18.243   4.065  1.00  0.00     0.052 A 
HETATM   21  C   UNL     1      43.045 -19.487   1.960  1.00  0.00     0.060 A 
HETATM   22  C   UNL     1      44.185 -19.115   4.517  1.00  0.00    -0.031 A 
HETATM   23  N   UNL     1      42.673 -17.210   4.870  1.00  0.00    -0.364 N 
HETATM   24  C   UNL     1      44.828 -18.957   5.866  1.00  0.00     0.050 C 
HETATM   25  C   UNL     1      44.628 -20.142   3.668  1.00  0.00     0.051 A 
HETATM   26  C   UNL     1      44.058 -20.317   2.410  1.00  0.00     0.117 A 
HETATM   27  F   UNL     1      44.498 -21.307   1.622  1.00  0.00    -0.206 F 
HETATM   28  C   UNL     1      41.703 -16.355   4.412  1.00  0.00     0.109 A 
HETATM   29  H   UNL     1      43.167 -16.956   5.719  1.00  0.00     0.165 HD
ENDBRANCH  13  16
ENDBRANCH  10  12
ENDBRANCH   1  10
TORSDOF 3
ENDMDL
MODEL 8
REMARK VINA RESULT:      -8.5      7.541     10.429
REMARK  3 active torsions:
REMARK  status: ('A' for Active; 'I' for Inactive)
REMARK    1  A    between atoms: C_7  and  C_8 
REMARK       I    between atoms: C_8  and  N_9 
REMARK    2  A    between atoms: N_9  and  N_10 
REMARK    3  A    between atoms: N_10  and  C_11 
ROOT
HETATM    1  C   UNL     1      43.985 -15.814   6.532  1.00  0.00     0.124 A 
HETATM    2  N   UNL     1      42.959 -15.427   5.752  1.00  0.00    -0.223 NA
HETATM    3  C   UNL     1      42.194 -16.389   5.202  1.00  0.00     0.129 A 
HETATM    4 CL   UNL     1      40.909 -15.806   4.227  1.00  0.00    -0.062 Cl
HETATM    5  C   UNL     1      42.392 -17.742   5.371  1.00  0.00     0.067 A 
HETATM    6  C   UNL     1      43.463 -18.128   6.165  1.00  0.00     0.051 A 
HETATM    7  C   UNL     1      43.737 -19.517   6.378  1.00  0.00     0.099 C 
HETATM    8  N   UNL     1      43.953 -20.644   6.547  1.00  0.00    -0.191 NA
HETATM    9  C   UNL     1      44.276 -17.157   6.751  1.00  0.00     0.068 A 
ENDROOT
BRANCH   1  10
HETATM   10  N   UNL     1      44.799 -14.791   7.059  1.00  0.00    -0.186 NA
HETATM   11  H   UNL     1      45.340 -14.429   6.261  1.00  0.00     0.154 HD
BRANCH  10  12
HETATM   12  N   UNL     1      44.070 -13.765   7.694  1.00  0.00    -0.281 N 
HETATM   13  C   UNL     1      44.785 -12.803   8.378  1.00  0.00     0.271 C 
HETATM   14  O   UNL     1      46.004 -12.673   8.270  1.00  0.00    -0.266 OA
HETATM   15  H   UNL     1      43.102 -13.972   7.960  1.00  0.00     0.184 HD
BRANCH  13  16
HETATM   16  C   UNL     1      43.973 -11.947   9.286  1.00  0.00     0.099 A 
HETATM   17  C   UNL     1      43.955 -12.085  10.768  1.00  0.00     0.201 A 
HETATM   18  C   UNL     1      43.136 -11.123  11.553  1.00  0.00     0.045 A 
HETATM   19  O   UNL     1      44.609 -12.959  11.333  1.00  0.00    -0.286 OA
HETATM   20  C   UNL     1      42.403 -10.127  10.872  1.00  0.00     0.052 A 
HETATM   21  C   UNL     1      43.118 -11.211  12.947  1.00  0.00     0.060 A 
HETATM   22  C   UNL     1      41.612  -9.229  11.615  1.00  0.00    -0.031 A 
HETATM   23  N   UNL     1      42.434 -10.102   9.469  1.00  0.00    -0.364 N 
HETATM   24  C   UNL     1      40.796  -8.153  10.955  1.00  0.00     0.050 C 
HETATM   25  C   UNL     1      41.610  -9.321  13.016  1.00  0.00     0.051 A 
HETATM   26  C   UNL     1      42.356 -10.303  13.663  1.00  0.00     0.117 A 
HETATM   27  F   UNL     1      42.334 -10.370  15.000  1.00  0.00    -0.206 F 
HETATM   28  C   UNL     1      43.223 -10.968   8.758  1.00  0.00     0.109 A 
HETATM   29  H   UNL     1      42.034  -9.310   8.977  1.00  0.00     0.165 HD
ENDBRANCH  13  16
ENDBRANCH  10  12
ENDBRANCH   1  10
TORSDOF 3
ENDMDL
MODEL 9
REMARK VINA RESULT:      -8.5      2.981      3.784
REMARK  3 active torsions:
REMARK  status: ('A' for Active; 'I' for Inactive)
REMARK    1  A    between atoms: C_7  and  C_8 
REMARK       I    between atoms: C_8  and  N_9 
REMARK    2  A    between atoms: N_9  and  N_10 
REMARK    3  A    between atoms: N_10  and  C_11 
ROOT
HETATM    1  C   UNL     1      40.824 -14.062   4.834  1.00  0.00     0.124 A 
HETATM    2  N   UNL     1      40.046 -12.980   5.020  1.00  0.00    -0.223 NA
HETATM    3  C   UNL     1      39.431 -12.459   3.940  1.00  0.00     0.129 A 
HETATM    4 CL   UNL     1      38.456 -11.087   4.269  1.00  0.00    -0.062 Cl
HETATM    5  C   UNL     1      39.552 -12.946   2.657  1.00  0.00     0.067 A 
HETATM    6  C   UNL     1      40.372 -14.052   2.477  1.00  0.00     0.051 A 
HETATM    7  C   UNL     1      40.553 -14.607   1.170  1.00  0.00     0.099 C 
HETATM    8  N   UNL     1      40.696 -15.053   0.108  1.00  0.00    -0.191 NA
HETATM    9  C   UNL     1      41.022 -14.617   3.574  1.00  0.00     0.068 A 
ENDROOT
BRANCH   1  10
HETATM   10  N   UNL     1      41.493 -14.561   5.970  1.00  0.00    -0.186 NA
HETATM   11  H   UNL     1      40.841 -14.426   6.756  1.00  0.00     0.154 HD
BRANCH  10  12
HETATM   12  N   UNL     1      41.875 -15.912   5.846  1.00  0.00    -0.281 N 
HETATM   13  C   UNL     1      43.225 -16.188   5.756  1.00  0.00     0.271 C 
HETATM   14  O   UNL     1      44.096 -15.353   6.002  1.00  0.00    -0.266 OA
HETATM   15  H   UNL     1      41.190 -16.559   5.443  1.00  0.00     0.184 HD
BRANCH  13  16
HETATM   16  C   UNL     1      43.553 -17.568   5.306  1.00  0.00     0.099 A 
HETATM   17  C   UNL     1      43.376 -18.056   3.910  1.00  0.00     0.201 A 
HETATM   18  C   UNL     1      43.798 -19.446   3.593  1.00  0.00     0.045 A 
HETATM   19  O   UNL     1      42.909 -17.327   3.038  1.00  0.00    -0.286 OA
HETATM   20  C   UNL     1      44.338 -20.252   4.619  1.00  0.00     0.052 A 
HETATM   21  C   UNL     1      43.667 -19.924   2.287  1.00  0.00     0.060 A 
HETATM   22  C   UNL     1      44.718 -21.576   4.322  1.00  0.00    -0.031 A 
HETATM   23  N   UNL     1      44.420 -19.732   5.919  1.00  0.00    -0.364 N 
HETATM   24  C   UNL     1      45.287 -22.494   5.367  1.00  0.00     0.050 C 
HETATM   25  C   UNL     1      44.592 -22.042   3.003  1.00  0.00     0.051 A 
HETATM   26  C   UNL     1      44.072 -21.219   2.007  1.00  0.00     0.117 A 
HETATM   27  F   UNL     1      43.960 -21.689   0.759  1.00  0.00    -0.206 F 
HETATM   28  C   UNL     1      44.065 -18.436   6.192  1.00  0.00     0.109 A 
HETATM   29  H   UNL     1      44.935 -20.243   6.628  1.00  0.00     0.165 HD
ENDBRANCH  13  16
ENDBRANCH  10  12
ENDBRANCH   1  10
TORSDOF 3
ENDMDL
MODEL 10
REMARK VINA RESULT:      -8.3      3.752      8.145
REMARK  3 active torsions:
REMARK  status: ('A' for Active; 'I' for Inactive)
REMARK    1  A    between atoms: C_7  and  C_8 
REMARK       I    between atoms: C_8  and  N_9 
REMARK    2  A    between atoms: N_9  and  N_10 
REMARK    3  A    between atoms: N_10  and  C_11 
ROOT
HETATM    1  C   UNL     1      42.533 -18.325   2.183  1.00  0.00     0.124 A 
HETATM    2  N   UNL     1      42.887 -17.742   3.344  1.00  0.00    -0.223 NA
HETATM    3  C   UNL     1      43.721 -18.420   4.156  1.00  0.00     0.129 A 
HETATM    4 CL   UNL     1      44.122 -17.601   5.608  1.00  0.00    -0.062 Cl
HETATM    5  C   UNL     1      44.230 -19.672   3.889  1.00  0.00     0.067 A 
HETATM    6  C   UNL     1      43.845 -20.269   2.696  1.00  0.00     0.051 A 
HETATM    7  C   UNL     1      44.326 -21.574   2.357  1.00  0.00     0.099 C 
HETATM    8  N   UNL     1      44.719 -22.631   2.087  1.00  0.00    -0.191 NA
HETATM    9  C   UNL     1      42.982 -19.595   1.832  1.00  0.00     0.068 A 
ENDROOT
BRANCH   1  10
HETATM   10  N   UNL     1      41.623 -17.617   1.372  1.00  0.00    -0.186 NA
HETATM   11  H   UNL     1      40.771 -17.510   1.941  1.00  0.00     0.154 HD
BRANCH  10  12
HETATM   12  N   UNL     1      42.113 -16.368   0.939  1.00  0.00    -0.281 N 
HETATM   13  C   UNL     1      41.306 -15.265   1.132  1.00  0.00     0.271 C 
HETATM   14  O   UNL     1      40.307 -15.285   1.851  1.00  0.00    -0.266 OA
HETATM   15  H   UNL     1      42.807 -16.372   0.186  1.00  0.00     0.184 HD
BRANCH  13  16
HETATM   16  C   UNL     1      41.717 -14.049   0.377  1.00  0.00     0.099 A 
HETATM   17  C   UNL     1      41.734 -13.955  -1.108  1.00  0.00     0.201 A 
HETATM   18  C   UNL     1      42.117 -12.657  -1.725  1.00  0.00     0.045 A 
HETATM   19  O   UNL     1      41.426 -14.917  -1.809  1.00  0.00    -0.286 OA
HETATM   20  C   UNL     1      42.458 -11.571  -0.889  1.00  0.00     0.052 A 
HETATM   21  C   UNL     1      42.119 -12.530  -3.116  1.00  0.00     0.060 A 
HETATM   22  C   UNL     1      42.840 -10.349  -1.475  1.00  0.00    -0.031 A 
HETATM   23  N   UNL     1      42.468 -11.762   0.501  1.00  0.00    -0.364 N 
HETATM   24  C   UNL     1      43.227  -9.156  -0.646  1.00  0.00     0.050 C 
HETATM   25  C   UNL     1      42.828 -10.230  -2.875  1.00  0.00     0.051 A 
HETATM   26  C   UNL     1      42.471 -11.312  -3.674  1.00  0.00     0.117 A 
HETATM   27  F   UNL     1      42.471 -11.173  -5.006  1.00  0.00    -0.206 F 
HETATM   28  C   UNL     1      42.074 -12.951   1.060  1.00  0.00     0.109 A 
HETATM   29  H   UNL     1      42.567 -10.960   1.112  1.00  0.00     0.165 HD
ENDBRANCH  13  16
ENDBRANCH  10  12
ENDBRANCH   1  10
TORSDOF 3
ENDMDL
