MODEL 1
REMARK VINA RESULT:      -8.6      0.000      0.000
REMARK  7 active torsions:
REMARK  status: ('A' for Active; 'I' for Inactive)
REMARK    1  A    between atoms: C_4  and  C_5 
REMARK    2  A    between atoms: C_9  and  C_10 
REMARK    3  A    between atoms: C_10  and  C_11 
REMARK    4  A    between atoms: C_11  and  C_12 
REMARK    5  A    between atoms: C_12  and  O_13 
REMARK    6  A    between atoms: C_18  and  C_19 
REMARK       I    between atoms: C_19  and  N_20 
REMARK    7  A    between atoms: N_20  and  C_21 
ROOT
HETATM    1  C   UNL     1      42.889 -14.608   3.209  1.00  0.00     0.202 A 
HETATM    2  N   UNL     1      41.896 -13.529   3.136  1.00  0.00    -0.083 N 
HETATM    3  C   UNL     1      40.750 -13.596   2.399  1.00  0.00     0.726 A 
HETATM    4  N   UNL     1      40.117 -12.454   2.460  1.00  0.00    -0.046 NA
HETATM    5  C   UNL     1      40.957 -11.679   3.219  1.00  0.00     0.166 A 
HETATM    6  N   UNL     1      42.073 -12.289   3.650  1.00  0.00    -0.140 NA
HETATM    7  N   UNL     1      40.466 -14.726   1.734  1.00  0.00    -0.192 N 
HETATM    8  C   UNL     1      41.310 -15.831   1.689  1.00  0.00     0.037 A 
HETATM    9  C   UNL     1      40.829 -16.955   0.798  1.00  0.00     0.070 C 
HETATM   10  C   UNL     1      42.484 -15.834   2.382  1.00  0.00     0.062 A 
HETATM   11  H   UNL     1      39.617 -14.758   1.176  1.00  0.00     0.184 HD
ENDROOT
BRANCH  10  12
HETATM   12  C   UNL     1      43.369 -17.057   2.369  1.00  0.00     0.256 C 
HETATM   13  N   UNL     1      42.883 -18.175   3.021  1.00  0.00    -0.323 N 
HETATM   14  H   UNL     1      41.888 -18.233   3.172  1.00  0.00     0.169 HD
HETATM   15  O   UNL     1      44.409 -17.049   1.714  1.00  0.00    -0.267 OA
BRANCH  13  16
HETATM   16  C   UNL     1      43.522 -19.440   2.997  1.00  0.00     0.041 A 
HETATM   17  C   UNL     1      44.436 -19.893   3.963  1.00  0.00    -0.035 A 
HETATM   18  C   UNL     1      44.777 -19.142   5.220  1.00  0.00     0.050 C 
HETATM   19  C   UNL     1      45.051 -21.147   3.775  1.00  0.00     0.009 A 
HETATM   20  C   UNL     1      44.728 -21.955   2.685  1.00  0.00     0.001 A 
HETATM   21  C   UNL     1      43.773 -21.529   1.771  1.00  0.00     0.002 A 
HETATM   22  C   UNL     1      43.165 -20.284   1.932  1.00  0.00     0.030 A 
ENDBRANCH  13  16
ENDBRANCH  10  12
BRANCH   1  23
HETATM   23  C   UNL     1      43.245 -14.891   4.670  1.00  0.00    -0.028 A 
HETATM   24  C   UNL     1      42.631 -15.913   5.416  1.00  0.00     0.016 A 
HETATM   25  C   UNL     1      43.043 -16.198   6.725  1.00  0.00    -0.061 A 
HETATM   26  C   UNL     1      42.449 -17.354   7.475  1.00  0.00     0.048 C 
HETATM   27  C   UNL     1      44.067 -15.440   7.302  1.00  0.00     0.007 A 
HETATM   28  C   UNL     1      44.657 -14.397   6.593  1.00  0.00     0.001 A 
HETATM   29  C   UNL     1      44.251 -14.125   5.288  1.00  0.00     0.010 A 
ENDBRANCH   1  23
BRANCH   5  30
HETATM   30  C   UNL     1      40.631 -10.276   3.580  1.00  0.00     0.085 C 
BRANCH  30  31
HETATM   31  C   UNL     1      40.189 -10.122   5.035  1.00  0.00     0.034 C 
BRANCH  31  32
HETATM   32  C   UNL     1      39.204 -11.185   5.510  1.00  0.00     0.164 C 
BRANCH  32  33
HETATM   33  O   UNL     1      38.047 -11.217   4.687  1.00  0.00    -0.401 OA
HETATM   34  H   UNL     1      37.493 -10.458   4.955  1.00  0.00     0.209 HD
ENDBRANCH  32  33
ENDBRANCH  31  32
ENDBRANCH  30  31
ENDBRANCH   5  30
TORSDOF 7
ENDMDL
MODEL 2
REMARK VINA RESULT:      -8.4      2.224      4.124
REMARK  7 active torsions:
REMARK  status: ('A' for Active; 'I' for Inactive)
REMARK    1  A    between atoms: C_4  and  C_5 
REMARK    2  A    between atoms: C_9  and  C_10 
REMARK    3  A    between atoms: C_10  and  C_11 
REMARK    4  A    between atoms: C_11  and  C_12 
REMARK    5  A    between atoms: C_12  and  O_13 
REMARK    6  A    between atoms: C_18  and  C_19 
REMARK       I    between atoms: C_19  and  N_20 
REMARK    7  A    between atoms: N_20  and  C_21 
ROOT
HETATM    1  C   UNL     1      40.952 -14.641   4.875  1.00  0.00     0.202 A 
HETATM    2  N   UNL     1      41.039 -13.282   5.425  1.00  0.00    -0.083 N 
HETATM    3  C   UNL     1      42.043 -12.853   6.243  1.00  0.00     0.726 A 
HETATM    4  N   UNL     1      41.799 -11.632   6.641  1.00  0.00    -0.046 NA
HETATM    5  C   UNL     1      40.579 -11.363   6.072  1.00  0.00     0.166 A 
HETATM    6  N   UNL     1      40.061 -12.351   5.324  1.00  0.00    -0.140 NA
HETATM    7  N   UNL     1      43.050 -13.690   6.535  1.00  0.00    -0.192 N 
HETATM    8  C   UNL     1      43.107 -15.012   6.108  1.00  0.00     0.037 A 
HETATM    9  C   UNL     1      44.287 -15.796   6.638  1.00  0.00     0.070 C 
HETATM   10  C   UNL     1      42.131 -15.523   5.303  1.00  0.00     0.062 A 
HETATM   11  H   UNL     1      43.784 -13.364   7.158  1.00  0.00     0.184 HD
ENDROOT
BRANCH  10  12
HETATM   12  C   UNL     1      42.227 -16.943   4.802  1.00  0.00     0.256 C 
HETATM   13  N   UNL     1      43.304 -17.235   3.985  1.00  0.00    -0.323 N 
HETATM   14  H   UNL     1      44.106 -16.625   4.032  1.00  0.00     0.169 HD
HETATM   15  O   UNL     1      41.430 -17.787   5.207  1.00  0.00    -0.267 OA
BRANCH  13  16
HETATM   16  C   UNL     1      43.617 -18.541   3.533  1.00  0.00     0.041 A 
HETATM   17  C   UNL     1      44.406 -19.466   4.238  1.00  0.00    -0.035 A 
HETATM   18  C   UNL     1      44.936 -19.236   5.626  1.00  0.00     0.050 C 
HETATM   19  C   UNL     1      44.697 -20.705   3.635  1.00  0.00     0.009 A 
HETATM   20  C   UNL     1      44.173 -21.042   2.386  1.00  0.00     0.001 A 
HETATM   21  C   UNL     1      43.339 -20.150   1.725  1.00  0.00     0.002 A 
HETATM   22  C   UNL     1      43.053 -18.912   2.300  1.00  0.00     0.030 A 
ENDBRANCH  13  16
ENDBRANCH  10  12
BRANCH   1  23
HETATM   23  C   UNL     1      40.693 -14.578   3.368  1.00  0.00    -0.028 A 
HETATM   24  C   UNL     1      39.398 -14.587   2.820  1.00  0.00     0.016 A 
HETATM   25  C   UNL     1      39.198 -14.442   1.441  1.00  0.00    -0.061 A 
HETATM   26  C   UNL     1      37.809 -14.353   0.879  1.00  0.00     0.048 C 
HETATM   27  C   UNL     1      40.305 -14.307   0.597  1.00  0.00     0.007 A 
HETATM   28  C   UNL     1      41.596 -14.338   1.119  1.00  0.00     0.001 A 
HETATM   29  C   UNL     1      41.789 -14.471   2.491  1.00  0.00     0.010 A 
ENDBRANCH   1  23
BRANCH   5  30
HETATM   30  C   UNL     1      39.901 -10.052   6.233  1.00  0.00     0.085 C 
BRANCH  30  31
HETATM   31  C   UNL     1      39.820  -9.597   7.691  1.00  0.00     0.034 C 
BRANCH  31  32
HETATM   32  C   UNL     1      39.205 -10.623   8.638  1.00  0.00     0.164 C 
BRANCH  32  33
HETATM   33  O   UNL     1      40.205 -11.283   9.399  1.00  0.00    -0.401 OA
HETATM   34  H   UNL     1      39.770 -11.604  10.213  1.00  0.00     0.209 HD
ENDBRANCH  32  33
ENDBRANCH  31  32
ENDBRANCH  30  31
ENDBRANCH   5  30
TORSDOF 7
ENDMDL
MODEL 3
REMARK VINA RESULT:      -8.1      2.195      4.333
REMARK  7 active torsions:
REMARK  status: ('A' for Active; 'I' for Inactive)
REMARK    1  A    between atoms: C_4  and  C_5 
REMARK    2  A    between atoms: C_9  and  C_10 
REMARK    3  A    between atoms: C_10  and  C_11 
REMARK    4  A    between atoms: C_11  and  C_12 
REMARK    5  A    between atoms: C_12  and  O_13 
REMARK    6  A    between atoms: C_18  and  C_19 
REMARK       I    between atoms: C_19  and  N_20 
REMARK    7  A    between atoms: N_20  and  C_21 
ROOT
HETATM    1  C   UNL     1      41.047 -14.347   4.943  1.00  0.00     0.202 A 
HETATM    2  N   UNL     1      41.127 -13.003   5.529  1.00  0.00    -0.083 N 
HETATM    3  C   UNL     1      42.116 -12.599   6.378  1.00  0.00     0.726 A 
HETATM    4  N   UNL     1      41.867 -11.388   6.802  1.00  0.00    -0.046 NA
HETATM    5  C   UNL     1      40.660 -11.099   6.215  1.00  0.00     0.166 A 
HETATM    6  N   UNL     1      40.155 -12.065   5.431  1.00  0.00    -0.140 NA
HETATM    7  N   UNL     1      43.113 -13.446   6.670  1.00  0.00    -0.192 N 
HETATM    8  C   UNL     1      43.175 -14.758   6.210  1.00  0.00     0.037 A 
HETATM    9  C   UNL     1      44.340 -15.559   6.745  1.00  0.00     0.070 C 
HETATM   10  C   UNL     1      42.214 -15.244   5.373  1.00  0.00     0.062 A 
HETATM   11  H   UNL     1      43.835 -13.139   7.316  1.00  0.00     0.184 HD
ENDROOT
BRANCH  10  12
HETATM   12  C   UNL     1      42.317 -16.652   4.837  1.00  0.00     0.256 C 
HETATM   13  N   UNL     1      43.398 -16.921   4.019  1.00  0.00    -0.323 N 
HETATM   14  H   UNL     1      44.198 -16.311   4.084  1.00  0.00     0.169 HD
HETATM   15  O   UNL     1      41.520 -17.507   5.218  1.00  0.00    -0.267 OA
BRANCH  13  16
HETATM   16  C   UNL     1      43.716 -18.215   3.536  1.00  0.00     0.041 A 
HETATM   17  C   UNL     1      43.395 -18.693   2.255  1.00  0.00    -0.035 A 
HETATM   18  C   UNL     1      42.767 -17.856   1.176  1.00  0.00     0.050 C 
HETATM   19  C   UNL     1      43.709 -20.028   1.933  1.00  0.00     0.009 A 
HETATM   20  C   UNL     1      44.375 -20.853   2.840  1.00  0.00     0.001 A 
HETATM   21  C   UNL     1      44.750 -20.353   4.080  1.00  0.00     0.002 A 
HETATM   22  C   UNL     1      44.433 -19.038   4.422  1.00  0.00     0.030 A 
ENDBRANCH  13  16
ENDBRANCH  10  12
BRANCH   1  23
HETATM   23  C   UNL     1      40.821 -14.245   3.433  1.00  0.00    -0.028 A 
HETATM   24  C   UNL     1      39.554 -14.404   2.844  1.00  0.00     0.016 A 
HETATM   25  C   UNL     1      39.371 -14.219   1.467  1.00  0.00    -0.061 A 
HETATM   26  C   UNL     1      37.997 -14.295   0.865  1.00  0.00     0.048 C 
HETATM   27  C   UNL     1      40.469 -13.890   0.666  1.00  0.00     0.007 A 
HETATM   28  C   UNL     1      41.738 -13.770   1.227  1.00  0.00     0.001 A 
HETATM   29  C   UNL     1      41.913 -13.944   2.598  1.00  0.00     0.010 A 
ENDBRANCH   1  23
BRANCH   5  30
HETATM   30  C   UNL     1      39.983  -9.790   6.396  1.00  0.00     0.085 C 
BRANCH  30  31
HETATM   31  C   UNL     1      40.330  -8.784   5.299  1.00  0.00     0.034 C 
BRANCH  31  32
HETATM   32  C   UNL     1      41.699  -8.128   5.455  1.00  0.00     0.164 C 
BRANCH  32  33
HETATM   33  O   UNL     1      42.452  -8.222   4.255  1.00  0.00    -0.401 OA
HETATM   34  H   UNL     1      41.907  -7.816   3.552  1.00  0.00     0.209 HD
ENDBRANCH  32  33
ENDBRANCH  31  32
ENDBRANCH  30  31
ENDBRANCH   5  30
TORSDOF 7
ENDMDL
MODEL 4
REMARK VINA RESULT:      -8.0      2.994      5.903
REMARK  7 active torsions:
REMARK  status: ('A' for Active; 'I' for Inactive)
REMARK    1  A    between atoms: C_4  and  C_5 
REMARK    2  A    between atoms: C_9  and  C_10 
REMARK    3  A    between atoms: C_10  and  C_11 
REMARK    4  A    between atoms: C_11  and  C_12 
REMARK    5  A    between atoms: C_12  and  O_13 
REMARK    6  A    between atoms: C_18  and  C_19 
REMARK       I    between atoms: C_19  and  N_20 
REMARK    7  A    between atoms: N_20  and  C_21 
ROOT
HETATM    1  C   UNL     1      42.447 -14.193   3.908  1.00  0.00     0.202 A 
HETATM    2  N   UNL     1      42.857 -13.715   5.234  1.00  0.00    -0.083 N 
HETATM    3  C   UNL     1      42.182 -12.765   5.944  1.00  0.00     0.726 A 
HETATM    4  N   UNL     1      42.836 -12.485   7.041  1.00  0.00    -0.046 NA
HETATM    5  C   UNL     1      43.959 -13.267   6.936  1.00  0.00     0.166 A 
HETATM    6  N   UNL     1      44.027 -14.035   5.837  1.00  0.00    -0.140 NA
HETATM    7  N   UNL     1      41.046 -12.258   5.442  1.00  0.00    -0.192 N 
HETATM    8  C   UNL     1      40.534 -12.593   4.193  1.00  0.00     0.037 A 
HETATM    9  C   UNL     1      39.294 -11.826   3.793  1.00  0.00     0.070 C 
HETATM   10  C   UNL     1      41.161 -13.521   3.414  1.00  0.00     0.062 A 
HETATM   11  H   UNL     1      40.561 -11.539   5.972  1.00  0.00     0.184 HD
ENDROOT
BRANCH  10  12
HETATM   12  C   UNL     1      40.571 -13.917   2.082  1.00  0.00     0.256 C 
HETATM   13  N   UNL     1      41.340 -13.649   0.965  1.00  0.00    -0.323 N 
HETATM   14  H   UNL     1      42.331 -13.524   1.098  1.00  0.00     0.169 HD
HETATM   15  O   UNL     1      39.509 -14.536   2.046  1.00  0.00    -0.267 OA
BRANCH  13  16
HETATM   16  C   UNL     1      40.997 -14.067  -0.345  1.00  0.00     0.041 A 
HETATM   17  C   UNL     1      41.146 -15.377  -0.832  1.00  0.00    -0.035 A 
HETATM   18  C   UNL     1      41.585 -16.544   0.008  1.00  0.00     0.050 C 
HETATM   19  C   UNL     1      40.832 -15.636  -2.181  1.00  0.00     0.009 A 
HETATM   20  C   UNL     1      40.331 -14.634  -3.012  1.00  0.00     0.001 A 
HETATM   21  C   UNL     1      40.123 -13.358  -2.505  1.00  0.00     0.002 A 
HETATM   22  C   UNL     1      40.443 -13.079  -1.176  1.00  0.00     0.030 A 
ENDBRANCH  13  16
ENDBRANCH  10  12
BRANCH   1  23
HETATM   23  C   UNL     1      42.439 -15.724   3.885  1.00  0.00    -0.028 A 
HETATM   24  C   UNL     1      43.256 -16.473   3.020  1.00  0.00     0.016 A 
HETATM   25  C   UNL     1      43.283 -17.873   3.087  1.00  0.00    -0.061 A 
HETATM   26  C   UNL     1      44.232 -18.657   2.229  1.00  0.00     0.048 C 
HETATM   27  C   UNL     1      42.469 -18.532   4.015  1.00  0.00     0.007 A 
HETATM   28  C   UNL     1      41.623 -17.806   4.849  1.00  0.00     0.001 A 
HETATM   29  C   UNL     1      41.608 -16.415   4.786  1.00  0.00     0.010 A 
ENDBRANCH   1  23
BRANCH   5  30
HETATM   30  C   UNL     1      45.003 -13.298   7.991  1.00  0.00     0.085 C 
BRANCH  30  31
HETATM   31  C   UNL     1      45.085 -11.997   8.789  1.00  0.00     0.034 C 
BRANCH  31  32
HETATM   32  C   UNL     1      44.568 -12.102  10.220  1.00  0.00     0.164 C 
BRANCH  32  33
HETATM   33  O   UNL     1      44.168 -13.430  10.525  1.00  0.00    -0.401 OA
HETATM   34  H   UNL     1      43.197 -13.410  10.636  1.00  0.00     0.209 HD
ENDBRANCH  32  33
ENDBRANCH  31  32
ENDBRANCH  30  31
ENDBRANCH   5  30
TORSDOF 7
ENDMDL
MODEL 5
REMARK VINA RESULT:      -7.9      3.019      6.118
REMARK  7 active torsions:
REMARK  status: ('A' for Active; 'I' for Inactive)
REMARK    1  A    between atoms: C_4  and  C_5 
REMARK    2  A    between atoms: C_9  and  C_10 
REMARK    3  A    between atoms: C_10  and  C_11 
REMARK    4  A    between atoms: C_11  and  C_12 
REMARK    5  A    between atoms: C_12  and  O_13 
REMARK    6  A    between atoms: C_18  and  C_19 
REMARK       I    between atoms: C_19  and  N_20 
REMARK    7  A    between atoms: N_20  and  C_21 
ROOT
HETATM    1  C   UNL     1      42.826 -14.642   3.255  1.00  0.00     0.202 A 
HETATM    2  N   UNL     1      43.311 -14.205   4.571  1.00  0.00    -0.083 N 
HETATM    3  C   UNL     1      42.520 -13.633   5.524  1.00  0.00     0.726 A 
HETATM    4  N   UNL     1      43.251 -13.270   6.545  1.00  0.00    -0.046 NA
HETATM    5  C   UNL     1      44.521 -13.600   6.146  1.00  0.00     0.166 A 
HETATM    6  N   UNL     1      44.616 -14.168   4.933  1.00  0.00    -0.140 NA
HETATM    7  N   UNL     1      41.207 -13.495   5.286  1.00  0.00    -0.192 N 
HETATM    8  C   UNL     1      40.596 -13.842   4.086  1.00  0.00     0.037 A 
HETATM    9  C   UNL     1      39.123 -13.509   4.010  1.00  0.00     0.070 C 
HETATM   10  C   UNL     1      41.322 -14.403   3.077  1.00  0.00     0.062 A 
HETATM   11  H   UNL     1      40.631 -13.052   5.998  1.00  0.00     0.184 HD
ENDROOT
BRANCH  10  12
HETATM   12  C   UNL     1      40.641 -14.824   1.797  1.00  0.00     0.256 C 
HETATM   13  N   UNL     1      40.855 -14.019   0.694  1.00  0.00    -0.323 N 
HETATM   14  H   UNL     1      41.667 -13.422   0.699  1.00  0.00     0.169 HD
HETATM   15  O   UNL     1      40.027 -15.888   1.756  1.00  0.00    -0.267 OA
BRANCH  13  16
HETATM   16  C   UNL     1      40.399 -14.335  -0.611  1.00  0.00     0.041 A 
HETATM   17  C   UNL     1      39.186 -13.892  -1.165  1.00  0.00    -0.035 A 
HETATM   18  C   UNL     1      38.253 -12.926  -0.488  1.00  0.00     0.050 C 
HETATM   19  C   UNL     1      38.825 -14.343  -2.450  1.00  0.00     0.009 A 
HETATM   20  C   UNL     1      39.671 -15.169  -3.190  1.00  0.00     0.001 A 
HETATM   21  C   UNL     1      40.899 -15.548  -2.663  1.00  0.00     0.002 A 
HETATM   22  C   UNL     1      41.267 -15.123  -1.386  1.00  0.00     0.030 A 
ENDBRANCH  13  16
ENDBRANCH  10  12
BRANCH   1  23
HETATM   23  C   UNL     1      43.302 -16.068   2.971  1.00  0.00    -0.028 A 
HETATM   24  C   UNL     1      43.431 -17.040   3.979  1.00  0.00     0.016 A 
HETATM   25  C   UNL     1      43.788 -18.359   3.668  1.00  0.00    -0.061 A 
HETATM   26  C   UNL     1      43.826 -19.409   4.739  1.00  0.00     0.048 C 
HETATM   27  C   UNL     1      44.037 -18.706   2.336  1.00  0.00     0.007 A 
HETATM   28  C   UNL     1      43.955 -17.747   1.331  1.00  0.00     0.001 A 
HETATM   29  C   UNL     1      43.589 -16.440   1.644  1.00  0.00     0.010 A 
ENDBRANCH   1  23
BRANCH   5  30
HETATM   30  C   UNL     1      45.706 -13.389   7.016  1.00  0.00     0.085 C 
BRANCH  30  31
HETATM   31  C   UNL     1      45.356 -12.731   8.351  1.00  0.00     0.034 C 
BRANCH  31  32
HETATM   32  C   UNL     1      46.290 -11.596   8.758  1.00  0.00     0.164 C 
BRANCH  32  33
HETATM   33  O   UNL     1      47.278 -11.364   7.764  1.00  0.00    -0.401 OA
HETATM   34  H   UNL     1      46.941 -11.762   6.938  1.00  0.00     0.209 HD
ENDBRANCH  32  33
ENDBRANCH  31  32
ENDBRANCH  30  31
ENDBRANCH   5  30
TORSDOF 7
ENDMDL
MODEL 6
REMARK VINA RESULT:      -7.9      1.838      3.989
REMARK  7 active torsions:
REMARK  status: ('A' for Active; 'I' for Inactive)
REMARK    1  A    between atoms: C_4  and  C_5 
REMARK    2  A    between atoms: C_9  and  C_10 
REMARK    3  A    between atoms: C_10  and  C_11 
REMARK    4  A    between atoms: C_11  and  C_12 
REMARK    5  A    between atoms: C_12  and  O_13 
REMARK    6  A    between atoms: C_18  and  C_19 
REMARK       I    between atoms: C_19  and  N_20 
REMARK    7  A    between atoms: N_20  and  C_21 
ROOT
HETATM    1  C   UNL     1      40.901 -14.873   4.360  1.00  0.00     0.202 A 
HETATM    2  N   UNL     1      40.885 -13.486   4.842  1.00  0.00    -0.083 N 
HETATM    3  C   UNL     1      41.709 -13.011   5.821  1.00  0.00     0.726 A 
HETATM    4  N   UNL     1      41.398 -11.771   6.096  1.00  0.00    -0.046 NA
HETATM    5  C   UNL     1      40.320 -11.537   5.280  1.00  0.00     0.166 A 
HETATM    6  N   UNL     1      39.955 -12.565   4.497  1.00  0.00    -0.140 NA
HETATM    7  N   UNL     1      42.630 -13.827   6.354  1.00  0.00    -0.192 N 
HETATM    8  C   UNL     1      42.762 -15.170   6.018  1.00  0.00     0.037 A 
HETATM    9  C   UNL     1      43.804 -15.920   6.816  1.00  0.00     0.070 C 
HETATM   10  C   UNL     1      41.963 -15.726   5.063  1.00  0.00     0.062 A 
HETATM   11  H   UNL     1      43.226 -13.465   7.093  1.00  0.00     0.184 HD
ENDROOT
BRANCH  10  12
HETATM   12  C   UNL     1      42.147 -17.172   4.668  1.00  0.00     0.256 C 
HETATM   13  N   UNL     1      43.228 -17.453   3.853  1.00  0.00    -0.323 N 
HETATM   14  H   UNL     1      43.987 -16.790   3.837  1.00  0.00     0.169 HD
HETATM   15  O   UNL     1      41.415 -18.033   5.151  1.00  0.00    -0.267 OA
BRANCH  13  16
HETATM   16  C   UNL     1      43.622 -18.767   3.494  1.00  0.00     0.041 A 
HETATM   17  C   UNL     1      44.440 -19.600   4.275  1.00  0.00    -0.035 A 
HETATM   18  C   UNL     1      44.920 -19.254   5.657  1.00  0.00     0.050 C 
HETATM   19  C   UNL     1      44.811 -20.858   3.761  1.00  0.00     0.009 A 
HETATM   20  C   UNL     1      44.339 -21.302   2.526  1.00  0.00     0.001 A 
HETATM   21  C   UNL     1      43.476 -20.501   1.789  1.00  0.00     0.002 A 
HETATM   22  C   UNL     1      43.110 -19.246   2.276  1.00  0.00     0.030 A 
ENDBRANCH  13  16
ENDBRANCH  10  12
BRANCH   1  23
HETATM   23  C   UNL     1      40.950 -14.893   2.830  1.00  0.00    -0.028 A 
HETATM   24  C   UNL     1      41.427 -13.808   2.074  1.00  0.00     0.016 A 
HETATM   25  C   UNL     1      41.538 -13.895   0.679  1.00  0.00    -0.061 A 
HETATM   26  C   UNL     1      42.141 -12.768  -0.108  1.00  0.00     0.048 C 
HETATM   27  C   UNL     1      41.148 -15.072   0.032  1.00  0.00     0.007 A 
HETATM   28  C   UNL     1      40.635 -16.140   0.762  1.00  0.00     0.001 A 
HETATM   29  C   UNL     1      40.537 -16.053   2.149  1.00  0.00     0.010 A 
ENDBRANCH   1  23
BRANCH   5  30
HETATM   30  C   UNL     1      39.634 -10.221   5.231  1.00  0.00     0.085 C 
BRANCH  30  31
HETATM   31  C   UNL     1      39.155  -9.850   3.828  1.00  0.00     0.034 C 
BRANCH  31  32
HETATM   32  C   UNL     1      37.638  -9.790   3.675  1.00  0.00     0.164 C 
BRANCH  32  33
HETATM   33  O   UNL     1      37.193 -10.650   2.635  1.00  0.00    -0.401 OA
HETATM   34  H   UNL     1      37.398 -11.562   2.921  1.00  0.00     0.209 HD
ENDBRANCH  32  33
ENDBRANCH  31  32
ENDBRANCH  30  31
ENDBRANCH   5  30
TORSDOF 7
ENDMDL
MODEL 7
REMARK VINA RESULT:      -7.8      2.824      4.411
REMARK  7 active torsions:
REMARK  status: ('A' for Active; 'I' for Inactive)
REMARK    1  A    between atoms: C_4  and  C_5 
REMARK    2  A    between atoms: C_9  and  C_10 
REMARK    3  A    between atoms: C_10  and  C_11 
REMARK    4  A    between atoms: C_11  and  C_12 
REMARK    5  A    between atoms: C_12  and  O_13 
REMARK    6  A    between atoms: C_18  and  C_19 
REMARK       I    between atoms: C_19  and  N_20 
REMARK    7  A    between atoms: N_20  and  C_21 
ROOT
HETATM    1  C   UNL     1      42.305 -13.820   2.234  1.00  0.00     0.202 A 
HETATM    2  N   UNL     1      42.144 -13.193   0.916  1.00  0.00    -0.083 N 
HETATM    3  C   UNL     1      41.709 -13.854  -0.195  1.00  0.00     0.726 A 
HETATM    4  N   UNL     1      41.757 -13.057  -1.231  1.00  0.00    -0.046 NA
HETATM    5  C   UNL     1      42.289 -11.906  -0.707  1.00  0.00     0.166 A 
HETATM    6  N   UNL     1      42.557 -11.940   0.608  1.00  0.00    -0.140 NA
HETATM    7  N   UNL     1      41.354 -15.143  -0.091  1.00  0.00    -0.192 N 
HETATM    8  C   UNL     1      41.464 -15.885   1.080  1.00  0.00     0.037 A 
HETATM    9  C   UNL     1      41.095 -17.344   0.939  1.00  0.00     0.070 C 
HETATM   10  C   UNL     1      41.908 -15.301   2.230  1.00  0.00     0.062 A 
HETATM   11  H   UNL     1      41.047 -15.629  -0.930  1.00  0.00     0.184 HD
ENDROOT
BRANCH  10  12
HETATM   12  C   UNL     1      41.976 -16.100   3.509  1.00  0.00     0.256 C 
HETATM   13  N   UNL     1      43.208 -16.637   3.835  1.00  0.00    -0.323 N 
HETATM   14  H   UNL     1      44.025 -16.219   3.417  1.00  0.00     0.169 HD
HETATM   15  O   UNL     1      40.992 -16.157   4.244  1.00  0.00    -0.267 OA
BRANCH  13  16
HETATM   16  C   UNL     1      43.478 -17.302   5.057  1.00  0.00     0.041 A 
HETATM   17  C   UNL     1      43.904 -16.669   6.236  1.00  0.00    -0.035 A 
HETATM   18  C   UNL     1      44.023 -15.178   6.398  1.00  0.00     0.050 C 
HETATM   19  C   UNL     1      44.206 -17.464   7.359  1.00  0.00     0.009 A 
HETATM   20  C   UNL     1      44.038 -18.848   7.331  1.00  0.00     0.001 A 
HETATM   21  C   UNL     1      43.552 -19.461   6.183  1.00  0.00     0.002 A 
HETATM   22  C   UNL     1      43.262 -18.691   5.056  1.00  0.00     0.030 A 
ENDBRANCH  13  16
ENDBRANCH  10  12
BRANCH   1  23
HETATM   23  C   UNL     1      41.629 -12.963   3.306  1.00  0.00    -0.028 A 
HETATM   24  C   UNL     1      40.347 -12.410   3.138  1.00  0.00     0.016 A 
HETATM   25  C   UNL     1      39.726 -11.702   4.175  1.00  0.00    -0.061 A 
HETATM   26  C   UNL     1      38.319 -11.202   4.019  1.00  0.00     0.048 C 
HETATM   27  C   UNL     1      40.401 -11.527   5.388  1.00  0.00     0.007 A 
HETATM   28  C   UNL     1      41.687 -12.032   5.557  1.00  0.00     0.001 A 
HETATM   29  C   UNL     1      42.296 -12.745   4.526  1.00  0.00     0.010 A 
ENDBRANCH   1  23
BRANCH   5  30
HETATM   30  C   UNL     1      42.507 -10.689  -1.528  1.00  0.00     0.085 C 
BRANCH  30  31
HETATM   31  C   UNL     1      43.798  -9.952  -1.172  1.00  0.00     0.034 C 
BRANCH  31  32
HETATM   32  C   UNL     1      43.588  -8.631  -0.439  1.00  0.00     0.164 C 
BRANCH  32  33
HETATM   33  O   UNL     1      42.713  -8.792   0.668  1.00  0.00    -0.401 OA
HETATM   34  H   UNL     1      42.041  -8.085   0.597  1.00  0.00     0.209 HD
ENDBRANCH  32  33
ENDBRANCH  31  32
ENDBRANCH  30  31
ENDBRANCH   5  30
TORSDOF 7
ENDMDL
MODEL 8
REMARK VINA RESULT:      -7.8      2.954      4.696
REMARK  7 active torsions:
REMARK  status: ('A' for Active; 'I' for Inactive)
REMARK    1  A    between atoms: C_4  and  C_5 
REMARK    2  A    between atoms: C_9  and  C_10 
REMARK    3  A    between atoms: C_10  and  C_11 
REMARK    4  A    between atoms: C_11  and  C_12 
REMARK    5  A    between atoms: C_12  and  O_13 
REMARK    6  A    between atoms: C_18  and  C_19 
REMARK       I    between atoms: C_19  and  N_20 
REMARK    7  A    between atoms: N_20  and  C_21 
ROOT
HETATM    1  C   UNL     1      42.195 -14.064   2.482  1.00  0.00     0.202 A 
HETATM    2  N   UNL     1      42.072 -13.423   1.167  1.00  0.00    -0.083 N 
HETATM    3  C   UNL     1      41.760 -14.091   0.019  1.00  0.00     0.726 A 
HETATM    4  N   UNL     1      41.814 -13.272  -0.998  1.00  0.00    -0.046 NA
HETATM    5  C   UNL     1      42.224 -12.095  -0.423  1.00  0.00     0.166 A 
HETATM    6  N   UNL     1      42.409 -12.137   0.906  1.00  0.00    -0.140 NA
HETATM    7  N   UNL     1      41.496 -15.405   0.079  1.00  0.00    -0.192 N 
HETATM    8  C   UNL     1      41.586 -16.160   1.243  1.00  0.00     0.037 A 
HETATM    9  C   UNL     1      41.338 -17.640   1.055  1.00  0.00     0.070 C 
HETATM   10  C   UNL     1      41.912 -15.569   2.429  1.00  0.00     0.062 A 
HETATM   11  H   UNL     1      41.280 -15.895  -0.785  1.00  0.00     0.184 HD
ENDROOT
BRANCH  10  12
HETATM   12  C   UNL     1      41.957 -16.388   3.697  1.00  0.00     0.256 C 
HETATM   13  N   UNL     1      43.209 -16.786   4.127  1.00  0.00    -0.323 N 
HETATM   14  H   UNL     1      44.006 -16.267   3.793  1.00  0.00     0.169 HD
HETATM   15  O   UNL     1      40.924 -16.576   4.337  1.00  0.00    -0.267 OA
BRANCH  13  16
HETATM   16  C   UNL     1      43.444 -17.447   5.359  1.00  0.00     0.041 A 
HETATM   17  C   UNL     1      43.720 -16.799   6.575  1.00  0.00    -0.035 A 
HETATM   18  C   UNL     1      43.690 -15.307   6.761  1.00  0.00     0.050 C 
HETATM   19  C   UNL     1      44.006 -17.584   7.709  1.00  0.00     0.009 A 
HETATM   20  C   UNL     1      43.967 -18.977   7.652  1.00  0.00     0.001 A 
HETATM   21  C   UNL     1      43.627 -19.610   6.463  1.00  0.00     0.002 A 
HETATM   22  C   UNL     1      43.356 -18.849   5.326  1.00  0.00     0.030 A 
ENDBRANCH  13  16
ENDBRANCH  10  12
BRANCH   1  23
HETATM   23  C   UNL     1      41.390 -13.281   3.522  1.00  0.00    -0.028 A 
HETATM   24  C   UNL     1      41.966 -12.767   4.697  1.00  0.00     0.016 A 
HETATM   25  C   UNL     1      41.216 -11.982   5.583  1.00  0.00    -0.061 A 
HETATM   26  C   UNL     1      41.867 -11.356   6.783  1.00  0.00     0.048 C 
HETATM   27  C   UNL     1      39.870 -11.725   5.303  1.00  0.00     0.007 A 
HETATM   28  C   UNL     1      39.273 -12.261   4.165  1.00  0.00     0.001 A 
HETATM   29  C   UNL     1      40.026 -13.031   3.281  1.00  0.00     0.010 A 
ENDBRANCH   1  23
BRANCH   5  30
HETATM   30  C   UNL     1      42.402 -10.849  -1.209  1.00  0.00     0.085 C 
BRANCH  30  31
HETATM   31  C   UNL     1      41.581 -10.833  -2.498  1.00  0.00     0.034 C 
BRANCH  31  32
HETATM   32  C   UNL     1      42.380 -11.151  -3.759  1.00  0.00     0.164 C 
BRANCH  32  33
HETATM   33  O   UNL     1      42.520 -12.552  -3.938  1.00  0.00    -0.401 OA
HETATM   34  H   UNL     1      41.667 -12.875  -4.290  1.00  0.00     0.209 HD
ENDBRANCH  32  33
ENDBRANCH  31  32
ENDBRANCH  30  31
ENDBRANCH   5  30
TORSDOF 7
ENDMDL
MODEL 9
REMARK VINA RESULT:      -7.6      2.732      4.845
REMARK  7 active torsions:
REMARK  status: ('A' for Active; 'I' for Inactive)
REMARK    1  A    between atoms: C_4  and  C_5 
REMARK    2  A    between atoms: C_9  and  C_10 
REMARK    3  A    between atoms: C_10  and  C_11 
REMARK    4  A    between atoms: C_11  and  C_12 
REMARK    5  A    between atoms: C_12  and  O_13 
REMARK    6  A    between atoms: C_18  and  C_19 
REMARK       I    between atoms: C_19  and  N_20 
REMARK    7  A    between atoms: N_20  and  C_21 
ROOT
HETATM    1  C   UNL     1      39.667 -14.098   2.263  1.00  0.00     0.202 A 
HETATM    2  N   UNL     1      39.125 -12.800   2.687  1.00  0.00    -0.083 N 
HETATM    3  C   UNL     1      39.202 -12.322   3.962  1.00  0.00     0.726 A 
HETATM    4  N   UNL     1      38.554 -11.190   4.050  1.00  0.00    -0.046 NA
HETATM    5  C   UNL     1      38.038 -11.034   2.788  1.00  0.00     0.166 A 
HETATM    6  N   UNL     1      38.350 -12.004   1.913  1.00  0.00    -0.140 NA
HETATM    7  N   UNL     1      39.851 -13.039   4.891  1.00  0.00    -0.192 N 
HETATM    8  C   UNL     1      40.404 -14.294   4.655  1.00  0.00     0.037 A 
HETATM    9  C   UNL     1      41.002 -14.959   5.874  1.00  0.00     0.070 C 
HETATM   10  C   UNL     1      40.351 -14.850   3.410  1.00  0.00     0.062 A 
HETATM   11  H   UNL     1      39.888 -12.680   5.841  1.00  0.00     0.184 HD
ENDROOT
BRANCH  10  12
HETATM   12  C   UNL     1      40.999 -16.188   3.150  1.00  0.00     0.256 C 
HETATM   13  N   UNL     1      42.350 -16.281   3.428  1.00  0.00    -0.323 N 
HETATM   14  H   UNL     1      42.745 -15.608   4.066  1.00  0.00     0.169 HD
HETATM   15  O   UNL     1      40.306 -17.144   2.810  1.00  0.00    -0.267 OA
BRANCH  13  16
HETATM   16  C   UNL     1      43.085 -17.492   3.364  1.00  0.00     0.041 A 
HETATM   17  C   UNL     1      43.567 -18.074   2.179  1.00  0.00    -0.035 A 
HETATM   18  C   UNL     1      43.467 -17.433   0.823  1.00  0.00     0.050 C 
HETATM   19  C   UNL     1      44.221 -19.320   2.256  1.00  0.00     0.009 A 
HETATM   20  C   UNL     1      44.440 -19.947   3.483  1.00  0.00     0.001 A 
HETATM   21  C   UNL     1      44.021 -19.333   4.656  1.00  0.00     0.002 A 
HETATM   22  C   UNL     1      43.358 -18.107   4.598  1.00  0.00     0.030 A 
ENDBRANCH  13  16
ENDBRANCH  10  12
BRANCH   1  23
HETATM   23  C   UNL     1      40.511 -13.923   0.998  1.00  0.00    -0.028 A 
HETATM   24  C   UNL     1      40.394 -14.774  -0.115  1.00  0.00     0.016 A 
HETATM   25  C   UNL     1      41.122 -14.532  -1.288  1.00  0.00    -0.061 A 
HETATM   26  C   UNL     1      40.915 -15.389  -2.502  1.00  0.00     0.048 C 
HETATM   27  C   UNL     1      41.991 -13.437  -1.342  1.00  0.00     0.007 A 
HETATM   28  C   UNL     1      42.149 -12.608  -0.235  1.00  0.00     0.001 A 
HETATM   29  C   UNL     1      41.416 -12.847   0.925  1.00  0.00     0.010 A 
ENDBRANCH   1  23
BRANCH   5  30
HETATM   30  C   UNL     1      37.232  -9.848   2.402  1.00  0.00     0.085 C 
BRANCH  30  31
HETATM   31  C   UNL     1      36.842  -9.847   0.924  1.00  0.00     0.034 C 
BRANCH  31  32
HETATM   32  C   UNL     1      35.425 -10.337   0.645  1.00  0.00     0.164 C 
BRANCH  32  33
HETATM   33  O   UNL     1      35.354 -11.755   0.693  1.00  0.00    -0.401 OA
HETATM   34  H   UNL     1      35.269 -12.061  -0.232  1.00  0.00     0.209 HD
ENDBRANCH  32  33
ENDBRANCH  31  32
ENDBRANCH  30  31
ENDBRANCH   5  30
TORSDOF 7
ENDMDL
MODEL 10
REMARK VINA RESULT:      -7.5      3.223      5.289
REMARK  7 active torsions:
REMARK  status: ('A' for Active; 'I' for Inactive)
REMARK    1  A    between atoms: C_4  and  C_5 
REMARK    2  A    between atoms: C_9  and  C_10 
REMARK    3  A    between atoms: C_10  and  C_11 
REMARK    4  A    between atoms: C_11  and  C_12 
REMARK    5  A    between atoms: C_12  and  O_13 
REMARK    6  A    between atoms: C_18  and  C_19 
REMARK       I    between atoms: C_19  and  N_20 
REMARK    7  A    between atoms: N_20  and  C_21 
ROOT
HETATM    1  C   UNL     1      39.691 -13.753   1.406  1.00  0.00     0.202 A 
HETATM    2  N   UNL     1      38.700 -12.669   1.392  1.00  0.00    -0.083 N 
HETATM    3  C   UNL     1      38.451 -11.850   2.454  1.00  0.00     0.726 A 
HETATM    4  N   UNL     1      37.458 -11.048   2.171  1.00  0.00    -0.046 NA
HETATM    5  C   UNL     1      37.086 -11.454   0.914  1.00  0.00     0.166 A 
HETATM    6  N   UNL     1      37.811 -12.457   0.393  1.00  0.00    -0.140 NA
HETATM    7  N   UNL     1      39.176 -11.992   3.573  1.00  0.00    -0.192 N 
HETATM    8  C   UNL     1      40.139 -12.980   3.752  1.00  0.00     0.037 A 
HETATM    9  C   UNL     1      40.762 -13.010   5.130  1.00  0.00     0.070 C 
HETATM   10  C   UNL     1      40.433 -13.850   2.744  1.00  0.00     0.062 A 
HETATM   11  H   UNL     1      38.970 -11.386   4.363  1.00  0.00     0.184 HD
ENDROOT
BRANCH  10  12
HETATM   12  C   UNL     1      41.516 -14.887   2.929  1.00  0.00     0.256 C 
HETATM   13  N   UNL     1      41.097 -16.200   3.034  1.00  0.00    -0.323 N 
HETATM   14  H   UNL     1      40.187 -16.432   2.668  1.00  0.00     0.169 HD
HETATM   15  O   UNL     1      42.696 -14.549   2.878  1.00  0.00    -0.267 OA
BRANCH  13  16
HETATM   16  C   UNL     1      41.982 -17.307   3.082  1.00  0.00     0.041 A 
HETATM   17  C   UNL     1      42.496 -17.869   4.263  1.00  0.00    -0.035 A 
HETATM   18  C   UNL     1      42.089 -17.446   5.647  1.00  0.00     0.050 C 
HETATM   19  C   UNL     1      43.425 -18.923   4.159  1.00  0.00     0.009 A 
HETATM   20  C   UNL     1      43.794 -19.443   2.919  1.00  0.00     0.001 A 
HETATM   21  C   UNL     1      43.230 -18.927   1.759  1.00  0.00     0.002 A 
HETATM   22  C   UNL     1      42.320 -17.872   1.841  1.00  0.00     0.030 A 
ENDBRANCH  13  16
ENDBRANCH  10  12
BRANCH   1  23
HETATM   23  C   UNL     1      40.583 -13.661   0.166  1.00  0.00    -0.028 A 
HETATM   24  C   UNL     1      40.527 -14.600  -0.879  1.00  0.00     0.016 A 
HETATM   25  C   UNL     1      41.298 -14.436  -2.037  1.00  0.00    -0.061 A 
HETATM   26  C   UNL     1      41.156 -15.390  -3.187  1.00  0.00     0.048 C 
HETATM   27  C   UNL     1      42.151 -13.332  -2.144  1.00  0.00     0.007 A 
HETATM   28  C   UNL     1      42.249 -12.416  -1.100  1.00  0.00     0.001 A 
HETATM   29  C   UNL     1      41.472 -12.577   0.044  1.00  0.00     0.010 A 
ENDBRANCH   1  23
BRANCH   5  30
HETATM   30  C   UNL     1      35.989 -10.795   0.161  1.00  0.00     0.085 C 
BRANCH  30  31
HETATM   31  C   UNL     1      34.617 -11.001   0.804  1.00  0.00     0.034 C 
BRANCH  31  32
HETATM   32  C   UNL     1      34.109  -9.804   1.601  1.00  0.00     0.164 C 
BRANCH  32  33
HETATM   33  O   UNL     1      34.720  -9.745   2.882  1.00  0.00    -0.401 OA
HETATM   34  H   UNL     1      35.416  -9.060   2.827  1.00  0.00     0.209 HD
ENDBRANCH  32  33
ENDBRANCH  31  32
ENDBRANCH  30  31
ENDBRANCH   5  30
TORSDOF 7
ENDMDL
