MODEL 1
REMARK VINA RESULT:      -8.9      0.000      0.000
REMARK  3 active torsions:
REMARK  status: ('A' for Active; 'I' for Inactive)
REMARK    1  A    between atoms: C_6  and  C_7 
REMARK    2  A    between atoms: C_14  and  N_15 
REMARK    3  A    between atoms: N_15  and  C_16 
ROOT
HETATM    1  C   UNL     1      40.934 -15.437   5.852  1.00  0.00     0.001 A 
HETATM    2  C   UNL     1      41.879 -15.995   4.993  1.00  0.00     0.018 A 
HETATM    3  C   UNL     1      41.838 -15.738   3.598  1.00  0.00     0.039 A 
HETATM    4  C   UNL     1      40.823 -14.927   3.078  1.00  0.00     0.073 A 
HETATM    5  N   UNL     1      40.705 -14.657   1.777  1.00  0.00    -0.228 NA
HETATM    6  C   UNL     1      41.608 -15.201   0.945  1.00  0.00     0.164 A 
HETATM    7  N   UNL     1      42.622 -15.986   1.336  1.00  0.00    -0.210 NA
HETATM    8  C   UNL     1      42.744 -16.249   2.650  1.00  0.00     0.143 A 
HETATM    9  C   UNL     1      39.892 -14.380   3.955  1.00  0.00     0.032 A 
HETATM   10  C   UNL     1      39.938 -14.623   5.330  1.00  0.00     0.002 A 
ENDROOT
BRANCH   8  11
HETATM   11  N   UNL     1      43.823 -17.055   3.100  1.00  0.00    -0.340 N 
HETATM   12  H   UNL     1      44.694 -16.560   2.941  1.00  0.00     0.167 HD
BRANCH  11  13
HETATM   13  C   UNL     1      43.990 -18.456   2.992  1.00  0.00     0.036 A 
HETATM   14  C   UNL     1      44.444 -19.168   4.117  1.00  0.00     0.069 A 
HETATM   15  C   UNL     1      44.529 -20.544   4.039  1.00  0.00     0.107 A 
HETATM   16  C   UNL     1      44.164 -21.231   2.908  1.00  0.00     0.105 A 
HETATM   17  O   UNL     1      44.954 -21.369   5.034  1.00  0.00    -0.323 OA
HETATM   18  O   UNL     1      44.316 -22.575   3.043  1.00  0.00    -0.323 OA
HETATM   19  C   UNL     1      43.686 -20.580   1.796  1.00  0.00     0.042 A 
HETATM   20  C   UNL     1      44.810 -22.657   4.396  1.00  0.00     0.352 A 
HETATM   21  C   UNL     1      43.587 -19.183   1.851  1.00  0.00     0.032 A 
ENDBRANCH  11  13
ENDBRANCH   8  11
BRANCH   6  22
HETATM   22  C   UNL     1      41.480 -14.916  -0.490  1.00  0.00     0.029 A 
HETATM   23  C   UNL     1      41.781 -13.662  -1.023  1.00  0.00     0.131 A 
HETATM   24  N   UNL     1      41.686 -13.322  -2.336  1.00  0.00    -0.272 NA
HETATM   25  C   UNL     1      41.267 -14.287  -3.180  1.00  0.00     0.116 A 
HETATM   26  C   UNL     1      40.940 -15.568  -2.773  1.00  0.00     0.020 A 
HETATM   27  C   UNL     1      41.049 -15.879  -1.418  1.00  0.00     0.018 A 
ENDBRANCH   6  22
TORSDOF 3
ENDMDL
MODEL 2
REMARK VINA RESULT:      -8.9      3.591      7.606
REMARK  3 active torsions:
REMARK  status: ('A' for Active; 'I' for Inactive)
REMARK    1  A    between atoms: C_6  and  C_7 
REMARK    2  A    between atoms: C_14  and  N_15 
REMARK    3  A    between atoms: N_15  and  C_16 
ROOT
HETATM    1  C   UNL     1      43.751 -21.482   1.920  1.00  0.00     0.001 A 
HETATM    2  C   UNL     1      43.034 -20.299   1.755  1.00  0.00     0.018 A 
HETATM    3  C   UNL     1      43.191 -19.218   2.661  1.00  0.00     0.039 A 
HETATM    4  C   UNL     1      44.067 -19.353   3.744  1.00  0.00     0.073 A 
HETATM    5  N   UNL     1      44.252 -18.390   4.650  1.00  0.00    -0.228 NA
HETATM    6  C   UNL     1      43.555 -17.252   4.500  1.00  0.00     0.164 A 
HETATM    7  N   UNL     1      42.695 -17.017   3.498  1.00  0.00    -0.210 NA
HETATM    8  C   UNL     1      42.517 -17.985   2.582  1.00  0.00     0.143 A 
HETATM    9  C   UNL     1      44.773 -20.542   3.887  1.00  0.00     0.032 A 
HETATM   10  C   UNL     1      44.628 -21.602   2.989  1.00  0.00     0.002 A 
ENDROOT
BRANCH   8  11
HETATM   11  N   UNL     1      41.634 -17.757   1.492  1.00  0.00    -0.340 N 
HETATM   12  H   UNL     1      41.925 -18.328   0.706  1.00  0.00     0.167 HD
BRANCH  11  13
HETATM   13  C   UNL     1      41.042 -16.545   1.068  1.00  0.00     0.036 A 
HETATM   14  C   UNL     1      41.428 -16.004  -0.172  1.00  0.00     0.069 A 
HETATM   15  C   UNL     1      40.793 -14.865  -0.625  1.00  0.00     0.107 A 
HETATM   16  C   UNL     1      39.785 -14.265   0.088  1.00  0.00     0.105 A 
HETATM   17  O   UNL     1      41.058 -14.222  -1.794  1.00  0.00    -0.323 OA
HETATM   18  O   UNL     1      39.289 -13.165  -0.538  1.00  0.00    -0.323 OA
HETATM   19  C   UNL     1      39.352 -14.775   1.289  1.00  0.00     0.042 A 
HETATM   20  C   UNL     1      40.095 -13.147  -1.734  1.00  0.00     0.352 A 
HETATM   21  C   UNL     1      39.980 -15.933   1.769  1.00  0.00     0.032 A 
ENDBRANCH  11  13
ENDBRANCH   8  11
BRANCH   6  22
HETATM   22  C   UNL     1      43.747 -16.192   5.498  1.00  0.00     0.029 A 
HETATM   23  C   UNL     1      44.085 -16.478   6.821  1.00  0.00     0.131 A 
HETATM   24  N   UNL     1      44.277 -15.554   7.800  1.00  0.00    -0.272 NA
HETATM   25  C   UNL     1      44.127 -14.261   7.447  1.00  0.00     0.116 A 
HETATM   26  C   UNL     1      43.795 -13.852   6.169  1.00  0.00     0.020 A 
HETATM   27  C   UNL     1      43.605 -14.829   5.191  1.00  0.00     0.018 A 
ENDBRANCH   6  22
TORSDOF 3
ENDMDL
MODEL 3
REMARK VINA RESULT:      -8.9      3.589      7.028
REMARK  3 active torsions:
REMARK  status: ('A' for Active; 'I' for Inactive)
REMARK    1  A    between atoms: C_6  and  C_7 
REMARK    2  A    between atoms: C_14  and  N_15 
REMARK    3  A    between atoms: N_15  and  C_16 
ROOT
HETATM    1  C   UNL     1      41.940 -13.202   5.535  1.00  0.00     0.001 A 
HETATM    2  C   UNL     1      41.233 -14.017   4.653  1.00  0.00     0.018 A 
HETATM    3  C   UNL     1      41.722 -15.301   4.295  1.00  0.00     0.039 A 
HETATM    4  C   UNL     1      42.939 -15.744   4.824  1.00  0.00     0.073 A 
HETATM    5  N   UNL     1      43.475 -16.928   4.520  1.00  0.00    -0.228 NA
HETATM    6  C   UNL     1      42.801 -17.712   3.662  1.00  0.00     0.164 A 
HETATM    7  N   UNL     1      41.627 -17.388   3.102  1.00  0.00    -0.210 NA
HETATM    8  C   UNL     1      41.085 -16.199   3.418  1.00  0.00     0.143 A 
HETATM    9  C   UNL     1      43.626 -14.913   5.704  1.00  0.00     0.032 A 
HETATM   10  C   UNL     1      43.140 -13.654   6.065  1.00  0.00     0.002 A 
ENDROOT
BRANCH   8  11
HETATM   11  N   UNL     1      39.829 -15.837   2.863  1.00  0.00    -0.340 N 
HETATM   12  H   UNL     1      39.180 -16.608   2.984  1.00  0.00     0.167 HD
BRANCH  11  13
HETATM   13  C   UNL     1      39.556 -15.106   1.684  1.00  0.00     0.036 A 
HETATM   14  C   UNL     1      40.542 -15.050   0.682  1.00  0.00     0.069 A 
HETATM   15  C   UNL     1      40.248 -14.406  -0.503  1.00  0.00     0.107 A 
HETATM   16  C   UNL     1      39.018 -13.842  -0.735  1.00  0.00     0.105 A 
HETATM   17  O   UNL     1      41.093 -14.263  -1.558  1.00  0.00    -0.323 OA
HETATM   18  O   UNL     1      38.933 -13.267  -1.965  1.00  0.00    -0.323 OA
HETATM   19  C   UNL     1      38.013 -13.898   0.201  1.00  0.00     0.042 A 
HETATM   20  C   UNL     1      40.250 -13.544  -2.485  1.00  0.00     0.352 A 
HETATM   21  C   UNL     1      38.287 -14.550   1.411  1.00  0.00     0.032 A 
ENDBRANCH  11  13
ENDBRANCH   8  11
BRANCH   6  22
HETATM   22  C   UNL     1      43.389 -19.012   3.314  1.00  0.00     0.029 A 
HETATM   23  C   UNL     1      44.280 -19.669   4.163  1.00  0.00     0.131 A 
HETATM   24  N   UNL     1      44.864 -20.871   3.911  1.00  0.00    -0.272 NA
HETATM   25  C   UNL     1      44.545 -21.464   2.742  1.00  0.00     0.116 A 
HETATM   26  C   UNL     1      43.674 -20.913   1.820  1.00  0.00     0.020 A 
HETATM   27  C   UNL     1      43.095 -19.679   2.113  1.00  0.00     0.018 A 
ENDBRANCH   6  22
TORSDOF 3
ENDMDL
MODEL 4
REMARK VINA RESULT:      -8.8      3.491      6.967
REMARK  3 active torsions:
REMARK  status: ('A' for Active; 'I' for Inactive)
REMARK    1  A    between atoms: C_6  and  C_7 
REMARK    2  A    between atoms: C_14  and  N_15 
REMARK    3  A    between atoms: N_15  and  C_16 
ROOT
HETATM    1  C   UNL     1      39.641 -13.763   4.735  1.00  0.00     0.001 A 
HETATM    2  C   UNL     1      39.834 -14.343   3.482  1.00  0.00     0.018 A 
HETATM    3  C   UNL     1      40.626 -15.511   3.333  1.00  0.00     0.039 A 
HETATM    4  C   UNL     1      41.236 -16.075   4.459  1.00  0.00     0.073 A 
HETATM    5  N   UNL     1      42.012 -17.159   4.396  1.00  0.00    -0.228 NA
HETATM    6  C   UNL     1      42.208 -17.714   3.190  1.00  0.00     0.164 A 
HETATM    7  N   UNL     1      41.669 -17.259   2.049  1.00  0.00    -0.210 NA
HETATM    8  C   UNL     1      40.880 -16.172   2.117  1.00  0.00     0.143 A 
HETATM    9  C   UNL     1      41.027 -15.480   5.699  1.00  0.00     0.032 A 
HETATM   10  C   UNL     1      40.238 -14.337   5.848  1.00  0.00     0.002 A 
ENDROOT
BRANCH   8  11
HETATM   11  N   UNL     1      40.272 -15.680   0.931  1.00  0.00    -0.340 N 
HETATM   12  H   UNL     1      39.732 -16.424   0.503  1.00  0.00     0.167 HD
BRANCH  11  13
HETATM   13  C   UNL     1      40.801 -14.795  -0.037  1.00  0.00     0.036 A 
HETATM   14  C   UNL     1      41.495 -13.653   0.401  1.00  0.00     0.069 A 
HETATM   15  C   UNL     1      42.082 -12.832  -0.541  1.00  0.00     0.107 A 
HETATM   16  C   UNL     1      42.027 -13.113  -1.883  1.00  0.00     0.105 A 
HETATM   17  O   UNL     1      42.777 -11.693  -0.276  1.00  0.00    -0.323 OA
HETATM   18  O   UNL     1      42.676 -12.186  -2.636  1.00  0.00    -0.323 OA
HETATM   19  C   UNL     1      41.388 -14.235  -2.357  1.00  0.00     0.042 A 
HETATM   20  C   UNL     1      43.156 -11.292  -1.611  1.00  0.00     0.352 A 
HETATM   21  C   UNL     1      40.786 -15.085  -1.420  1.00  0.00     0.032 A 
ENDBRANCH  11  13
ENDBRANCH   8  11
BRANCH   6  22
HETATM   22  C   UNL     1      43.069 -18.902   3.111  1.00  0.00     0.029 A 
HETATM   23  C   UNL     1      43.930 -19.257   4.150  1.00  0.00     0.131 A 
HETATM   24  N   UNL     1      44.756 -20.338   4.150  1.00  0.00    -0.272 NA
HETATM   25  C   UNL     1      44.728 -21.120   3.052  1.00  0.00     0.116 A 
HETATM   26  C   UNL     1      43.916 -20.872   1.959  1.00  0.00     0.020 A 
HETATM   27  C   UNL     1      43.083 -19.754   1.995  1.00  0.00     0.018 A 
ENDBRANCH   6  22
TORSDOF 3
ENDMDL
MODEL 5
REMARK VINA RESULT:      -8.5      3.744      7.431
REMARK  3 active torsions:
REMARK  status: ('A' for Active; 'I' for Inactive)
REMARK    1  A    between atoms: C_6  and  C_7 
REMARK    2  A    between atoms: C_14  and  N_15 
REMARK    3  A    between atoms: N_15  and  C_16 
ROOT
HETATM    1  C   UNL     1      39.878 -14.220   0.072  1.00  0.00     0.001 A 
HETATM    2  C   UNL     1      39.941 -14.619   1.405  1.00  0.00     0.018 A 
HETATM    3  C   UNL     1      40.753 -15.713   1.802  1.00  0.00     0.039 A 
HETATM    4  C   UNL     1      41.487 -16.410   0.834  1.00  0.00     0.073 A 
HETATM    5  N   UNL     1      42.256 -17.461   1.124  1.00  0.00    -0.228 NA
HETATM    6  C   UNL     1      42.311 -17.855   2.407  1.00  0.00     0.164 A 
HETATM    7  N   UNL     1      41.654 -17.258   3.412  1.00  0.00    -0.210 NA
HETATM    8  C   UNL     1      40.888 -16.193   3.118  1.00  0.00     0.143 A 
HETATM    9  C   UNL     1      41.409 -15.991  -0.490  1.00  0.00     0.032 A 
HETATM   10  C   UNL     1      40.618 -14.907  -0.879  1.00  0.00     0.002 A 
ENDROOT
BRANCH   8  11
HETATM   11  N   UNL     1      40.200 -15.521   4.164  1.00  0.00    -0.340 N 
HETATM   12  H   UNL     1      39.204 -15.544   3.974  1.00  0.00     0.167 HD
BRANCH  11  13
HETATM   13  C   UNL     1      40.572 -14.346   4.859  1.00  0.00     0.036 A 
HETATM   14  C   UNL     1      39.569 -13.596   5.499  1.00  0.00     0.069 A 
HETATM   15  C   UNL     1      39.939 -12.495   6.246  1.00  0.00     0.107 A 
HETATM   16  C   UNL     1      41.254 -12.131   6.397  1.00  0.00     0.105 A 
HETATM   17  O   UNL     1      39.090 -11.670   6.915  1.00  0.00    -0.323 OA
HETATM   18  O   UNL     1      41.401 -11.027   7.176  1.00  0.00    -0.323 OA
HETATM   19  C   UNL     1      42.270 -12.851   5.816  1.00  0.00     0.042 A 
HETATM   20  C   UNL     1      40.026 -10.743   7.508  1.00  0.00     0.352 A 
HETATM   21  C   UNL     1      41.920 -13.975   5.055  1.00  0.00     0.032 A 
ENDBRANCH  11  13
ENDBRANCH   8  11
BRANCH   6  22
HETATM   22  C   UNL     1      43.148 -19.017   2.733  1.00  0.00     0.029 A 
HETATM   23  C   UNL     1      43.867 -19.096   3.926  1.00  0.00     0.131 A 
HETATM   24  N   UNL     1      44.662 -20.135   4.297  1.00  0.00    -0.272 NA
HETATM   25  C   UNL     1      44.750 -21.166   3.432  1.00  0.00     0.116 A 
HETATM   26  C   UNL     1      44.084 -21.205   2.220  1.00  0.00     0.020 A 
HETATM   27  C   UNL     1      43.279 -20.120   1.874  1.00  0.00     0.018 A 
ENDBRANCH   6  22
TORSDOF 3
ENDMDL
MODEL 6
REMARK VINA RESULT:      -8.5      1.010      1.535
REMARK  3 active torsions:
REMARK  status: ('A' for Active; 'I' for Inactive)
REMARK    1  A    between atoms: C_6  and  C_7 
REMARK    2  A    between atoms: C_14  and  N_15 
REMARK    3  A    between atoms: N_15  and  C_16 
ROOT
HETATM    1  C   UNL     1      41.157 -14.874   5.657  1.00  0.00     0.001 A 
HETATM    2  C   UNL     1      41.993 -15.438   4.697  1.00  0.00     0.018 A 
HETATM    3  C   UNL     1      41.700 -15.319   3.313  1.00  0.00     0.039 A 
HETATM    4  C   UNL     1      40.544 -14.639   2.913  1.00  0.00     0.073 A 
HETATM    5  N   UNL     1      40.189 -14.503   1.633  1.00  0.00    -0.228 NA
HETATM    6  C   UNL     1      40.988 -15.054   0.705  1.00  0.00     0.164 A 
HETATM    7  N   UNL     1      42.119 -15.721   0.978  1.00  0.00    -0.210 NA
HETATM    8  C   UNL     1      42.479 -15.848   2.267  1.00  0.00     0.143 A 
HETATM    9  C   UNL     1      39.726 -14.082   3.890  1.00  0.00     0.032 A 
HETATM   10  C   UNL     1      40.020 -14.190   5.251  1.00  0.00     0.002 A 
ENDROOT
BRANCH   8  11
HETATM   11  N   UNL     1      43.686 -16.525   2.589  1.00  0.00    -0.340 N 
HETATM   12  H   UNL     1      44.403 -16.257   1.923  1.00  0.00     0.167 HD
BRANCH  11  13
HETATM   13  C   UNL     1      43.865 -17.853   3.042  1.00  0.00     0.036 A 
HETATM   14  C   UNL     1      43.867 -18.894   2.096  1.00  0.00     0.069 A 
HETATM   15  C   UNL     1      44.124 -20.180   2.527  1.00  0.00     0.107 A 
HETATM   16  C   UNL     1      44.397 -20.464   3.842  1.00  0.00     0.105 A 
HETATM   17  O   UNL     1      44.154 -21.288   1.739  1.00  0.00    -0.323 OA
HETATM   18  O   UNL     1      44.630 -21.787   4.051  1.00  0.00    -0.323 OA
HETATM   19  C   UNL     1      44.437 -19.475   4.797  1.00  0.00     0.042 A 
HETATM   20  C   UNL     1      44.481 -22.304   2.713  1.00  0.00     0.352 A 
HETATM   21  C   UNL     1      44.183 -18.160   4.383  1.00  0.00     0.032 A 
ENDBRANCH  11  13
ENDBRANCH   8  11
BRANCH   6  22
HETATM   22  C   UNL     1      40.599 -14.917  -0.705  1.00  0.00     0.029 A 
HETATM   23  C   UNL     1      39.705 -13.934  -1.130  1.00  0.00     0.131 A 
HETATM   24  N   UNL     1      39.297 -13.746  -2.414  1.00  0.00    -0.272 NA
HETATM   25  C   UNL     1      39.808 -14.585  -3.338  1.00  0.00     0.116 A 
HETATM   26  C   UNL     1      40.702 -15.597  -3.040  1.00  0.00     0.020 A 
HETATM   27  C   UNL     1      41.096 -15.760  -1.712  1.00  0.00     0.018 A 
ENDBRANCH   6  22
TORSDOF 3
ENDMDL
MODEL 7
REMARK VINA RESULT:      -8.2      3.601      6.210
REMARK  3 active torsions:
REMARK  status: ('A' for Active; 'I' for Inactive)
REMARK    1  A    between atoms: C_6  and  C_7 
REMARK    2  A    between atoms: C_14  and  N_15 
REMARK    3  A    between atoms: N_15  and  C_16 
ROOT
HETATM    1  C   UNL     1      43.256 -18.828   3.807  1.00  0.00     0.001 A 
HETATM    2  C   UNL     1      42.347 -17.773   3.815  1.00  0.00     0.018 A 
HETATM    3  C   UNL     1      42.013 -17.089   2.617  1.00  0.00     0.039 A 
HETATM    4  C   UNL     1      42.621 -17.471   1.416  1.00  0.00     0.073 A 
HETATM    5  N   UNL     1      42.376 -16.863   0.253  1.00  0.00    -0.228 NA
HETATM    6  C   UNL     1      41.507 -15.839   0.258  1.00  0.00     0.164 A 
HETATM    7  N   UNL     1      40.866 -15.395   1.349  1.00  0.00    -0.210 NA
HETATM    8  C   UNL     1      41.108 -16.015   2.518  1.00  0.00     0.143 A 
HETATM    9  C   UNL     1      43.524 -18.528   1.432  1.00  0.00     0.032 A 
HETATM   10  C   UNL     1      43.845 -19.210   2.609  1.00  0.00     0.002 A 
ENDROOT
BRANCH   8  11
HETATM   11  N   UNL     1      40.424 -15.588   3.687  1.00  0.00    -0.340 N 
HETATM   12  H   UNL     1      39.431 -15.757   3.569  1.00  0.00     0.167 HD
BRANCH  11  13
HETATM   13  C   UNL     1      40.669 -14.452   4.493  1.00  0.00     0.036 A 
HETATM   14  C   UNL     1      39.594 -13.882   5.200  1.00  0.00     0.069 A 
HETATM   15  C   UNL     1      39.846 -12.824   6.051  1.00  0.00     0.107 A 
HETATM   16  C   UNL     1      41.114 -12.333   6.240  1.00  0.00     0.105 A 
HETATM   17  O   UNL     1      38.917 -12.166   6.794  1.00  0.00    -0.323 OA
HETATM   18  O   UNL     1      41.145 -11.300   7.123  1.00  0.00    -0.323 OA
HETATM   19  C   UNL     1      42.200 -12.877   5.595  1.00  0.00     0.042 A 
HETATM   20  C   UNL     1      39.749 -11.203   7.476  1.00  0.00     0.352 A 
HETATM   21  C   UNL     1      41.970 -13.954   4.729  1.00  0.00     0.032 A 
ENDBRANCH  11  13
ENDBRANCH   8  11
BRANCH   6  22
HETATM   22  C   UNL     1      41.239 -15.159  -1.015  1.00  0.00     0.029 A 
HETATM   23  C   UNL     1      40.963 -15.867  -2.185  1.00  0.00     0.131 A 
HETATM   24  N   UNL     1      40.706 -15.310  -3.399  1.00  0.00    -0.272 NA
HETATM   25  C   UNL     1      40.723 -13.963  -3.460  1.00  0.00     0.116 A 
HETATM   26  C   UNL     1      40.983 -13.152  -2.370  1.00  0.00     0.020 A 
HETATM   27  C   UNL     1      41.242 -13.760  -1.142  1.00  0.00     0.018 A 
ENDBRANCH   6  22
TORSDOF 3
ENDMDL
MODEL 8
REMARK VINA RESULT:      -8.1      1.703      2.192
REMARK  3 active torsions:
REMARK  status: ('A' for Active; 'I' for Inactive)
REMARK    1  A    between atoms: C_6  and  C_7 
REMARK    2  A    between atoms: C_14  and  N_15 
REMARK    3  A    between atoms: N_15  and  C_16 
ROOT
HETATM    1  C   UNL     1      39.722 -13.235   5.515  1.00  0.00     0.001 A 
HETATM    2  C   UNL     1      40.006 -14.426   4.851  1.00  0.00     0.018 A 
HETATM    3  C   UNL     1      40.050 -14.479   3.433  1.00  0.00     0.039 A 
HETATM    4  C   UNL     1      39.786 -13.320   2.695  1.00  0.00     0.073 A 
HETATM    5  N   UNL     1      39.787 -13.295   1.361  1.00  0.00    -0.228 NA
HETATM    6  C   UNL     1      40.051 -14.444   0.717  1.00  0.00     0.164 A 
HETATM    7  N   UNL     1      40.322 -15.608   1.326  1.00  0.00    -0.210 NA
HETATM    8  C   UNL     1      40.330 -15.628   2.670  1.00  0.00     0.143 A 
HETATM    9  C   UNL     1      39.506 -12.143   3.380  1.00  0.00     0.032 A 
HETATM   10  C   UNL     1      39.474 -12.087   4.775  1.00  0.00     0.002 A 
ENDROOT
BRANCH   8  11
HETATM   11  N   UNL     1      40.640 -16.839   3.346  1.00  0.00    -0.340 N 
HETATM   12  H   UNL     1      40.335 -16.767   4.311  1.00  0.00     0.167 HD
BRANCH  11  13
HETATM   13  C   UNL     1      41.787 -17.657   3.220  1.00  0.00     0.036 A 
HETATM   14  C   UNL     1      42.387 -18.161   4.388  1.00  0.00     0.069 A 
HETATM   15  C   UNL     1      43.456 -19.025   4.264  1.00  0.00     0.107 A 
HETATM   16  C   UNL     1      43.931 -19.420   3.037  1.00  0.00     0.105 A 
HETATM   17  O   UNL     1      44.143 -19.589   5.293  1.00  0.00    -0.323 OA
HETATM   18  O   UNL     1      44.980 -20.279   3.138  1.00  0.00    -0.323 OA
HETATM   19  C   UNL     1      43.358 -18.978   1.869  1.00  0.00     0.042 A 
HETATM   20  C   UNL     1      45.106 -20.387   4.571  1.00  0.00     0.352 A 
HETATM   21  C   UNL     1      42.268 -18.103   1.969  1.00  0.00     0.032 A 
ENDBRANCH  11  13
ENDBRANCH   8  11
BRANCH   6  22
HETATM   22  C   UNL     1      40.045 -14.426  -0.751  1.00  0.00     0.029 A 
HETATM   23  C   UNL     1      41.036 -15.061  -1.500  1.00  0.00     0.131 A 
HETATM   24  N   UNL     1      41.099 -15.088  -2.858  1.00  0.00    -0.272 NA
HETATM   25  C   UNL     1      40.115 -14.445  -3.520  1.00  0.00     0.116 A 
HETATM   26  C   UNL     1      39.078 -13.781  -2.891  1.00  0.00     0.020 A 
HETATM   27  C   UNL     1      39.048 -13.774  -1.496  1.00  0.00     0.018 A 
ENDBRANCH   6  22
TORSDOF 3
ENDMDL
MODEL 9
REMARK VINA RESULT:      -8.1      2.057      2.769
REMARK  3 active torsions:
REMARK  status: ('A' for Active; 'I' for Inactive)
REMARK    1  A    between atoms: C_6  and  C_7 
REMARK    2  A    between atoms: C_14  and  N_15 
REMARK    3  A    between atoms: N_15  and  C_16 
ROOT
HETATM    1  C   UNL     1      39.581 -13.076   5.471  1.00  0.00     0.001 A 
HETATM    2  C   UNL     1      39.887 -14.305   4.890  1.00  0.00     0.018 A 
HETATM    3  C   UNL     1      39.970 -14.445   3.480  1.00  0.00     0.039 A 
HETATM    4  C   UNL     1      39.724 -13.335   2.664  1.00  0.00     0.073 A 
HETATM    5  N   UNL     1      39.762 -13.392   1.331  1.00  0.00    -0.228 NA
HETATM    6  C   UNL     1      40.047 -14.577   0.768  1.00  0.00     0.164 A 
HETATM    7  N   UNL     1      40.304 -15.700   1.454  1.00  0.00    -0.210 NA
HETATM    8  C   UNL     1      40.274 -15.637   2.797  1.00  0.00     0.143 A 
HETATM    9  C   UNL     1      39.422 -12.118   3.267  1.00  0.00     0.032 A 
HETATM   10  C   UNL     1      39.351 -11.977   4.655  1.00  0.00     0.002 A 
ENDROOT
BRANCH   8  11
HETATM   11  N   UNL     1      40.568 -16.803   3.554  1.00  0.00    -0.340 N 
HETATM   12  H   UNL     1      39.891 -16.890   4.304  1.00  0.00     0.167 HD
BRANCH  11  13
HETATM   13  C   UNL     1      41.829 -17.325   3.926  1.00  0.00     0.036 A 
HETATM   14  C   UNL     1      42.370 -16.957   5.171  1.00  0.00     0.069 A 
HETATM   15  C   UNL     1      43.562 -17.529   5.571  1.00  0.00     0.107 A 
HETATM   16  C   UNL     1      44.215 -18.458   4.799  1.00  0.00     0.105 A 
HETATM   17  O   UNL     1      44.212 -17.272   6.737  1.00  0.00    -0.323 OA
HETATM   18  O   UNL     1      45.362 -18.902   5.379  1.00  0.00    -0.323 OA
HETATM   19  C   UNL     1      43.708 -18.872   3.590  1.00  0.00     0.042 A 
HETATM   20  C   UNL     1      45.351 -18.151   6.611  1.00  0.00     0.352 A 
HETATM   21  C   UNL     1      42.498 -18.308   3.164  1.00  0.00     0.032 A 
ENDBRANCH  11  13
ENDBRANCH   8  11
BRANCH   6  22
HETATM   22  C   UNL     1      40.081 -14.650  -0.699  1.00  0.00     0.029 A 
HETATM   23  C   UNL     1      39.226 -13.887  -1.495  1.00  0.00     0.131 A 
HETATM   24  N   UNL     1      39.197 -13.901  -2.854  1.00  0.00    -0.272 NA
HETATM   25  C   UNL     1      40.073 -14.722  -3.468  1.00  0.00     0.116 A 
HETATM   26  C   UNL     1      40.971 -15.526  -2.789  1.00  0.00     0.020 A 
HETATM   27  C   UNL     1      40.970 -15.486  -1.395  1.00  0.00     0.018 A 
ENDBRANCH   6  22
TORSDOF 3
ENDMDL
MODEL 10
REMARK VINA RESULT:      -8.0      3.663      7.217
REMARK  3 active torsions:
REMARK  status: ('A' for Active; 'I' for Inactive)
REMARK    1  A    between atoms: C_6  and  C_7 
REMARK    2  A    between atoms: C_14  and  N_15 
REMARK    3  A    between atoms: N_15  and  C_16 
ROOT
HETATM    1  C   UNL     1      43.531 -19.412   2.044  1.00  0.00     0.001 A 
HETATM    2  C   UNL     1      42.666 -18.459   1.510  1.00  0.00     0.018 A 
HETATM    3  C   UNL     1      42.255 -17.337   2.276  1.00  0.00     0.039 A 
HETATM    4  C   UNL     1      42.714 -17.198   3.591  1.00  0.00     0.073 A 
HETATM    5  N   UNL     1      42.356 -16.183   4.380  1.00  0.00    -0.228 NA
HETATM    6  C   UNL     1      41.514 -15.268   3.872  1.00  0.00     0.164 A 
HETATM    7  N   UNL     1      41.020 -15.302   2.626  1.00  0.00    -0.210 NA
HETATM    8  C   UNL     1      41.390 -16.321   1.830  1.00  0.00     0.143 A 
HETATM    9  C   UNL     1      43.578 -18.161   4.101  1.00  0.00     0.032 A 
HETATM   10  C   UNL     1      43.992 -19.260   3.344  1.00  0.00     0.002 A 
ENDROOT
BRANCH   8  11
HETATM   11  N   UNL     1      40.906 -16.371   0.495  1.00  0.00    -0.340 N 
HETATM   12  H   UNL     1      40.933 -17.332   0.170  1.00  0.00     0.167 HD
BRANCH  11  13
HETATM   13  C   UNL     1      41.118 -15.456  -0.561  1.00  0.00     0.036 A 
HETATM   14  C   UNL     1      41.728 -14.222  -0.271  1.00  0.00     0.069 A 
HETATM   15  C   UNL     1      42.010 -13.361  -1.313  1.00  0.00     0.107 A 
HETATM   16  C   UNL     1      41.733 -13.686  -2.618  1.00  0.00     0.105 A 
HETATM   17  O   UNL     1      42.589 -12.136  -1.194  1.00  0.00    -0.323 OA
HETATM   18  O   UNL     1      42.097 -12.707  -3.487  1.00  0.00    -0.323 OA
HETATM   19  C   UNL     1      41.166 -14.893  -2.953  1.00  0.00     0.042 A 
HETATM   20  C   UNL     1      42.646 -11.729  -2.579  1.00  0.00     0.352 A 
HETATM   21  C   UNL     1      40.873 -15.786  -1.913  1.00  0.00     0.032 A 
ENDBRANCH  11  13
ENDBRANCH   8  11
BRANCH   6  22
HETATM   22  C   UNL     1      41.108 -14.153   4.738  1.00  0.00     0.029 A 
HETATM   23  C   UNL     1      42.005 -13.157   5.126  1.00  0.00     0.131 A 
HETATM   24  N   UNL     1      41.704 -12.097   5.923  1.00  0.00    -0.272 NA
HETATM   25  C   UNL     1      40.433 -12.016   6.366  1.00  0.00     0.116 A 
HETATM   26  C   UNL     1      39.454 -12.941   6.050  1.00  0.00     0.020 A 
HETATM   27  C   UNL     1      39.800 -14.015   5.230  1.00  0.00     0.018 A 
ENDBRANCH   6  22
TORSDOF 3
ENDMDL
