MODEL 1
REMARK VINA RESULT:      -8.8      0.000      0.000
REMARK  3 active torsions:
REMARK  status: ('A' for Active; 'I' for Inactive)
REMARK    1  A    between atoms: C_7  and  C_8 
REMARK    2  A    between atoms: N_9  and  C_11 
REMARK    3  A    between atoms: C_11  and  C_12 
ROOT
HETATM    1  C   UNL     1      43.905 -16.880   5.221  1.00  0.00     0.238 C 
HETATM    2  N   UNL     1      42.528 -16.436   5.693  1.00  0.00    -0.056 N 
HETATM    3  H   UNL     1      42.664 -15.478   6.036  1.00  0.00     0.281 HD
HETATM    4  C   UNL     1      41.980 -17.212   6.864  1.00  0.00     0.236 C 
HETATM    5  C   UNL     1      42.966 -17.192   8.019  1.00  0.00     0.028 C 
HETATM    6  C   UNL     1      44.333 -17.715   7.608  1.00  0.00     0.004 C 
HETATM    7  C   UNL     1      44.873 -16.943   6.410  1.00  0.00     0.040 C 
ENDROOT
BRANCH   2   8
HETATM    8  C   UNL     1      41.496 -16.322   4.587  1.00  0.00     0.295 C 
BRANCH   8   9
HETATM    9  C   UNL     1      41.701 -15.137   3.733  1.00  0.00     0.077 A 
HETATM   10  N   UNL     1      41.582 -15.116   2.353  1.00  0.00    -0.155 N 
HETATM   11  C   UNL     1      41.931 -13.830   1.933  1.00  0.00     0.732 A 
HETATM   12  C   UNL     1      41.224 -16.106   1.443  1.00  0.00     0.117 A 
HETATM   13  N   UNL     1      41.967 -13.508   0.610  1.00  0.00    -0.074 NA
HETATM   14  N   UNL     1      42.196 -13.067   2.970  1.00  0.00    -0.072 NA
HETATM   15  C   UNL     1      41.623 -14.440  -0.224  1.00  0.00     0.138 A 
HETATM   16  C   UNL     1      41.221 -15.828   0.132  1.00  0.00     0.038 A 
HETATM   17  C   UNL     1      42.010 -13.836   4.076  1.00  0.00     0.164 A 
ENDBRANCH   8   9
ENDBRANCH   2   8
BRANCH   1  18
HETATM   18  C   UNL     1      43.904 -18.126   4.391  1.00  0.00     0.041 A 
HETATM   19  N   UNL     1      44.337 -19.326   4.923  1.00  0.00    -0.357 N 
HETATM   20  C   UNL     1      44.332 -20.312   3.966  1.00  0.00     0.042 A 
HETATM   21  H   UNL     1      44.648 -19.480   5.877  1.00  0.00     0.166 HD
HETATM   22  C   UNL     1      43.801 -19.756   2.806  1.00  0.00    -0.008 A 
HETATM   23  C   UNL     1      44.736 -21.649   4.047  1.00  0.00     0.030 A 
HETATM   24  C   UNL     1      43.657 -20.569   1.667  1.00  0.00     0.014 A 
HETATM   25  C   UNL     1      43.511 -18.395   3.092  1.00  0.00     0.040 A 
HETATM   26  C   UNL     1      44.060 -21.907   1.727  1.00  0.00     0.001 A 
HETATM   27  C   UNL     1      44.592 -22.436   2.900  1.00  0.00     0.002 A 
ENDBRANCH   1  18
TORSDOF 3
ENDMDL
MODEL 2
REMARK VINA RESULT:      -8.7      1.684      2.409
REMARK  3 active torsions:
REMARK  status: ('A' for Active; 'I' for Inactive)
REMARK    1  A    between atoms: C_7  and  C_8 
REMARK    2  A    between atoms: N_9  and  C_11 
REMARK    3  A    between atoms: C_11  and  C_12 
ROOT
HETATM    1  C   UNL     1      43.185 -16.600   4.110  1.00  0.00     0.238 C 
HETATM    2  N   UNL     1      41.681 -16.382   4.034  1.00  0.00    -0.056 N 
HETATM    3  H   UNL     1      41.567 -15.366   3.945  1.00  0.00     0.281 HD
HETATM    4  C   UNL     1      40.922 -16.768   5.279  1.00  0.00     0.236 C 
HETATM    5  C   UNL     1      41.499 -16.056   6.491  1.00  0.00     0.028 C 
HETATM    6  C   UNL     1      42.986 -16.324   6.652  1.00  0.00     0.004 C 
HETATM    7  C   UNL     1      43.746 -15.955   5.384  1.00  0.00     0.040 C 
ENDROOT
BRANCH   2   8
HETATM    8  C   UNL     1      41.027 -16.968   2.797  1.00  0.00     0.295 C 
BRANCH   8   9
HETATM    9  C   UNL     1      41.074 -16.057   1.638  1.00  0.00     0.077 A 
HETATM   10  N   UNL     1      40.031 -15.251   1.213  1.00  0.00    -0.155 N 
HETATM   11  C   UNL     1      40.459 -14.610   0.047  1.00  0.00     0.732 A 
HETATM   12  C   UNL     1      38.755 -15.045   1.728  1.00  0.00     0.117 A 
HETATM   13  N   UNL     1      39.628 -13.785  -0.649  1.00  0.00    -0.074 NA
HETATM   14  N   UNL     1      41.704 -14.936  -0.221  1.00  0.00    -0.072 NA
HETATM   15  C   UNL     1      38.446 -13.599  -0.151  1.00  0.00     0.138 A 
HETATM   16  C   UNL     1      37.910 -14.222   1.091  1.00  0.00     0.038 A 
HETATM   17  C   UNL     1      42.109 -15.776   0.769  1.00  0.00     0.164 A 
ENDBRANCH   8   9
ENDBRANCH   2   8
BRANCH   1  18
HETATM   18  C   UNL     1      43.615 -18.022   3.929  1.00  0.00     0.041 A 
HETATM   19  N   UNL     1      43.572 -18.618   2.682  1.00  0.00    -0.357 N 
HETATM   20  C   UNL     1      43.928 -19.943   2.763  1.00  0.00     0.042 A 
HETATM   21  H   UNL     1      43.294 -18.170   1.815  1.00  0.00     0.166 HD
HETATM   22  C   UNL     1      44.293 -20.190   4.083  1.00  0.00    -0.008 A 
HETATM   23  C   UNL     1      43.972 -20.927   1.770  1.00  0.00     0.030 A 
HETATM   24  C   UNL     1      44.731 -21.480   4.437  1.00  0.00     0.014 A 
HETATM   25  C   UNL     1      44.120 -18.974   4.797  1.00  0.00     0.040 A 
HETATM   26  C   UNL     1      44.777 -22.478   3.458  1.00  0.00     0.001 A 
HETATM   27  C   UNL     1      44.402 -22.203   2.145  1.00  0.00     0.002 A 
ENDBRANCH   1  18
TORSDOF 3
ENDMDL
MODEL 3
REMARK VINA RESULT:      -8.7      1.054      1.610
REMARK  3 active torsions:
REMARK  status: ('A' for Active; 'I' for Inactive)
REMARK    1  A    between atoms: C_7  and  C_8 
REMARK    2  A    between atoms: N_9  and  C_11 
REMARK    3  A    between atoms: C_11  and  C_12 
ROOT
HETATM    1  C   UNL     1      43.436 -16.714   5.343  1.00  0.00     0.238 C 
HETATM    2  N   UNL     1      42.825 -15.522   4.620  1.00  0.00    -0.056 N 
HETATM    3  H   UNL     1      43.030 -14.716   5.221  1.00  0.00     0.281 HD
HETATM    4  C   UNL     1      41.323 -15.561   4.493  1.00  0.00     0.236 C 
HETATM    5  C   UNL     1      40.682 -15.735   5.860  1.00  0.00     0.028 C 
HETATM    6  C   UNL     1      41.202 -16.970   6.577  1.00  0.00     0.004 C 
HETATM    7  C   UNL     1      42.722 -16.938   6.683  1.00  0.00     0.040 C 
ENDROOT
BRANCH   2   8
HETATM    8  C   UNL     1      43.474 -15.201   3.287  1.00  0.00     0.295 C 
BRANCH   8   9
HETATM    9  C   UNL     1      42.667 -14.280   2.465  1.00  0.00     0.077 A 
HETATM   10  N   UNL     1      42.029 -14.615   1.282  1.00  0.00    -0.155 N 
HETATM   11  C   UNL     1      41.447 -13.446   0.786  1.00  0.00     0.732 A 
HETATM   12  C   UNL     1      41.930 -15.823   0.597  1.00  0.00     0.117 A 
HETATM   13  N   UNL     1      40.788 -13.439  -0.406  1.00  0.00    -0.074 NA
HETATM   14  N   UNL     1      41.647 -12.449   1.619  1.00  0.00    -0.072 NA
HETATM   15  C   UNL     1      40.699 -14.574  -1.027  1.00  0.00     0.138 A 
HETATM   16  C   UNL     1      41.270 -15.870  -0.569  1.00  0.00     0.038 A 
HETATM   17  C   UNL     1      42.344 -12.954   2.671  1.00  0.00     0.164 A 
ENDBRANCH   8   9
ENDBRANCH   2   8
BRANCH   1  18
HETATM   18  C   UNL     1      43.541 -17.955   4.513  1.00  0.00     0.041 A 
HETATM   19  N   UNL     1      44.172 -19.081   5.008  1.00  0.00    -0.357 N 
HETATM   20  C   UNL     1      44.227 -20.067   4.052  1.00  0.00     0.042 A 
HETATM   21  H   UNL     1      44.573 -19.184   5.934  1.00  0.00     0.166 HD
HETATM   22  C   UNL     1      43.539 -19.598   2.937  1.00  0.00    -0.008 A 
HETATM   23  C   UNL     1      44.814 -21.336   4.098  1.00  0.00     0.030 A 
HETATM   24  C   UNL     1      43.419 -20.431   1.810  1.00  0.00     0.014 A 
HETATM   25  C   UNL     1      43.089 -18.286   3.247  1.00  0.00     0.040 A 
HETATM   26  C   UNL     1      44.004 -21.702   1.836  1.00  0.00     0.001 A 
HETATM   27  C   UNL     1      44.691 -22.145   2.964  1.00  0.00     0.002 A 
ENDBRANCH   1  18
TORSDOF 3
ENDMDL
MODEL 4
REMARK VINA RESULT:      -8.5      1.456      2.258
REMARK  3 active torsions:
REMARK  status: ('A' for Active; 'I' for Inactive)
REMARK    1  A    between atoms: C_7  and  C_8 
REMARK    2  A    between atoms: N_9  and  C_11 
REMARK    3  A    between atoms: C_11  and  C_12 
ROOT
HETATM    1  C   UNL     1      44.227 -17.106   5.421  1.00  0.00     0.238 C 
HETATM    2  N   UNL     1      42.877 -16.520   5.807  1.00  0.00    -0.056 N 
HETATM    3  H   UNL     1      43.093 -15.597   6.199  1.00  0.00     0.281 HD
HETATM    4  C   UNL     1      42.153 -17.265   6.901  1.00  0.00     0.236 C 
HETATM    5  C   UNL     1      43.041 -17.397   8.126  1.00  0.00     0.028 C 
HETATM    6  C   UNL     1      44.367 -18.063   7.797  1.00  0.00     0.004 C 
HETATM    7  C   UNL     1      45.084 -17.321   6.676  1.00  0.00     0.040 C 
ENDROOT
BRANCH   2   8
HETATM    8  C   UNL     1      41.956 -16.250   4.633  1.00  0.00     0.295 C 
BRANCH   8   9
HETATM    9  C   UNL     1      42.150 -14.910   4.049  1.00  0.00     0.077 A 
HETATM   10  N   UNL     1      41.448 -13.772   4.409  1.00  0.00    -0.155 N 
HETATM   11  C   UNL     1      41.879 -12.743   3.569  1.00  0.00     0.732 A 
HETATM   12  C   UNL     1      40.466 -13.560   5.373  1.00  0.00     0.117 A 
HETATM   13  N   UNL     1      41.328 -11.499   3.639  1.00  0.00    -0.074 NA
HETATM   14  N   UNL     1      42.829 -13.175   2.769  1.00  0.00    -0.072 NA
HETATM   15  C   UNL     1      40.421 -11.317   4.547  1.00  0.00     0.138 A 
HETATM   16  C   UNL     1      39.912 -12.345   5.496  1.00  0.00     0.038 A 
HETATM   17  C   UNL     1      43.041 -14.480   3.086  1.00  0.00     0.164 A 
ENDBRANCH   8   9
ENDBRANCH   2   8
BRANCH   1  18
HETATM   18  C   UNL     1      44.150 -18.316   4.543  1.00  0.00     0.041 A 
HETATM   19  N   UNL     1      44.535 -19.556   5.017  1.00  0.00    -0.357 N 
HETATM   20  C   UNL     1      44.463 -20.501   4.022  1.00  0.00     0.042 A 
HETATM   21  H   UNL     1      44.857 -19.763   5.957  1.00  0.00     0.166 HD
HETATM   22  C   UNL     1      43.937 -19.874   2.897  1.00  0.00    -0.008 A 
HETATM   23  C   UNL     1      44.804 -21.858   4.040  1.00  0.00     0.030 A 
HETATM   24  C   UNL     1      43.731 -20.631   1.729  1.00  0.00     0.014 A 
HETATM   25  C   UNL     1      43.718 -18.513   3.243  1.00  0.00     0.040 A 
HETATM   26  C   UNL     1      44.070 -21.989   1.727  1.00  0.00     0.001 A 
HETATM   27  C   UNL     1      44.599 -22.590   2.867  1.00  0.00     0.002 A 
ENDBRANCH   1  18
TORSDOF 3
ENDMDL
MODEL 5
REMARK VINA RESULT:      -8.5      1.752      2.407
REMARK  3 active torsions:
REMARK  status: ('A' for Active; 'I' for Inactive)
REMARK    1  A    between atoms: C_7  and  C_8 
REMARK    2  A    between atoms: N_9  and  C_11 
REMARK    3  A    between atoms: C_11  and  C_12 
ROOT
HETATM    1  C   UNL     1      43.067 -16.548   3.731  1.00  0.00     0.238 C 
HETATM    2  N   UNL     1      41.572 -16.264   3.733  1.00  0.00    -0.056 N 
HETATM    3  H   UNL     1      41.496 -15.247   3.620  1.00  0.00     0.281 HD
HETATM    4  C   UNL     1      40.869 -16.582   5.029  1.00  0.00     0.236 C 
HETATM    5  C   UNL     1      41.544 -15.863   6.185  1.00  0.00     0.028 C 
HETATM    6  C   UNL     1      43.025 -16.193   6.271  1.00  0.00     0.004 C 
HETATM    7  C   UNL     1      43.726 -15.893   4.952  1.00  0.00     0.040 C 
ENDROOT
BRANCH   2   8
HETATM    8  C   UNL     1      40.823 -16.854   2.552  1.00  0.00     0.295 C 
BRANCH   8   9
HETATM    9  C   UNL     1      40.845 -15.978   1.366  1.00  0.00     0.077 A 
HETATM   10  N   UNL     1      39.824 -15.122   0.985  1.00  0.00    -0.155 N 
HETATM   11  C   UNL     1      40.209 -14.540  -0.225  1.00  0.00     0.732 A 
HETATM   12  C   UNL     1      38.600 -14.827   1.577  1.00  0.00     0.117 A 
HETATM   13  N   UNL     1      39.382 -13.685  -0.889  1.00  0.00    -0.074 NA
HETATM   14  N   UNL     1      41.412 -14.948  -0.565  1.00  0.00    -0.072 NA
HETATM   15  C   UNL     1      38.249 -13.415  -0.320  1.00  0.00     0.138 A 
HETATM   16  C   UNL     1      37.763 -13.971   0.973  1.00  0.00     0.038 A 
HETATM   17  C   UNL     1      41.833 -15.784   0.422  1.00  0.00     0.164 A 
ENDBRANCH   8   9
ENDBRANCH   2   8
BRANCH   1  18
HETATM   18  C   UNL     1      43.424 -17.992   3.569  1.00  0.00     0.041 A 
HETATM   19  N   UNL     1      43.756 -18.763   4.667  1.00  0.00    -0.357 N 
HETATM   20  C   UNL     1      44.130 -20.027   4.278  1.00  0.00     0.042 A 
HETATM   21  H   UNL     1      43.759 -18.457   5.634  1.00  0.00     0.166 HD
HETATM   22  C   UNL     1      43.954 -20.103   2.900  1.00  0.00    -0.008 A 
HETATM   23  C   UNL     1      44.588 -21.107   5.041  1.00  0.00     0.030 A 
HETATM   24  C   UNL     1      44.241 -21.313   2.242  1.00  0.00     0.014 A 
HETATM   25  C   UNL     1      43.485 -18.832   2.470  1.00  0.00     0.040 A 
HETATM   26  C   UNL     1      44.705 -22.402   2.988  1.00  0.00     0.001 A 
HETATM   27  C   UNL     1      44.876 -22.297   4.367  1.00  0.00     0.002 A 
ENDBRANCH   1  18
TORSDOF 3
ENDMDL
MODEL 6
REMARK VINA RESULT:      -8.5      1.676      2.812
REMARK  3 active torsions:
REMARK  status: ('A' for Active; 'I' for Inactive)
REMARK    1  A    between atoms: C_7  and  C_8 
REMARK    2  A    between atoms: N_9  and  C_11 
REMARK    3  A    between atoms: C_11  and  C_12 
ROOT
HETATM    1  C   UNL     1      43.206 -15.948   3.360  1.00  0.00     0.238 C 
HETATM    2  N   UNL     1      41.960 -15.389   2.688  1.00  0.00    -0.056 N 
HETATM    3  H   UNL     1      42.080 -14.371   2.715  1.00  0.00     0.281 HD
HETATM    4  C   UNL     1      40.669 -15.665   3.417  1.00  0.00     0.236 C 
HETATM    5  C   UNL     1      40.759 -15.175   4.852  1.00  0.00     0.028 C 
HETATM    6  C   UNL     1      41.942 -15.784   5.587  1.00  0.00     0.004 C 
HETATM    7  C   UNL     1      43.241 -15.523   4.835  1.00  0.00     0.040 C 
ENDROOT
BRANCH   2   8
HETATM    8  C   UNL     1      41.837 -15.737   1.216  1.00  0.00     0.295 C 
BRANCH   8   9
HETATM    9  C   UNL     1      41.715 -14.546   0.355  1.00  0.00     0.077 A 
HETATM   10  N   UNL     1      41.359 -14.561  -0.984  1.00  0.00    -0.155 N 
HETATM   11  C   UNL     1      41.438 -13.244  -1.443  1.00  0.00     0.732 A 
HETATM   12  C   UNL     1      41.001 -15.605  -1.832  1.00  0.00     0.117 A 
HETATM   13  N   UNL     1      41.199 -12.937  -2.748  1.00  0.00    -0.074 NA
HETATM   14  N   UNL     1      41.762 -12.437  -0.457  1.00  0.00    -0.072 NA
HETATM   15  C   UNL     1      40.859 -13.921  -3.522  1.00  0.00     0.138 A 
HETATM   16  C   UNL     1      40.733 -15.348  -3.120  1.00  0.00     0.038 A 
HETATM   17  C   UNL     1      41.883 -13.210   0.655  1.00  0.00     0.164 A 
ENDBRANCH   8   9
ENDBRANCH   2   8
BRANCH   1  18
HETATM   18  C   UNL     1      43.411 -17.417   3.163  1.00  0.00     0.041 A 
HETATM   19  N   UNL     1      44.003 -18.184   4.149  1.00  0.00    -0.357 N 
HETATM   20  C   UNL     1      44.168 -19.480   3.724  1.00  0.00     0.042 A 
HETATM   21  H   UNL     1      44.308 -17.856   5.059  1.00  0.00     0.166 HD
HETATM   22  C   UNL     1      43.591 -19.575   2.461  1.00  0.00    -0.008 A 
HETATM   23  C   UNL     1      44.763 -20.571   4.366  1.00  0.00     0.030 A 
HETATM   24  C   UNL     1      43.599 -20.818   1.801  1.00  0.00     0.014 A 
HETATM   25  C   UNL     1      43.095 -18.285   2.132  1.00  0.00     0.040 A 
HETATM   26  C   UNL     1      44.194 -21.919   2.425  1.00  0.00     0.001 A 
HETATM   27  C   UNL     1      44.768 -21.794   3.689  1.00  0.00     0.002 A 
ENDBRANCH   1  18
TORSDOF 3
ENDMDL
MODEL 7
REMARK VINA RESULT:      -8.4      1.849      6.552
REMARK  3 active torsions:
REMARK  status: ('A' for Active; 'I' for Inactive)
REMARK    1  A    between atoms: C_7  and  C_8 
REMARK    2  A    between atoms: N_9  and  C_11 
REMARK    3  A    between atoms: C_11  and  C_12 
ROOT
HETATM    1  C   UNL     1      41.542 -17.689   4.216  1.00  0.00     0.238 C 
HETATM    2  N   UNL     1      43.020 -17.639   4.575  1.00  0.00    -0.056 N 
HETATM    3  H   UNL     1      43.167 -18.441   5.197  1.00  0.00     0.281 HD
HETATM    4  C   UNL     1      43.438 -16.427   5.369  1.00  0.00     0.236 C 
HETATM    5  C   UNL     1      42.587 -16.296   6.620  1.00  0.00     0.028 C 
HETATM    6  C   UNL     1      41.103 -16.251   6.295  1.00  0.00     0.004 C 
HETATM    7  C   UNL     1      40.690 -17.466   5.473  1.00  0.00     0.040 C 
ENDROOT
BRANCH   2   8
HETATM    8  C   UNL     1      43.955 -17.867   3.402  1.00  0.00     0.295 C 
BRANCH   8   9
HETATM    9  C   UNL     1      43.923 -19.256   2.906  1.00  0.00     0.077 A 
HETATM   10  N   UNL     1      44.256 -20.377   3.649  1.00  0.00    -0.155 N 
HETATM   11  C   UNL     1      44.168 -21.476   2.791  1.00  0.00     0.732 A 
HETATM   12  C   UNL     1      44.645 -20.521   4.977  1.00  0.00     0.117 A 
HETATM   13  N   UNL     1      44.494 -22.728   3.216  1.00  0.00    -0.074 NA
HETATM   14  N   UNL     1      43.752 -21.095   1.603  1.00  0.00    -0.072 NA
HETATM   15  C   UNL     1      44.846 -22.846   4.458  1.00  0.00     0.138 A 
HETATM   16  C   UNL     1      44.952 -21.739   5.447  1.00  0.00     0.038 A 
HETATM   17  C   UNL     1      43.549 -19.752   1.674  1.00  0.00     0.164 A 
ENDBRANCH   8   9
ENDBRANCH   2   8
BRANCH   1  18
HETATM   18  C   UNL     1      41.152 -16.807   3.072  1.00  0.00     0.041 A 
HETATM   19  N   UNL     1      39.975 -16.082   3.111  1.00  0.00    -0.357 N 
HETATM   20  C   UNL     1      39.776 -15.413   1.927  1.00  0.00     0.042 A 
HETATM   21  H   UNL     1      39.317 -16.051   3.883  1.00  0.00     0.166 HD
HETATM   22  C   UNL     1      40.895 -15.643   1.132  1.00  0.00    -0.008 A 
HETATM   23  C   UNL     1      38.707 -14.612   1.512  1.00  0.00     0.030 A 
HETATM   24  C   UNL     1      40.961 -15.043  -0.139  1.00  0.00     0.014 A 
HETATM   25  C   UNL     1      41.762 -16.493   1.870  1.00  0.00     0.040 A 
HETATM   26  C   UNL     1      39.899 -14.243  -0.573  1.00  0.00     0.001 A 
HETATM   27  C   UNL     1      38.789 -14.034   0.243  1.00  0.00     0.002 A 
ENDBRANCH   1  18
TORSDOF 3
ENDMDL
MODEL 8
REMARK VINA RESULT:      -8.3      1.981      3.042
REMARK  3 active torsions:
REMARK  status: ('A' for Active; 'I' for Inactive)
REMARK    1  A    between atoms: C_7  and  C_8 
REMARK    2  A    between atoms: N_9  and  C_11 
REMARK    3  A    between atoms: C_11  and  C_12 
ROOT
HETATM    1  C   UNL     1      42.801 -14.900   2.842  1.00  0.00     0.238 C 
HETATM    2  N   UNL     1      41.393 -14.595   3.334  1.00  0.00    -0.056 N 
HETATM    3  H   UNL     1      41.216 -13.628   3.040  1.00  0.00     0.281 HD
HETATM    4  C   UNL     1      41.231 -14.601   4.833  1.00  0.00     0.236 C 
HETATM    5  C   UNL     1      42.231 -13.654   5.475  1.00  0.00     0.028 C 
HETATM    6  C   UNL     1      43.661 -13.984   5.079  1.00  0.00     0.004 C 
HETATM    7  C   UNL     1      43.814 -14.001   3.564  1.00  0.00     0.040 C 
ENDROOT
BRANCH   2   8
HETATM    8  C   UNL     1      40.308 -15.421   2.668  1.00  0.00     0.295 C 
BRANCH   8   9
HETATM    9  C   UNL     1      39.626 -14.697   1.579  1.00  0.00     0.077 A 
HETATM   10  N   UNL     1      39.990 -14.736   0.243  1.00  0.00    -0.155 N 
HETATM   11  C   UNL     1      39.143 -13.858  -0.437  1.00  0.00     0.732 A 
HETATM   12  C   UNL     1      40.992 -15.438  -0.420  1.00  0.00     0.117 A 
HETATM   13  N   UNL     1      39.289 -13.631  -1.773  1.00  0.00    -0.074 NA
HETATM   14  N   UNL     1      38.263 -13.340   0.391  1.00  0.00    -0.072 NA
HETATM   15  C   UNL     1      40.222 -14.299  -2.376  1.00  0.00     0.138 A 
HETATM   16  C   UNL     1      41.158 -15.266  -1.740  1.00  0.00     0.038 A 
HETATM   17  C   UNL     1      38.513 -13.882   1.613  1.00  0.00     0.164 A 
ENDBRANCH   8   9
ENDBRANCH   2   8
BRANCH   1  18
HETATM   18  C   UNL     1      43.169 -16.350   2.875  1.00  0.00     0.041 A 
HETATM   19  N   UNL     1      43.543 -16.956   4.060  1.00  0.00    -0.357 N 
HETATM   20  C   UNL     1      43.918 -18.260   3.843  1.00  0.00     0.042 A 
HETATM   21  H   UNL     1      43.572 -16.515   4.973  1.00  0.00     0.166 HD
HETATM   22  C   UNL     1      43.701 -18.531   2.496  1.00  0.00    -0.008 A 
HETATM   23  C   UNL     1      44.411 -19.217   4.736  1.00  0.00     0.030 A 
HETATM   24  C   UNL     1      43.981 -19.821   2.007  1.00  0.00     0.014 A 
HETATM   25  C   UNL     1      43.205 -17.338   1.905  1.00  0.00     0.040 A 
HETATM   26  C   UNL     1      44.479 -20.790   2.885  1.00  0.00     0.001 A 
HETATM   27  C   UNL     1      44.691 -20.489   4.229  1.00  0.00     0.002 A 
ENDBRANCH   1  18
TORSDOF 3
ENDMDL
MODEL 9
REMARK VINA RESULT:      -8.2      1.513      2.511
REMARK  3 active torsions:
REMARK  status: ('A' for Active; 'I' for Inactive)
REMARK    1  A    between atoms: C_7  and  C_8 
REMARK    2  A    between atoms: N_9  and  C_11 
REMARK    3  A    between atoms: C_11  and  C_12 
ROOT
HETATM    1  C   UNL     1      43.798 -16.919   5.141  1.00  0.00     0.238 C 
HETATM    2  N   UNL     1      42.510 -16.280   4.642  1.00  0.00    -0.056 N 
HETATM    3  H   UNL     1      42.591 -15.290   4.898  1.00  0.00     0.281 HD
HETATM    4  C   UNL     1      41.255 -16.773   5.317  1.00  0.00     0.236 C 
HETATM    5  C   UNL     1      41.371 -16.618   6.824  1.00  0.00     0.028 C 
HETATM    6  C   UNL     1      42.601 -17.322   7.374  1.00  0.00     0.004 C 
HETATM    7  C   UNL     1      43.864 -16.838   6.673  1.00  0.00     0.040 C 
ENDROOT
BRANCH   2   8
HETATM    8  C   UNL     1      42.354 -16.291   3.133  1.00  0.00     0.295 C 
BRANCH   8   9
HETATM    9  C   UNL     1      41.112 -15.636   2.681  1.00  0.00     0.077 A 
HETATM   10  N   UNL     1      40.834 -14.284   2.798  1.00  0.00    -0.155 N 
HETATM   11  C   UNL     1      39.534 -14.092   2.325  1.00  0.00     0.732 A 
HETATM   12  C   UNL     1      41.591 -13.225   3.292  1.00  0.00     0.117 A 
HETATM   13  N   UNL     1      38.945 -12.864   2.362  1.00  0.00    -0.074 NA
HETATM   14  N   UNL     1      39.037 -15.226   1.883  1.00  0.00    -0.072 NA
HETATM   15  C   UNL     1      39.667 -11.888   2.818  1.00  0.00     0.138 A 
HETATM   16  C   UNL     1      41.062 -11.994   3.326  1.00  0.00     0.038 A 
HETATM   17  C   UNL     1      40.007 -16.165   2.046  1.00  0.00     0.164 A 
ENDBRANCH   8   9
ENDBRANCH   2   8
BRANCH   1  18
HETATM   18  C   UNL     1      44.055 -18.295   4.610  1.00  0.00     0.041 A 
HETATM   19  N   UNL     1      43.838 -18.586   3.276  1.00  0.00    -0.357 N 
HETATM   20  C   UNL     1      44.054 -19.921   3.029  1.00  0.00     0.042 A 
HETATM   21  H   UNL     1      43.534 -17.932   2.563  1.00  0.00     0.166 HD
HETATM   22  C   UNL     1      44.506 -20.491   4.215  1.00  0.00    -0.008 A 
HETATM   23  C   UNL     1      43.904 -20.654   1.847  1.00  0.00     0.030 A 
HETATM   24  C   UNL     1      44.832 -21.859   4.231  1.00  0.00     0.014 A 
HETATM   25  C   UNL     1      44.529 -19.458   5.191  1.00  0.00     0.040 A 
HETATM   26  C   UNL     1      44.684 -22.611   3.060  1.00  0.00     0.001 A 
HETATM   27  C   UNL     1      44.225 -22.014   1.888  1.00  0.00     0.002 A 
ENDBRANCH   1  18
TORSDOF 3
ENDMDL
MODEL 10
REMARK VINA RESULT:      -7.3      2.398      4.513
REMARK  3 active torsions:
REMARK  status: ('A' for Active; 'I' for Inactive)
REMARK    1  A    between atoms: C_7  and  C_8 
REMARK    2  A    between atoms: N_9  and  C_11 
REMARK    3  A    between atoms: C_11  and  C_12 
ROOT
HETATM    1  C   UNL     1      42.364 -14.939   2.121  1.00  0.00     0.238 C 
HETATM    2  N   UNL     1      41.236 -14.699   1.128  1.00  0.00    -0.056 N 
HETATM    3  H   UNL     1      41.237 -13.685   0.969  1.00  0.00     0.281 HD
HETATM    4  C   UNL     1      39.858 -15.027   1.643  1.00  0.00     0.236 C 
HETATM    5  C   UNL     1      39.588 -14.283   2.940  1.00  0.00     0.028 C 
HETATM    6  C   UNL     1      40.647 -14.570   3.991  1.00  0.00     0.004 C 
HETATM    7  C   UNL     1      42.040 -14.258   3.457  1.00  0.00     0.040 C 
ENDROOT
BRANCH   2   8
HETATM    8  C   UNL     1      41.466 -15.317  -0.239  1.00  0.00     0.295 C 
BRANCH   8   9
HETATM    9  C   UNL     1      40.746 -14.611  -1.315  1.00  0.00     0.077 A 
HETATM   10  N   UNL     1      41.251 -13.554  -2.055  1.00  0.00    -0.155 N 
HETATM   11  C   UNL     1      40.230 -13.128  -2.908  1.00  0.00     0.732 A 
HETATM   12  C   UNL     1      42.493 -12.926  -2.036  1.00  0.00     0.117 A 
HETATM   13  N   UNL     1      40.402 -12.057  -3.731  1.00  0.00    -0.074 NA
HETATM   14  N   UNL     1      39.170 -13.892  -2.768  1.00  0.00    -0.072 NA
HETATM   15  C   UNL     1      41.567 -11.488  -3.707  1.00  0.00     0.138 A 
HETATM   16  C   UNL     1      42.717 -11.882  -2.847  1.00  0.00     0.038 A 
HETATM   17  C   UNL     1      39.488 -14.832  -1.838  1.00  0.00     0.164 A 
ENDBRANCH   8   9
ENDBRANCH   2   8
BRANCH   1  18
HETATM   18  C   UNL     1      42.764 -16.374   2.269  1.00  0.00     0.041 A 
HETATM   19  N   UNL     1      43.293 -16.838   3.459  1.00  0.00    -0.357 N 
HETATM   20  C   UNL     1      43.667 -18.156   3.344  1.00  0.00     0.042 A 
HETATM   21  H   UNL     1      43.424 -16.296   4.307  1.00  0.00     0.166 HD
HETATM   22  C   UNL     1      43.292 -18.580   2.073  1.00  0.00    -0.008 A 
HETATM   23  C   UNL     1      44.286 -19.001   4.271  1.00  0.00     0.030 A 
HETATM   24  C   UNL     1      43.537 -19.914   1.701  1.00  0.00     0.014 A 
HETATM   25  C   UNL     1      42.702 -17.465   1.419  1.00  0.00     0.040 A 
HETATM   26  C   UNL     1      44.160 -20.774   2.612  1.00  0.00     0.001 A 
HETATM   27  C   UNL     1      44.528 -20.321   3.877  1.00  0.00     0.002 A 
ENDBRANCH   1  18
TORSDOF 3
ENDMDL
