MODEL 1
REMARK VINA RESULT:      -8.9      0.000      0.000
REMARK  7 active torsions:
REMARK  status: ('A' for Active; 'I' for Inactive)
REMARK       I    between atoms: C_2  and  N_3 
REMARK    1  A    between atoms: N_3  and  C_4 
REMARK    2  A    between atoms: C_6  and  O_7 
REMARK    3  A    between atoms: O_7  and  C_8 
REMARK    4  A    between atoms: C_8  and  C_9 
REMARK    5  A    between atoms: C_9  and  N_10 
REMARK       I    between atoms: N_10  and  C_11 
REMARK    6  A    between atoms: C_11  and  C_12 
REMARK    7  A    between atoms: C_14  and  C_15 
ROOT
HETATM    1  N   UNL     1      43.944 -15.176   4.993  1.00  0.00    -0.355 N 
HETATM    2  C   UNL     1      42.928 -15.992   4.541  1.00  0.00     0.251 C 
HETATM    3  O   UNL     1      41.779 -15.939   4.960  1.00  0.00    -0.268 OA
HETATM    4  H   UNL     1      44.816 -15.137   4.485  1.00  0.00     0.162 HD
ENDROOT
BRANCH   1   5
HETATM    5  C   UNL     1      43.717 -14.199   6.041  1.00  0.00     0.149 C 
BRANCH   5   6
HETATM    6  C   UNL     1      44.519 -14.465   7.318  1.00  0.00     0.195 C 
BRANCH   6   7
HETATM    7  O   UNL     1      45.378 -13.342   7.537  1.00  0.00    -0.349 OA
BRANCH   7   8
HETATM    8  C   UNL     1      45.116 -12.561   8.630  1.00  0.00     0.070 A 
HETATM    9  C   UNL     1      43.997 -12.664   9.461  1.00  0.00     0.066 A 
HETATM   10  C   UNL     1      43.847 -11.808  10.559  1.00  0.00     0.037 A 
HETATM   11  C   UNL     1      44.833 -10.847  10.814  1.00  0.00     0.029 A 
HETATM   12  C   UNL     1      45.946 -10.733   9.981  1.00  0.00     0.005 A 
HETATM   13  C   UNL     1      46.082 -11.588   8.891  1.00  0.00     0.037 A 
BRANCH  10  14
HETATM   14  N   UNL     1      42.756 -11.857  11.454  1.00  0.00    -0.327 N 
HETATM   15  C   UNL     1      41.602 -11.096  11.419  1.00  0.00     0.218 C 
HETATM   16  C   UNL     1      40.635 -11.467  12.517  1.00  0.00     0.117 C 
HETATM   17  O   UNL     1      41.340 -10.185  10.641  1.00  0.00    -0.274 OA
HETATM   18  H   UNL     1      42.843 -12.515  12.218  1.00  0.00     0.169 HD
ENDBRANCH  10  14
ENDBRANCH   7   8
ENDBRANCH   6   7
ENDBRANCH   5   6
ENDBRANCH   1   5
BRANCH   2  19
HETATM   19  C   UNL     1      43.289 -16.956   3.468  1.00  0.00     0.032 A 
HETATM   20  C   UNL     1      43.599 -18.276   3.833  1.00  0.00     0.029 A 
HETATM   21  C   UNL     1      43.970 -19.218   2.862  1.00  0.00    -0.023 A 
HETATM   22  C   UNL     1      44.031 -18.808   1.522  1.00  0.00     0.012 A 
HETATM   23  C   UNL     1      43.734 -17.491   1.157  1.00  0.00     0.002 A 
HETATM   24  C   UNL     1      43.366 -16.563   2.129  1.00  0.00     0.017 A 
BRANCH  21  25
HETATM   25  C   UNL     1      44.291 -20.596   3.218  1.00  0.00    -0.002 A 
HETATM   26  C   UNL     1      44.274 -21.664   2.340  1.00  0.00     0.153 A 
HETATM   27  O   UNL     1      44.609 -22.820   2.971  1.00  0.00    -0.334 OA
HETATM   28  C   UNL     1      44.843 -22.506   4.268  1.00  0.00     0.142 A 
HETATM   29  C   UNL     1      44.661 -21.159   4.475  1.00  0.00     0.038 A 
ENDBRANCH  21  25
ENDBRANCH   2  19
TORSDOF 7
ENDMDL
MODEL 2
REMARK VINA RESULT:      -8.8      4.555      7.920
REMARK  7 active torsions:
REMARK  status: ('A' for Active; 'I' for Inactive)
REMARK       I    between atoms: C_2  and  N_3 
REMARK    1  A    between atoms: N_3  and  C_4 
REMARK    2  A    between atoms: C_6  and  O_7 
REMARK    3  A    between atoms: O_7  and  C_8 
REMARK    4  A    between atoms: C_8  and  C_9 
REMARK    5  A    between atoms: C_9  and  N_10 
REMARK       I    between atoms: N_10  and  C_11 
REMARK    6  A    between atoms: C_11  and  C_12 
REMARK    7  A    between atoms: C_14  and  C_15 
ROOT
HETATM    1  N   UNL     1      41.718 -15.138   5.347  1.00  0.00    -0.355 N 
HETATM    2  C   UNL     1      41.617 -16.423   5.838  1.00  0.00     0.251 C 
HETATM    3  O   UNL     1      40.589 -16.889   6.311  1.00  0.00    -0.268 OA
HETATM    4  H   UNL     1      42.528 -14.873   4.804  1.00  0.00     0.162 HD
ENDROOT
BRANCH   1   5
HETATM    5  C   UNL     1      40.592 -14.224   5.390  1.00  0.00     0.149 C 
BRANCH   5   6
HETATM    6  C   UNL     1      40.145 -13.729   4.012  1.00  0.00     0.195 C 
BRANCH   6   7
HETATM    7  O   UNL     1      39.523 -14.825   3.335  1.00  0.00    -0.349 OA
BRANCH   7   8
HETATM    8  C   UNL     1      40.186 -15.350   2.258  1.00  0.00     0.070 A 
HETATM    9  C   UNL     1      40.609 -14.640   1.130  1.00  0.00     0.066 A 
HETATM   10  C   UNL     1      41.289 -15.293   0.095  1.00  0.00     0.037 A 
HETATM   11  C   UNL     1      41.541 -16.666   0.203  1.00  0.00     0.029 A 
HETATM   12  C   UNL     1      41.111 -17.380   1.322  1.00  0.00     0.005 A 
HETATM   13  C   UNL     1      40.433 -16.721   2.344  1.00  0.00     0.037 A 
BRANCH  10  14
HETATM   14  N   UNL     1      41.761 -14.646  -1.068  1.00  0.00    -0.327 N 
HETATM   15  C   UNL     1      41.023 -14.232  -2.162  1.00  0.00     0.218 C 
HETATM   16  C   UNL     1      41.870 -13.530  -3.194  1.00  0.00     0.117 C 
HETATM   17  O   UNL     1      39.826 -14.411  -2.356  1.00  0.00    -0.274 OA
HETATM   18  H   UNL     1      42.760 -14.487  -1.108  1.00  0.00     0.169 HD
ENDBRANCH  10  14
ENDBRANCH   7   8
ENDBRANCH   6   7
ENDBRANCH   5   6
ENDBRANCH   1   5
BRANCH   2  19
HETATM   19  C   UNL     1      42.843 -17.259   5.742  1.00  0.00     0.032 A 
HETATM   20  C   UNL     1      42.893 -18.259   4.757  1.00  0.00     0.029 A 
HETATM   21  C   UNL     1      44.015 -19.092   4.640  1.00  0.00    -0.023 A 
HETATM   22  C   UNL     1      45.081 -18.907   5.534  1.00  0.00     0.012 A 
HETATM   23  C   UNL     1      45.029 -17.920   6.524  1.00  0.00     0.002 A 
HETATM   24  C   UNL     1      43.909 -17.097   6.631  1.00  0.00     0.017 A 
BRANCH  21  25
HETATM   25  C   UNL     1      44.092 -20.133   3.621  1.00  0.00    -0.002 A 
HETATM   26  C   UNL     1      44.690 -21.367   3.795  1.00  0.00     0.153 A 
HETATM   27  O   UNL     1      44.608 -22.114   2.662  1.00  0.00    -0.334 OA
HETATM   28  C   UNL     1      43.956 -21.361   1.743  1.00  0.00     0.142 A 
HETATM   29  C   UNL     1      43.618 -20.139   2.277  1.00  0.00     0.038 A 
ENDBRANCH  21  25
ENDBRANCH   2  19
TORSDOF 7
ENDMDL
MODEL 3
REMARK VINA RESULT:      -8.5      4.676      7.269
REMARK  7 active torsions:
REMARK  status: ('A' for Active; 'I' for Inactive)
REMARK       I    between atoms: C_2  and  N_3 
REMARK    1  A    between atoms: N_3  and  C_4 
REMARK    2  A    between atoms: C_6  and  O_7 
REMARK    3  A    between atoms: O_7  and  C_8 
REMARK    4  A    between atoms: C_8  and  C_9 
REMARK    5  A    between atoms: C_9  and  N_10 
REMARK       I    between atoms: N_10  and  C_11 
REMARK    6  A    between atoms: C_11  and  C_12 
REMARK    7  A    between atoms: C_14  and  C_15 
ROOT
HETATM    1  N   UNL     1      41.256 -16.335   4.800  1.00  0.00    -0.355 N 
HETATM    2  C   UNL     1      42.603 -16.228   4.524  1.00  0.00     0.251 C 
HETATM    3  O   UNL     1      43.348 -15.429   5.077  1.00  0.00    -0.268 OA
HETATM    4  H   UNL     1      40.737 -17.129   4.452  1.00  0.00     0.162 HD
ENDROOT
BRANCH   1   5
HETATM    5  C   UNL     1      40.612 -15.463   5.765  1.00  0.00     0.149 C 
BRANCH   5   6
HETATM    6  C   UNL     1      40.168 -14.119   5.183  1.00  0.00     0.195 C 
BRANCH   6   7
HETATM    7  O   UNL     1      39.503 -14.378   3.943  1.00  0.00    -0.349 OA
BRANCH   7   8
HETATM    8  C   UNL     1      40.231 -14.205   2.798  1.00  0.00     0.070 A 
HETATM    9  C   UNL     1      40.084 -14.937   1.615  1.00  0.00     0.066 A 
HETATM   10  C   UNL     1      40.888 -14.657   0.503  1.00  0.00     0.037 A 
HETATM   11  C   UNL     1      41.842 -13.636   0.590  1.00  0.00     0.029 A 
HETATM   12  C   UNL     1      42.000 -12.911   1.771  1.00  0.00     0.005 A 
HETATM   13  C   UNL     1      41.196 -13.200   2.871  1.00  0.00     0.037 A 
BRANCH  10  14
HETATM   14  N   UNL     1      40.792 -15.338  -0.730  1.00  0.00    -0.327 N 
HETATM   15  C   UNL     1      40.371 -14.829  -1.945  1.00  0.00     0.218 C 
HETATM   16  C   UNL     1      40.452 -15.849  -3.054  1.00  0.00     0.117 C 
HETATM   17  O   UNL     1      39.936 -13.704  -2.163  1.00  0.00    -0.274 OA
HETATM   18  H   UNL     1      41.045 -16.318  -0.712  1.00  0.00     0.169 HD
ENDBRANCH  10  14
ENDBRANCH   7   8
ENDBRANCH   6   7
ENDBRANCH   5   6
ENDBRANCH   1   5
BRANCH   2  19
HETATM   19  C   UNL     1      43.142 -17.174   3.511  1.00  0.00     0.032 A 
HETATM   20  C   UNL     1      43.476 -18.474   3.923  1.00  0.00     0.029 A 
HETATM   21  C   UNL     1      44.012 -19.398   3.014  1.00  0.00    -0.023 A 
HETATM   22  C   UNL     1      44.211 -18.989   1.686  1.00  0.00     0.012 A 
HETATM   23  C   UNL     1      43.890 -17.691   1.276  1.00  0.00     0.002 A 
HETATM   24  C   UNL     1      43.359 -16.782   2.187  1.00  0.00     0.017 A 
BRANCH  21  25
HETATM   25  C   UNL     1      44.361 -20.755   3.419  1.00  0.00    -0.002 A 
HETATM   26  C   UNL     1      44.350 -21.857   2.584  1.00  0.00     0.153 A 
HETATM   27  O   UNL     1      44.713 -22.981   3.254  1.00  0.00    -0.334 OA
HETATM   28  C   UNL     1      44.960 -22.612   4.535  1.00  0.00     0.142 A 
HETATM   29  C   UNL     1      44.758 -21.261   4.691  1.00  0.00     0.038 A 
ENDBRANCH  21  25
ENDBRANCH   2  19
TORSDOF 7
ENDMDL
MODEL 4
REMARK VINA RESULT:      -8.4      4.864      8.494
REMARK  7 active torsions:
REMARK  status: ('A' for Active; 'I' for Inactive)
REMARK       I    between atoms: C_2  and  N_3 
REMARK    1  A    between atoms: N_3  and  C_4 
REMARK    2  A    between atoms: C_6  and  O_7 
REMARK    3  A    between atoms: O_7  and  C_8 
REMARK    4  A    between atoms: C_8  and  C_9 
REMARK    5  A    between atoms: C_9  and  N_10 
REMARK       I    between atoms: N_10  and  C_11 
REMARK    6  A    between atoms: C_11  and  C_12 
REMARK    7  A    between atoms: C_14  and  C_15 
ROOT
HETATM    1  N   UNL     1      42.793 -15.048   4.144  1.00  0.00    -0.355 N 
HETATM    2  C   UNL     1      42.320 -16.172   4.788  1.00  0.00     0.251 C 
HETATM    3  O   UNL     1      41.161 -16.303   5.160  1.00  0.00    -0.268 OA
HETATM    4  H   UNL     1      43.699 -15.072   3.698  1.00  0.00     0.162 HD
ENDROOT
BRANCH   1   5
HETATM    5  C   UNL     1      41.933 -13.907   3.889  1.00  0.00     0.149 C 
BRANCH   5   6
HETATM    6  C   UNL     1      42.297 -13.131   2.621  1.00  0.00     0.195 C 
BRANCH   6   7
HETATM    7  O   UNL     1      42.155 -14.019   1.509  1.00  0.00    -0.349 OA
BRANCH   7   8
HETATM    8  C   UNL     1      41.206 -13.701   0.575  1.00  0.00     0.070 A 
HETATM    9  C   UNL     1      40.725 -14.550  -0.427  1.00  0.00     0.066 A 
HETATM   10  C   UNL     1      39.741 -14.107  -1.320  1.00  0.00     0.037 A 
HETATM   11  C   UNL     1      39.245 -12.804  -1.197  1.00  0.00     0.029 A 
HETATM   12  C   UNL     1      39.729 -11.950  -0.206  1.00  0.00     0.005 A 
HETATM   13  C   UNL     1      40.709 -12.400   0.674  1.00  0.00     0.037 A 
BRANCH  10  14
HETATM   14  N   UNL     1      39.194 -14.906  -2.347  1.00  0.00    -0.327 N 
HETATM   15  C   UNL     1      39.824 -15.355  -3.493  1.00  0.00     0.218 C 
HETATM   16  C   UNL     1      38.930 -16.230  -4.336  1.00  0.00     0.117 C 
HETATM   17  O   UNL     1      40.961 -15.086  -3.865  1.00  0.00    -0.274 OA
HETATM   18  H   UNL     1      38.220 -15.160  -2.236  1.00  0.00     0.169 HD
ENDBRANCH  10  14
ENDBRANCH   7   8
ENDBRANCH   6   7
ENDBRANCH   5   6
ENDBRANCH   1   5
BRANCH   2  19
HETATM   19  C   UNL     1      43.301 -17.271   4.995  1.00  0.00     0.032 A 
HETATM   20  C   UNL     1      43.301 -18.344   4.091  1.00  0.00     0.029 A 
HETATM   21  C   UNL     1      44.189 -19.418   4.255  1.00  0.00    -0.023 A 
HETATM   22  C   UNL     1      45.069 -19.395   5.347  1.00  0.00     0.012 A 
HETATM   23  C   UNL     1      45.063 -18.332   6.256  1.00  0.00     0.002 A 
HETATM   24  C   UNL     1      44.178 -17.271   6.083  1.00  0.00     0.017 A 
BRANCH  21  25
HETATM   25  C   UNL     1      44.210 -20.541   3.325  1.00  0.00    -0.002 A 
HETATM   26  C   UNL     1      44.634 -21.819   3.637  1.00  0.00     0.153 A 
HETATM   27  O   UNL     1      44.544 -22.642   2.559  1.00  0.00    -0.334 OA
HETATM   28  C   UNL     1      44.063 -21.895   1.536  1.00  0.00     0.142 A 
HETATM   29  C   UNL     1      43.842 -20.602   1.949  1.00  0.00     0.038 A 
ENDBRANCH  21  25
ENDBRANCH   2  19
TORSDOF 7
ENDMDL
MODEL 5
REMARK VINA RESULT:      -8.3      1.867      2.737
REMARK  7 active torsions:
REMARK  status: ('A' for Active; 'I' for Inactive)
REMARK       I    between atoms: C_2  and  N_3 
REMARK    1  A    between atoms: N_3  and  C_4 
REMARK    2  A    between atoms: C_6  and  O_7 
REMARK    3  A    between atoms: O_7  and  C_8 
REMARK    4  A    between atoms: C_8  and  C_9 
REMARK    5  A    between atoms: C_9  and  N_10 
REMARK       I    between atoms: N_10  and  C_11 
REMARK    6  A    between atoms: C_11  and  C_12 
REMARK    7  A    between atoms: C_14  and  C_15 
ROOT
HETATM    1  N   UNL     1      40.929 -15.365   3.908  1.00  0.00    -0.355 N 
HETATM    2  C   UNL     1      41.374 -16.628   4.240  1.00  0.00     0.251 C 
HETATM    3  O   UNL     1      40.991 -17.244   5.226  1.00  0.00    -0.268 OA
HETATM    4  H   UNL     1      41.135 -14.987   2.995  1.00  0.00     0.162 HD
ENDROOT
BRANCH   1   5
HETATM    5  C   UNL     1      39.978 -14.656   4.744  1.00  0.00     0.149 C 
BRANCH   5   6
HETATM    6  C   UNL     1      40.615 -13.585   5.633  1.00  0.00     0.195 C 
BRANCH   6   7
HETATM    7  O   UNL     1      41.943 -13.353   5.154  1.00  0.00    -0.349 OA
BRANCH   7   8
HETATM    8  C   UNL     1      42.935 -13.259   6.092  1.00  0.00     0.070 A 
HETATM    9  C   UNL     1      42.968 -12.362   7.164  1.00  0.00     0.066 A 
HETATM   10  C   UNL     1      44.040 -12.370   8.065  1.00  0.00     0.037 A 
HETATM   11  C   UNL     1      45.080 -13.289   7.878  1.00  0.00     0.029 A 
HETATM   12  C   UNL     1      45.058 -14.178   6.804  1.00  0.00     0.005 A 
HETATM   13  C   UNL     1      43.988 -14.159   5.914  1.00  0.00     0.037 A 
BRANCH  10  14
HETATM   14  N   UNL     1      44.140 -11.509   9.179  1.00  0.00    -0.327 N 
HETATM   15  C   UNL     1      44.304 -11.861  10.506  1.00  0.00     0.218 C 
HETATM   16  C   UNL     1      44.420 -10.659  11.410  1.00  0.00     0.117 C 
HETATM   17  O   UNL     1      44.326 -12.995  10.972  1.00  0.00    -0.274 OA
HETATM   18  H   UNL     1      44.062 -10.520   8.979  1.00  0.00     0.169 HD
ENDBRANCH  10  14
ENDBRANCH   7   8
ENDBRANCH   6   7
ENDBRANCH   5   6
ENDBRANCH   1   5
BRANCH   2  19
HETATM   19  C   UNL     1      42.352 -17.245   3.306  1.00  0.00     0.032 A 
HETATM   20  C   UNL     1      42.760 -18.567   3.543  1.00  0.00     0.029 A 
HETATM   21  C   UNL     1      43.699 -19.187   2.707  1.00  0.00    -0.023 A 
HETATM   22  C   UNL     1      44.225 -18.453   1.633  1.00  0.00     0.012 A 
HETATM   23  C   UNL     1      43.830 -17.132   1.401  1.00  0.00     0.002 A 
HETATM   24  C   UNL     1      42.896 -16.525   2.238  1.00  0.00     0.017 A 
BRANCH  21  25
HETATM   25  C   UNL     1      44.133 -20.562   2.932  1.00  0.00    -0.002 A 
HETATM   26  C   UNL     1      44.076 -21.573   1.991  1.00  0.00     0.153 A 
HETATM   27  O   UNL     1      44.543 -22.742   2.501  1.00  0.00    -0.334 OA
HETATM   28  C   UNL     1      44.902 -22.494   3.784  1.00  0.00     0.142 A 
HETATM   29  C   UNL     1      44.671 -21.176   4.100  1.00  0.00     0.038 A 
ENDBRANCH  21  25
ENDBRANCH   2  19
TORSDOF 7
ENDMDL
MODEL 6
REMARK VINA RESULT:      -8.2      3.475      5.724
REMARK  7 active torsions:
REMARK  status: ('A' for Active; 'I' for Inactive)
REMARK       I    between atoms: C_2  and  N_3 
REMARK    1  A    between atoms: N_3  and  C_4 
REMARK    2  A    between atoms: C_6  and  O_7 
REMARK    3  A    between atoms: O_7  and  C_8 
REMARK    4  A    between atoms: C_8  and  C_9 
REMARK    5  A    between atoms: C_9  and  N_10 
REMARK       I    between atoms: N_10  and  C_11 
REMARK    6  A    between atoms: C_11  and  C_12 
REMARK    7  A    between atoms: C_14  and  C_15 
ROOT
HETATM    1  N   UNL     1      41.888 -16.266   1.205  1.00  0.00    -0.355 N 
HETATM    2  C   UNL     1      41.622 -17.601   1.423  1.00  0.00     0.251 C 
HETATM    3  O   UNL     1      40.678 -18.195   0.919  1.00  0.00    -0.268 OA
HETATM    4  H   UNL     1      42.776 -15.880   1.493  1.00  0.00     0.162 HD
ENDROOT
BRANCH   1   5
HETATM    5  C   UNL     1      41.026 -15.451   0.369  1.00  0.00     0.149 C 
BRANCH   5   6
HETATM    6  C   UNL     1      39.906 -14.747   1.137  1.00  0.00     0.195 C 
BRANCH   6   7
HETATM    7  O   UNL     1      39.914 -15.247   2.478  1.00  0.00    -0.349 OA
BRANCH   7   8
HETATM    8  C   UNL     1      40.274 -14.373   3.467  1.00  0.00     0.070 A 
HETATM    9  C   UNL     1      41.264 -14.588   4.431  1.00  0.00     0.066 A 
HETATM   10  C   UNL     1      41.546 -13.607   5.390  1.00  0.00     0.037 A 
HETATM   11  C   UNL     1      40.825 -12.408   5.371  1.00  0.00     0.029 A 
HETATM   12  C   UNL     1      39.829 -12.193   4.418  1.00  0.00     0.005 A 
HETATM   13  C   UNL     1      39.556 -13.176   3.472  1.00  0.00     0.037 A 
BRANCH  10  14
HETATM   14  N   UNL     1      42.538 -13.742   6.386  1.00  0.00    -0.327 N 
HETATM   15  C   UNL     1      43.910 -13.757   6.213  1.00  0.00     0.218 C 
HETATM   16  C   UNL     1      44.652 -13.868   7.522  1.00  0.00     0.117 C 
HETATM   17  O   UNL     1      44.522 -13.726   5.151  1.00  0.00    -0.274 OA
HETATM   18  H   UNL     1      42.198 -13.858   7.332  1.00  0.00     0.169 HD
ENDBRANCH  10  14
ENDBRANCH   7   8
ENDBRANCH   6   7
ENDBRANCH   5   6
ENDBRANCH   1   5
BRANCH   2  19
HETATM   19  C   UNL     1      42.577 -18.324   2.304  1.00  0.00     0.032 A 
HETATM   20  C   UNL     1      42.583 -18.021   3.674  1.00  0.00     0.029 A 
HETATM   21  C   UNL     1      43.481 -18.656   4.545  1.00  0.00    -0.023 A 
HETATM   22  C   UNL     1      44.376 -19.595   4.011  1.00  0.00     0.012 A 
HETATM   23  C   UNL     1      44.381 -19.891   2.644  1.00  0.00     0.002 A 
HETATM   24  C   UNL     1      43.485 -19.255   1.789  1.00  0.00     0.017 A 
BRANCH  21  25
HETATM   25  C   UNL     1      43.500 -18.360   5.973  1.00  0.00    -0.002 A 
HETATM   26  C   UNL     1      44.075 -19.163   6.939  1.00  0.00     0.153 A 
HETATM   27  O   UNL     1      43.922 -18.624   8.177  1.00  0.00    -0.334 OA
HETATM   28  C   UNL     1      43.241 -17.464   8.018  1.00  0.00     0.142 A 
HETATM   29  C   UNL     1      42.955 -17.255   6.690  1.00  0.00     0.038 A 
ENDBRANCH  21  25
ENDBRANCH   2  19
TORSDOF 7
ENDMDL
MODEL 7
REMARK VINA RESULT:      -8.2      3.843      5.502
REMARK  7 active torsions:
REMARK  status: ('A' for Active; 'I' for Inactive)
REMARK       I    between atoms: C_2  and  N_3 
REMARK    1  A    between atoms: N_3  and  C_4 
REMARK    2  A    between atoms: C_6  and  O_7 
REMARK    3  A    between atoms: O_7  and  C_8 
REMARK    4  A    between atoms: C_8  and  C_9 
REMARK    5  A    between atoms: C_9  and  N_10 
REMARK       I    between atoms: N_10  and  C_11 
REMARK    6  A    between atoms: C_11  and  C_12 
REMARK    7  A    between atoms: C_14  and  C_15 
ROOT
HETATM    1  N   UNL     1      41.764 -17.377   1.695  1.00  0.00    -0.355 N 
HETATM    2  C   UNL     1      43.067 -17.819   1.603  1.00  0.00     0.251 C 
HETATM    3  O   UNL     1      43.809 -17.552   0.667  1.00  0.00    -0.268 OA
HETATM    4  H   UNL     1      41.264 -17.471   2.568  1.00  0.00     0.162 HD
ENDROOT
BRANCH   1   5
HETATM    5  C   UNL     1      41.165 -16.572   0.646  1.00  0.00     0.149 C 
BRANCH   5   6
HETATM    6  C   UNL     1      40.534 -15.271   1.150  1.00  0.00     0.195 C 
BRANCH   6   7
HETATM    7  O   UNL     1      41.591 -14.340   1.397  1.00  0.00    -0.349 OA
BRANCH   7   8
HETATM    8  C   UNL     1      41.937 -14.122   2.704  1.00  0.00     0.070 A 
HETATM    9  C   UNL     1      41.063 -13.766   3.735  1.00  0.00     0.066 A 
HETATM   10  C   UNL     1      41.540 -13.580   5.038  1.00  0.00     0.037 A 
HETATM   11  C   UNL     1      42.905 -13.755   5.296  1.00  0.00     0.029 A 
HETATM   12  C   UNL     1      43.783 -14.100   4.268  1.00  0.00     0.005 A 
HETATM   13  C   UNL     1      43.297 -14.280   2.976  1.00  0.00     0.037 A 
BRANCH  10  14
HETATM   14  N   UNL     1      40.722 -13.234   6.135  1.00  0.00    -0.327 N 
HETATM   15  C   UNL     1      40.222 -11.985   6.455  1.00  0.00     0.218 C 
HETATM   16  C   UNL     1      39.341 -12.015   7.679  1.00  0.00     0.117 C 
HETATM   17  O   UNL     1      40.454 -10.928   5.880  1.00  0.00    -0.274 OA
HETATM   18  H   UNL     1      40.493 -13.990   6.769  1.00  0.00     0.169 HD
ENDBRANCH  10  14
ENDBRANCH   7   8
ENDBRANCH   6   7
ENDBRANCH   5   6
ENDBRANCH   1   5
BRANCH   2  19
HETATM   19  C   UNL     1      43.561 -18.641   2.739  1.00  0.00     0.032 A 
HETATM   20  C   UNL     1      43.447 -18.122   4.038  1.00  0.00     0.029 A 
HETATM   21  C   UNL     1      43.921 -18.845   5.143  1.00  0.00    -0.023 A 
HETATM   22  C   UNL     1      44.516 -20.095   4.916  1.00  0.00     0.012 A 
HETATM   23  C   UNL     1      44.642 -20.610   3.622  1.00  0.00     0.002 A 
HETATM   24  C   UNL     1      44.169 -19.883   2.532  1.00  0.00     0.017 A 
BRANCH  21  25
HETATM   25  C   UNL     1      43.807 -18.327   6.502  1.00  0.00    -0.002 A 
HETATM   26  C   UNL     1      44.264 -18.973   7.635  1.00  0.00     0.153 A 
HETATM   27  O   UNL     1      44.004 -18.244   8.752  1.00  0.00    -0.334 OA
HETATM   28  C   UNL     1      43.371 -17.117   8.346  1.00  0.00     0.142 A 
HETATM   29  C   UNL     1      43.223 -17.117   6.978  1.00  0.00     0.038 A 
ENDBRANCH  21  25
ENDBRANCH   2  19
TORSDOF 7
ENDMDL
MODEL 8
REMARK VINA RESULT:      -8.1      4.878      8.037
REMARK  7 active torsions:
REMARK  status: ('A' for Active; 'I' for Inactive)
REMARK       I    between atoms: C_2  and  N_3 
REMARK    1  A    between atoms: N_3  and  C_4 
REMARK    2  A    between atoms: C_6  and  O_7 
REMARK    3  A    between atoms: O_7  and  C_8 
REMARK    4  A    between atoms: C_8  and  C_9 
REMARK    5  A    between atoms: C_9  and  N_10 
REMARK       I    between atoms: N_10  and  C_11 
REMARK    6  A    between atoms: C_11  and  C_12 
REMARK    7  A    between atoms: C_14  and  C_15 
ROOT
HETATM    1  N   UNL     1      41.966 -15.269   4.697  1.00  0.00    -0.355 N 
HETATM    2  C   UNL     1      43.042 -15.775   3.998  1.00  0.00     0.251 C 
HETATM    3  O   UNL     1      43.541 -15.221   3.027  1.00  0.00    -0.268 OA
HETATM    4  H   UNL     1      41.719 -15.669   5.591  1.00  0.00     0.162 HD
ENDROOT
BRANCH   1   5
HETATM    5  C   UNL     1      41.320 -14.033   4.297  1.00  0.00     0.149 C 
BRANCH   5   6
HETATM    6  C   UNL     1      39.838 -14.195   3.951  1.00  0.00     0.195 C 
BRANCH   6   7
HETATM    7  O   UNL     1      39.738 -15.155   2.894  1.00  0.00    -0.349 OA
BRANCH   7   8
HETATM    8  C   UNL     1      39.517 -14.673   1.633  1.00  0.00     0.070 A 
HETATM    9  C   UNL     1      40.498 -14.407   0.673  1.00  0.00     0.066 A 
HETATM   10  C   UNL     1      40.142 -13.922  -0.592  1.00  0.00     0.037 A 
HETATM   11  C   UNL     1      38.789 -13.705  -0.883  1.00  0.00     0.029 A 
HETATM   12  C   UNL     1      37.808 -13.958   0.076  1.00  0.00     0.005 A 
HETATM   13  C   UNL     1      38.174 -14.438   1.330  1.00  0.00     0.037 A 
BRANCH  10  14
HETATM   14  N   UNL     1      41.069 -13.644  -1.619  1.00  0.00    -0.327 N 
HETATM   15  C   UNL     1      41.657 -12.429  -1.919  1.00  0.00     0.218 C 
HETATM   16  C   UNL     1      42.640 -12.531  -3.059  1.00  0.00     0.117 C 
HETATM   17  O   UNL     1      41.429 -11.347  -1.389  1.00  0.00    -0.274 OA
HETATM   18  H   UNL     1      41.314 -14.425  -2.214  1.00  0.00     0.169 HD
ENDBRANCH  10  14
ENDBRANCH   7   8
ENDBRANCH   6   7
ENDBRANCH   5   6
ENDBRANCH   1   5
BRANCH   2  19
HETATM   19  C   UNL     1      43.612 -17.051   4.505  1.00  0.00     0.032 A 
HETATM   20  C   UNL     1      43.640 -18.159   3.643  1.00  0.00     0.029 A 
HETATM   21  C   UNL     1      44.143 -19.393   4.079  1.00  0.00    -0.023 A 
HETATM   22  C   UNL     1      44.611 -19.495   5.398  1.00  0.00     0.012 A 
HETATM   23  C   UNL     1      44.573 -18.397   6.263  1.00  0.00     0.002 A 
HETATM   24  C   UNL     1      44.071 -17.175   5.820  1.00  0.00     0.017 A 
BRANCH  21  25
HETATM   25  C   UNL     1      44.187 -20.555   3.198  1.00  0.00    -0.002 A 
HETATM   26  C   UNL     1      44.731 -21.781   3.533  1.00  0.00     0.153 A 
HETATM   27  O   UNL     1      44.630 -22.659   2.500  1.00  0.00    -0.334 OA
HETATM   28  C   UNL     1      44.021 -22.001   1.484  1.00  0.00     0.142 A 
HETATM   29  C   UNL     1      43.730 -20.709   1.857  1.00  0.00     0.038 A 
ENDBRANCH  21  25
ENDBRANCH   2  19
TORSDOF 7
ENDMDL
MODEL 9
REMARK VINA RESULT:      -7.9      2.654      3.660
REMARK  7 active torsions:
REMARK  status: ('A' for Active; 'I' for Inactive)
REMARK       I    between atoms: C_2  and  N_3 
REMARK    1  A    between atoms: N_3  and  C_4 
REMARK    2  A    between atoms: C_6  and  O_7 
REMARK    3  A    between atoms: O_7  and  C_8 
REMARK    4  A    between atoms: C_8  and  C_9 
REMARK    5  A    between atoms: C_9  and  N_10 
REMARK       I    between atoms: N_10  and  C_11 
REMARK    6  A    between atoms: C_11  and  C_12 
REMARK    7  A    between atoms: C_14  and  C_15 
ROOT
HETATM    1  N   UNL     1      41.591 -15.668   4.615  1.00  0.00    -0.355 N 
HETATM    2  C   UNL     1      41.627 -16.767   5.448  1.00  0.00     0.251 C 
HETATM    3  O   UNL     1      40.705 -17.090   6.185  1.00  0.00    -0.268 OA
HETATM    4  H   UNL     1      42.297 -15.559   3.901  1.00  0.00     0.162 HD
ENDROOT
BRANCH   1   5
HETATM    5  C   UNL     1      40.440 -14.785   4.582  1.00  0.00     0.149 C 
BRANCH   5   6
HETATM    6  C   UNL     1      40.688 -13.476   3.829  1.00  0.00     0.195 C 
BRANCH   6   7
HETATM    7  O   UNL     1      41.884 -12.890   4.352  1.00  0.00    -0.349 OA
BRANCH   7   8
HETATM    8  C   UNL     1      41.735 -11.897   5.282  1.00  0.00     0.070 A 
HETATM    9  C   UNL     1      41.996 -12.010   6.651  1.00  0.00     0.066 A 
HETATM   10  C   UNL     1      41.813 -10.912   7.502  1.00  0.00     0.037 A 
HETATM   11  C   UNL     1      41.365  -9.700   6.964  1.00  0.00     0.029 A 
HETATM   12  C   UNL     1      41.093  -9.585   5.601  1.00  0.00     0.005 A 
HETATM   13  C   UNL     1      41.276 -10.684   4.765  1.00  0.00     0.037 A 
BRANCH  10  14
HETATM   14  N   UNL     1      42.068 -10.941   8.890  1.00  0.00    -0.327 N 
HETATM   15  C   UNL     1      43.297 -10.905   9.523  1.00  0.00     0.218 C 
HETATM   16  C   UNL     1      43.169 -10.902  11.026  1.00  0.00     0.117 C 
HETATM   17  O   UNL     1      44.402 -10.911   8.993  1.00  0.00    -0.274 OA
HETATM   18  H   UNL     1      41.253 -11.015   9.485  1.00  0.00     0.169 HD
ENDBRANCH  10  14
ENDBRANCH   7   8
ENDBRANCH   6   7
ENDBRANCH   5   6
ENDBRANCH   1   5
BRANCH   2  19
HETATM   19  C   UNL     1      42.864 -17.590   5.394  1.00  0.00     0.032 A 
HETATM   20  C   UNL     1      42.927 -18.640   4.465  1.00  0.00     0.029 A 
HETATM   21  C   UNL     1      44.062 -19.462   4.390  1.00  0.00    -0.023 A 
HETATM   22  C   UNL     1      45.126 -19.213   5.270  1.00  0.00     0.012 A 
HETATM   23  C   UNL     1      45.061 -18.175   6.204  1.00  0.00     0.002 A 
HETATM   24  C   UNL     1      43.930 -17.364   6.270  1.00  0.00     0.017 A 
BRANCH  21  25
HETATM   25  C   UNL     1      44.151 -20.556   3.429  1.00  0.00    -0.002 A 
HETATM   26  C   UNL     1      44.631 -21.821   3.712  1.00  0.00     0.153 A 
HETATM   27  O   UNL     1      44.597 -22.615   2.610  1.00  0.00    -0.334 OA
HETATM   28  C   UNL     1      44.095 -21.863   1.601  1.00  0.00     0.142 A 
HETATM   29  C   UNL     1      43.806 -20.594   2.046  1.00  0.00     0.038 A 
ENDBRANCH  21  25
ENDBRANCH   2  19
TORSDOF 7
ENDMDL
MODEL 10
REMARK VINA RESULT:      -7.9      5.036      9.472
REMARK  7 active torsions:
REMARK  status: ('A' for Active; 'I' for Inactive)
REMARK       I    between atoms: C_2  and  N_3 
REMARK    1  A    between atoms: N_3  and  C_4 
REMARK    2  A    between atoms: C_6  and  O_7 
REMARK    3  A    between atoms: O_7  and  C_8 
REMARK    4  A    between atoms: C_8  and  C_9 
REMARK    5  A    between atoms: C_9  and  N_10 
REMARK       I    between atoms: N_10  and  C_11 
REMARK    6  A    between atoms: C_11  and  C_12 
REMARK    7  A    between atoms: C_14  and  C_15 
ROOT
HETATM    1  N   UNL     1      40.737 -16.201   2.579  1.00  0.00    -0.355 N 
HETATM    2  C   UNL     1      41.197 -17.386   2.044  1.00  0.00     0.251 C 
HETATM    3  O   UNL     1      40.780 -17.863   0.996  1.00  0.00    -0.268 OA
HETATM    4  H   UNL     1      41.243 -15.767   3.338  1.00  0.00     0.162 HD
ENDROOT
BRANCH   1   5
HETATM    5  C   UNL     1      39.682 -15.441   1.935  1.00  0.00     0.149 C 
BRANCH   5   6
HETATM    6  C   UNL     1      40.170 -14.159   1.257  1.00  0.00     0.195 C 
BRANCH   6   7
HETATM    7  O   UNL     1      41.423 -14.446   0.629  1.00  0.00    -0.349 OA
BRANCH   7   8
HETATM    8  C   UNL     1      41.463 -14.385  -0.738  1.00  0.00     0.070 A 
HETATM    9  C   UNL     1      41.921 -13.303  -1.497  1.00  0.00     0.066 A 
HETATM   10  C   UNL     1      41.919 -13.367  -2.896  1.00  0.00     0.037 A 
HETATM   11  C   UNL     1      41.454 -14.528  -3.526  1.00  0.00     0.029 A 
HETATM   12  C   UNL     1      40.986 -15.605  -2.773  1.00  0.00     0.005 A 
HETATM   13  C   UNL     1      40.990 -15.529  -1.382  1.00  0.00     0.037 A 
BRANCH  10  14
HETATM   14  N   UNL     1      42.377 -12.326  -3.733  1.00  0.00    -0.327 N 
HETATM   15  C   UNL     1      41.635 -11.297  -4.282  1.00  0.00     0.218 C 
HETATM   16  C   UNL     1      42.484 -10.342  -5.085  1.00  0.00     0.117 C 
HETATM   17  O   UNL     1      40.423 -11.135  -4.201  1.00  0.00    -0.274 OA
HETATM   18  H   UNL     1      43.361 -12.353  -3.969  1.00  0.00     0.169 HD
ENDBRANCH  10  14
ENDBRANCH   7   8
ENDBRANCH   6   7
ENDBRANCH   5   6
ENDBRANCH   1   5
BRANCH   2  19
HETATM   19  C   UNL     1      42.276 -18.073   2.802  1.00  0.00     0.032 A 
HETATM   20  C   UNL     1      42.390 -17.821   4.178  1.00  0.00     0.029 A 
HETATM   21  C   UNL     1      43.406 -18.424   4.934  1.00  0.00    -0.023 A 
HETATM   22  C   UNL     1      44.307 -19.277   4.281  1.00  0.00     0.012 A 
HETATM   23  C   UNL     1      44.204 -19.521   2.908  1.00  0.00     0.002 A 
HETATM   24  C   UNL     1      43.191 -18.917   2.166  1.00  0.00     0.017 A 
BRANCH  21  25
HETATM   25  C   UNL     1      43.539 -18.181   6.366  1.00  0.00    -0.002 A 
HETATM   26  C   UNL     1      43.981 -19.111   7.288  1.00  0.00     0.153 A 
HETATM   27  O   UNL     1      43.987 -18.590   8.544  1.00  0.00    -0.334 OA
HETATM   28  C   UNL     1      43.541 -17.315   8.441  1.00  0.00     0.142 A 
HETATM   29  C   UNL     1      43.251 -17.012   7.131  1.00  0.00     0.038 A 
ENDBRANCH  21  25
ENDBRANCH   2  19
TORSDOF 7
ENDMDL
