MODEL 1
REMARK VINA RESULT:      -9.5      0.000      0.000
REMARK  9 active torsions:
REMARK  status: ('A' for Active; 'I' for Inactive)
REMARK    1  A    between atoms: C_4  and  S_5 
REMARK    2  A    between atoms: S_5  and  C_6 
REMARK    3  A    between atoms: C_6  and  C_7 
REMARK       I    between atoms: C_7  and  N_8 
REMARK    4  A    between atoms: N_8  and  C_9 
REMARK    5  A    between atoms: C_10  and  O_11 
REMARK    6  A    between atoms: C_22  and  C_23 
REMARK    7  A    between atoms: C_29  and  C_30 
REMARK       I    between atoms: C_30  and  N_31 
REMARK    8  A    between atoms: N_31  and  C_32 
REMARK    9  A    between atoms: C_33  and  O_34 
ROOT
HETATM    1  C   UNL     1      40.404 -15.717   6.086  1.00  0.00     0.069 C 
HETATM    2  C   UNL     1      40.666 -14.690   5.007  1.00  0.00     0.019 A 
HETATM    3  N   UNL     1      40.537 -13.378   5.422  1.00  0.00    -0.353 N 
HETATM    4  C   UNL     1      40.647 -12.267   4.623  1.00  0.00     0.087 A 
HETATM    5  C   UNL     1      40.956 -12.423   3.315  1.00  0.00     0.055 A 
HETATM    6  C   UNL     1      40.852 -11.230   2.379  1.00  0.00     0.019 C 
HETATM    7  N   UNL     1      40.767 -10.240   1.601  1.00  0.00    -0.096 N 
HETATM    8  C   UNL     1      41.089 -13.823   2.695  1.00  0.00     0.104 A 
HETATM    9  C   UNL     1      40.969 -14.971   3.712  1.00  0.00     0.046 A 
HETATM   10  H   UNL     1      40.264 -13.202   6.386  1.00  0.00     0.166 HD
ENDROOT
BRANCH   4  11
HETATM   11  S   UNL     1      40.330 -10.679   5.302  1.00  0.00    -0.102 SA
BRANCH  11  12
HETATM   12  C   UNL     1      41.283 -10.806   6.857  1.00  0.00     0.184 C 
BRANCH  12  13
HETATM   13  C   UNL     1      40.354 -10.939   8.038  1.00  0.00     0.231 C 
HETATM   14  N   UNL     1      40.787 -10.975   9.327  1.00  0.00    -0.324 N 
HETATM   15  H   UNL     1      40.015 -11.166   9.965  1.00  0.00     0.169 HD
HETATM   16  O   UNL     1      39.135 -11.052   7.846  1.00  0.00    -0.272 OA
BRANCH  14  17
HETATM   17  C   UNL     1      42.034 -10.892   9.985  1.00  0.00     0.070 A 
HETATM   18  C   UNL     1      41.970 -10.683  11.386  1.00  0.00     0.095 A 
HETATM   19  C   UNL     1      43.141 -10.610  12.144  1.00  0.00     0.041 A 
HETATM   20  C   UNL     1      44.382 -10.726  11.522  1.00  0.00     0.026 A 
HETATM   21  C   UNL     1      44.448 -10.907  10.144  1.00  0.00     0.036 A 
HETATM   22 CL   UNL     1      45.985 -11.027   9.378  1.00  0.00    -0.084 Cl
HETATM   23  C   UNL     1      43.284 -10.986   9.376  1.00  0.00     0.056 A 
BRANCH  18  24
HETATM   24  O   UNL     1      40.697 -10.578  11.902  1.00  0.00    -0.354 OA
HETATM   25  C   UNL     1      40.267 -11.601  12.789  1.00  0.00     0.210 C 
ENDBRANCH  18  24
ENDBRANCH  14  17
ENDBRANCH  12  13
ENDBRANCH  11  12
ENDBRANCH   4  11
BRANCH   8  26
HETATM   26  C   UNL     1      40.078 -13.929   1.543  1.00  0.00    -0.044 A 
HETATM   27  C   UNL     1      40.533 -13.898   0.212  1.00  0.00     0.008 A 
HETATM   28  C   UNL     1      39.627 -13.933  -0.849  1.00  0.00     0.001 A 
HETATM   29  C   UNL     1      38.260 -13.999  -0.596  1.00  0.00     0.000 A 
HETATM   30  C   UNL     1      37.794 -14.021   0.718  1.00  0.00     0.001 A 
HETATM   31  C   UNL     1      38.694 -13.980   1.783  1.00  0.00     0.008 A 
ENDBRANCH   8  26
BRANCH   9  32
HETATM   32  C   UNL     1      41.277 -16.403   3.338  1.00  0.00     0.255 C 
HETATM   33  N   UNL     1      42.444 -16.937   3.825  1.00  0.00    -0.321 N 
HETATM   34  H   UNL     1      42.972 -16.462   4.544  1.00  0.00     0.169 HD
HETATM   35  O   UNL     1      40.468 -17.046   2.672  1.00  0.00    -0.268 OA
BRANCH  33  36
HETATM   36  C   UNL     1      43.070 -18.144   3.421  1.00  0.00     0.068 A 
HETATM   37  C   UNL     1      43.860 -18.813   4.381  1.00  0.00     0.095 A 
HETATM   38  C   UNL     1      44.553 -19.974   4.023  1.00  0.00     0.039 A 
HETATM   39  C   UNL     1      44.473 -20.465   2.719  1.00  0.00     0.003 A 
HETATM   40  C   UNL     1      43.696 -19.804   1.771  1.00  0.00     0.002 A 
HETATM   41  C   UNL     1      42.994 -18.650   2.121  1.00  0.00     0.032 A 
BRANCH  37  42
HETATM   42  O   UNL     1      43.869 -18.250   5.637  1.00  0.00    -0.354 OA
HETATM   43  C   UNL     1      45.111 -18.232   6.328  1.00  0.00     0.210 C 
ENDBRANCH  37  42
ENDBRANCH  33  36
ENDBRANCH   9  32
TORSDOF 9
ENDMDL
MODEL 2
REMARK VINA RESULT:      -9.5      2.682      5.751
REMARK  9 active torsions:
REMARK  status: ('A' for Active; 'I' for Inactive)
REMARK    1  A    between atoms: C_4  and  S_5 
REMARK    2  A    between atoms: S_5  and  C_6 
REMARK    3  A    between atoms: C_6  and  C_7 
REMARK       I    between atoms: C_7  and  N_8 
REMARK    4  A    between atoms: N_8  and  C_9 
REMARK    5  A    between atoms: C_10  and  O_11 
REMARK    6  A    between atoms: C_22  and  C_23 
REMARK    7  A    between atoms: C_29  and  C_30 
REMARK       I    between atoms: C_30  and  N_31 
REMARK    8  A    between atoms: N_31  and  C_32 
REMARK    9  A    between atoms: C_33  and  O_34 
ROOT
HETATM    1  C   UNL     1      41.862 -12.010   3.945  1.00  0.00     0.069 C 
HETATM    2  C   UNL     1      42.296 -13.336   4.529  1.00  0.00     0.019 A 
HETATM    3  N   UNL     1      43.351 -13.252   5.418  1.00  0.00    -0.353 N 
HETATM    4  C   UNL     1      43.978 -14.313   6.024  1.00  0.00     0.087 A 
HETATM    5  C   UNL     1      43.524 -15.566   5.796  1.00  0.00     0.055 A 
HETATM    6  C   UNL     1      44.345 -16.754   6.271  1.00  0.00     0.019 C 
HETATM    7  N   UNL     1      45.026 -17.739   6.665  1.00  0.00    -0.096 N 
HETATM    8  C   UNL     1      42.383 -15.826   4.797  1.00  0.00     0.104 A 
HETATM    9  C   UNL     1      41.758 -14.545   4.216  1.00  0.00     0.046 A 
HETATM   10  H   UNL     1      43.760 -12.339   5.595  1.00  0.00     0.166 HD
ENDROOT
BRANCH   4  11
HETATM   11  S   UNL     1      45.384 -14.023   7.034  1.00  0.00    -0.102 SA
BRANCH  11  12
HETATM   12  C   UNL     1      44.602 -13.104   8.407  1.00  0.00     0.184 C 
BRANCH  12  13
HETATM   13  C   UNL     1      45.418 -11.886   8.762  1.00  0.00     0.231 C 
HETATM   14  N   UNL     1      44.983 -10.919   9.615  1.00  0.00    -0.324 N 
HETATM   15  H   UNL     1      45.638 -10.139   9.645  1.00  0.00     0.169 HD
HETATM   16  O   UNL     1      46.530 -11.723   8.242  1.00  0.00    -0.272 OA
BRANCH  14  17
HETATM   17  C   UNL     1      43.828 -10.697  10.397  1.00  0.00     0.070 A 
HETATM   18  C   UNL     1      42.659 -10.354   9.670  1.00  0.00     0.095 A 
HETATM   19  C   UNL     1      41.451 -10.136  10.337  1.00  0.00     0.041 A 
HETATM   20  C   UNL     1      41.393 -10.237  11.726  1.00  0.00     0.026 A 
HETATM   21  C   UNL     1      42.544 -10.549  12.442  1.00  0.00     0.036 A 
HETATM   22 CL   UNL     1      42.471 -10.651  14.159  1.00  0.00    -0.084 Cl
HETATM   23  C   UNL     1      43.757 -10.774  11.787  1.00  0.00     0.056 A 
BRANCH  18  24
HETATM   24  O   UNL     1      42.823 -10.276   8.305  1.00  0.00    -0.354 OA
HETATM   25  C   UNL     1      41.737 -10.697   7.492  1.00  0.00     0.210 C 
ENDBRANCH  18  24
ENDBRANCH  14  17
ENDBRANCH  12  13
ENDBRANCH  11  12
ENDBRANCH   4  11
BRANCH   8  26
HETATM   26  C   UNL     1      42.908 -16.785   3.718  1.00  0.00    -0.044 A 
HETATM   27  C   UNL     1      43.702 -16.286   2.670  1.00  0.00     0.008 A 
HETATM   28  C   UNL     1      44.140 -17.129   1.648  1.00  0.00     0.001 A 
HETATM   29  C   UNL     1      43.790 -18.477   1.658  1.00  0.00     0.000 A 
HETATM   30  C   UNL     1      42.996 -18.983   2.685  1.00  0.00     0.001 A 
HETATM   31  C   UNL     1      42.550 -18.144   3.707  1.00  0.00     0.008 A 
ENDBRANCH   8  26
BRANCH   9  32
HETATM   32  C   UNL     1      40.497 -14.581   3.384  1.00  0.00     0.255 C 
HETATM   33  N   UNL     1      40.650 -14.622   2.021  1.00  0.00    -0.321 N 
HETATM   34  H   UNL     1      41.553 -14.806   1.605  1.00  0.00     0.169 HD
HETATM   35  O   UNL     1      39.401 -14.626   3.941  1.00  0.00    -0.268 OA
BRANCH  33  36
HETATM   36  C   UNL     1      39.650 -14.410   1.038  1.00  0.00     0.068 A 
HETATM   37  C   UNL     1      40.083 -14.226  -0.293  1.00  0.00     0.095 A 
HETATM   38  C   UNL     1      39.148 -13.951  -1.297  1.00  0.00     0.039 A 
HETATM   39  C   UNL     1      37.792 -13.848  -0.982  1.00  0.00     0.003 A 
HETATM   40  C   UNL     1      37.364 -14.026   0.331  1.00  0.00     0.002 A 
HETATM   41  C   UNL     1      38.290 -14.310   1.337  1.00  0.00     0.032 A 
BRANCH  37  42
HETATM   42  O   UNL     1      41.439 -14.352  -0.498  1.00  0.00    -0.354 OA
HETATM   43  C   UNL     1      42.097 -13.274  -1.151  1.00  0.00     0.210 C 
ENDBRANCH  37  42
ENDBRANCH  33  36
ENDBRANCH   9  32
TORSDOF 9
ENDMDL
MODEL 3
REMARK VINA RESULT:      -9.5      3.945      7.355
REMARK  9 active torsions:
REMARK  status: ('A' for Active; 'I' for Inactive)
REMARK    1  A    between atoms: C_4  and  S_5 
REMARK    2  A    between atoms: S_5  and  C_6 
REMARK    3  A    between atoms: C_6  and  C_7 
REMARK       I    between atoms: C_7  and  N_8 
REMARK    4  A    between atoms: N_8  and  C_9 
REMARK    5  A    between atoms: C_10  and  O_11 
REMARK    6  A    between atoms: C_22  and  C_23 
REMARK    7  A    between atoms: C_29  and  C_30 
REMARK       I    between atoms: C_30  and  N_31 
REMARK    8  A    between atoms: N_31  and  C_32 
REMARK    9  A    between atoms: C_33  and  O_34 
ROOT
HETATM    1  C   UNL     1      40.549 -16.572   1.530  1.00  0.00     0.069 C 
HETATM    2  C   UNL     1      40.467 -15.808   2.833  1.00  0.00     0.019 A 
HETATM    3  N   UNL     1      39.788 -14.607   2.749  1.00  0.00    -0.353 N 
HETATM    4  C   UNL     1      39.639 -13.695   3.766  1.00  0.00     0.087 A 
HETATM    5  C   UNL     1      40.145 -13.981   4.987  1.00  0.00     0.055 A 
HETATM    6  C   UNL     1      40.190 -12.892   6.047  1.00  0.00     0.019 C 
HETATM    7  N   UNL     1      40.228 -11.989   6.927  1.00  0.00    -0.096 N 
HETATM    8  C   UNL     1      40.963 -15.260   5.226  1.00  0.00     0.104 A 
HETATM    9  C   UNL     1      41.024 -16.200   4.009  1.00  0.00     0.046 A 
HETATM   10  H   UNL     1      39.423 -14.321   1.845  1.00  0.00     0.166 HD
ENDROOT
BRANCH   4  11
HETATM   11  S   UNL     1      38.848 -12.162   3.442  1.00  0.00    -0.102 SA
BRANCH  11  12
HETATM   12  C   UNL     1      39.701 -11.687   1.897  1.00  0.00     0.184 C 
BRANCH  12  13
HETATM   13  C   UNL     1      41.187 -11.562   2.130  1.00  0.00     0.231 C 
HETATM   14  N   UNL     1      42.119 -11.936   1.212  1.00  0.00    -0.324 N 
HETATM   15  H   UNL     1      43.059 -11.861   1.598  1.00  0.00     0.169 HD
HETATM   16  O   UNL     1      41.601 -11.126   3.212  1.00  0.00    -0.272 OA
BRANCH  14  17
HETATM   17  C   UNL     1      42.104 -12.468  -0.096  1.00  0.00     0.070 A 
HETATM   18  C   UNL     1      42.798 -11.706  -1.071  1.00  0.00     0.095 A 
HETATM   19  C   UNL     1      42.871 -12.150  -2.394  1.00  0.00     0.041 A 
HETATM   20  C   UNL     1      42.244 -13.337  -2.767  1.00  0.00     0.026 A 
HETATM   21  C   UNL     1      41.542 -14.073  -1.817  1.00  0.00     0.036 A 
HETATM   22 CL   UNL     1      40.751 -15.528  -2.289  1.00  0.00    -0.084 Cl
HETATM   23  C   UNL     1      41.466 -13.643  -0.491  1.00  0.00     0.056 A 
BRANCH  18  24
HETATM   24  O   UNL     1      43.378 -10.549  -0.602  1.00  0.00    -0.354 OA
HETATM   25  C   UNL     1      43.560  -9.487  -1.528  1.00  0.00     0.210 C 
ENDBRANCH  18  24
ENDBRANCH  14  17
ENDBRANCH  12  13
ENDBRANCH  11  12
ENDBRANCH   4  11
BRANCH   8  26
HETATM   26  C   UNL     1      42.351 -14.847   5.740  1.00  0.00    -0.044 A 
HETATM   27  C   UNL     1      43.115 -13.918   5.009  1.00  0.00     0.008 A 
HETATM   28  C   UNL     1      44.401 -13.574   5.426  1.00  0.00     0.001 A 
HETATM   29  C   UNL     1      44.940 -14.150   6.573  1.00  0.00     0.000 A 
HETATM   30  C   UNL     1      44.198 -15.078   7.302  1.00  0.00     0.001 A 
HETATM   31  C   UNL     1      42.914 -15.432   6.887  1.00  0.00     0.008 A 
ENDBRANCH   8  26
BRANCH   9  32
HETATM   32  C   UNL     1      41.599 -17.594   4.106  1.00  0.00     0.255 C 
HETATM   33  N   UNL     1      42.732 -17.854   3.377  1.00  0.00    -0.321 N 
HETATM   34  H   UNL     1      43.256 -17.104   2.947  1.00  0.00     0.169 HD
HETATM   35  O   UNL     1      41.079 -18.416   4.860  1.00  0.00    -0.268 OA
BRANCH  33  36
HETATM   36  C   UNL     1      43.306 -19.122   3.105  1.00  0.00     0.068 A 
HETATM   37  C   UNL     1      44.282 -19.595   4.009  1.00  0.00     0.095 A 
HETATM   38  C   UNL     1      44.929 -20.810   3.760  1.00  0.00     0.039 A 
HETATM   39  C   UNL     1      44.619 -21.548   2.616  1.00  0.00     0.003 A 
HETATM   40  C   UNL     1      43.660 -21.080   1.722  1.00  0.00     0.002 A 
HETATM   41  C   UNL     1      43.002 -19.874   1.968  1.00  0.00     0.032 A 
BRANCH  37  42
HETATM   42  O   UNL     1      44.509 -18.796   5.106  1.00  0.00    -0.354 OA
HETATM   43  C   UNL     1      44.169 -19.331   6.378  1.00  0.00     0.210 C 
ENDBRANCH  37  42
ENDBRANCH  33  36
ENDBRANCH   9  32
TORSDOF 9
ENDMDL
MODEL 4
REMARK VINA RESULT:      -9.4      4.439      8.248
REMARK  9 active torsions:
REMARK  status: ('A' for Active; 'I' for Inactive)
REMARK    1  A    between atoms: C_4  and  S_5 
REMARK    2  A    between atoms: S_5  and  C_6 
REMARK    3  A    between atoms: C_6  and  C_7 
REMARK       I    between atoms: C_7  and  N_8 
REMARK    4  A    between atoms: N_8  and  C_9 
REMARK    5  A    between atoms: C_10  and  O_11 
REMARK    6  A    between atoms: C_22  and  C_23 
REMARK    7  A    between atoms: C_29  and  C_30 
REMARK       I    between atoms: C_30  and  N_31 
REMARK    8  A    between atoms: N_31  and  C_32 
REMARK    9  A    between atoms: C_33  and  O_34 
ROOT
HETATM    1  C   UNL     1      41.020 -16.684   1.243  1.00  0.00     0.069 C 
HETATM    2  C   UNL     1      40.802 -15.915   2.528  1.00  0.00     0.019 A 
HETATM    3  N   UNL     1      40.169 -14.697   2.366  1.00  0.00    -0.353 N 
HETATM    4  C   UNL     1      39.923 -13.780   3.358  1.00  0.00     0.087 A 
HETATM    5  C   UNL     1      40.273 -14.076   4.631  1.00  0.00     0.055 A 
HETATM    6  C   UNL     1      40.220 -12.986   5.689  1.00  0.00     0.019 C 
HETATM    7  N   UNL     1      40.176 -12.083   6.568  1.00  0.00    -0.096 N 
HETATM    8  C   UNL     1      41.025 -15.376   4.965  1.00  0.00     0.104 A 
HETATM    9  C   UNL     1      41.206 -16.318   3.762  1.00  0.00     0.046 A 
HETATM   10  H   UNL     1      39.921 -14.405   1.425  1.00  0.00     0.166 HD
ENDROOT
BRANCH   4  11
HETATM   11  S   UNL     1      39.215 -12.229   2.945  1.00  0.00    -0.102 SA
BRANCH  11  12
HETATM   12  C   UNL     1      38.799 -12.530   1.190  1.00  0.00     0.184 C 
BRANCH  12  13
HETATM   13  C   UNL     1      39.633 -11.652   0.290  1.00  0.00     0.231 C 
HETATM   14  N   UNL     1      39.989 -12.006  -0.975  1.00  0.00    -0.324 N 
HETATM   15  H   UNL     1      40.628 -11.323  -1.377  1.00  0.00     0.169 HD
HETATM   16  O   UNL     1      40.048 -10.564   0.711  1.00  0.00    -0.272 OA
BRANCH  14  17
HETATM   17  C   UNL     1      39.758 -13.109  -1.826  1.00  0.00     0.070 A 
HETATM   18  C   UNL     1      40.913 -13.848  -2.190  1.00  0.00     0.095 A 
HETATM   19  C   UNL     1      40.802 -14.976  -3.008  1.00  0.00     0.041 A 
HETATM   20  C   UNL     1      39.554 -15.370  -3.486  1.00  0.00     0.026 A 
HETATM   21  C   UNL     1      38.424 -14.632  -3.151  1.00  0.00     0.036 A 
HETATM   22 CL   UNL     1      36.887 -15.111  -3.763  1.00  0.00    -0.084 Cl
HETATM   23  C   UNL     1      38.520 -13.506  -2.330  1.00  0.00     0.056 A 
BRANCH  18  24
HETATM   24  O   UNL     1      42.096 -13.375  -1.669  1.00  0.00    -0.354 OA
HETATM   25  C   UNL     1      43.013 -12.773  -2.571  1.00  0.00     0.210 C 
ENDBRANCH  18  24
ENDBRANCH  14  17
ENDBRANCH  12  13
ENDBRANCH  11  12
ENDBRANCH   4  11
BRANCH   8  26
HETATM   26  C   UNL     1      42.352 -14.996   5.639  1.00  0.00    -0.044 A 
HETATM   27  C   UNL     1      43.160 -13.994   5.071  1.00  0.00     0.008 A 
HETATM   28  C   UNL     1      44.396 -13.676   5.635  1.00  0.00     0.001 A 
HETATM   29  C   UNL     1      44.840 -14.351   6.768  1.00  0.00     0.000 A 
HETATM   30  C   UNL     1      44.054 -15.352   7.337  1.00  0.00     0.001 A 
HETATM   31  C   UNL     1      42.820 -15.680   6.774  1.00  0.00     0.008 A 
ENDBRANCH   8  26
BRANCH   9  32
HETATM   32  C   UNL     1      41.730 -17.727   3.926  1.00  0.00     0.255 C 
HETATM   33  N   UNL     1      42.865 -18.056   3.228  1.00  0.00    -0.321 N 
HETATM   34  H   UNL     1      43.422 -17.342   2.778  1.00  0.00     0.169 HD
HETATM   35  O   UNL     1      41.168 -18.499   4.702  1.00  0.00    -0.268 OA
BRANCH  33  36
HETATM   36  C   UNL     1      43.398 -19.352   3.018  1.00  0.00     0.068 A 
HETATM   37  C   UNL     1      44.361 -19.811   3.943  1.00  0.00     0.095 A 
HETATM   38  C   UNL     1      44.969 -21.056   3.753  1.00  0.00     0.039 A 
HETATM   39  C   UNL     1      44.634 -21.839   2.646  1.00  0.00     0.003 A 
HETATM   40  C   UNL     1      43.688 -21.386   1.731  1.00  0.00     0.002 A 
HETATM   41  C   UNL     1      43.068 -20.148   1.918  1.00  0.00     0.032 A 
BRANCH  37  42
HETATM   42  O   UNL     1      44.616 -18.967   4.999  1.00  0.00    -0.354 OA
HETATM   43  C   UNL     1      44.218 -19.408   6.291  1.00  0.00     0.210 C 
ENDBRANCH  37  42
ENDBRANCH  33  36
ENDBRANCH   9  32
TORSDOF 9
ENDMDL
MODEL 5
REMARK VINA RESULT:      -9.3      4.144      8.100
REMARK  9 active torsions:
REMARK  status: ('A' for Active; 'I' for Inactive)
REMARK    1  A    between atoms: C_4  and  S_5 
REMARK    2  A    between atoms: S_5  and  C_6 
REMARK    3  A    between atoms: C_6  and  C_7 
REMARK       I    between atoms: C_7  and  N_8 
REMARK    4  A    between atoms: N_8  and  C_9 
REMARK    5  A    between atoms: C_10  and  O_11 
REMARK    6  A    between atoms: C_22  and  C_23 
REMARK    7  A    between atoms: C_29  and  C_30 
REMARK       I    between atoms: C_30  and  N_31 
REMARK    8  A    between atoms: N_31  and  C_32 
REMARK    9  A    between atoms: C_33  and  O_34 
ROOT
HETATM    1  C   UNL     1      39.946 -17.009   2.109  1.00  0.00     0.069 C 
HETATM    2  C   UNL     1      40.728 -15.990   2.907  1.00  0.00     0.019 A 
HETATM    3  N   UNL     1      41.176 -16.445   4.133  1.00  0.00    -0.353 N 
HETATM    4  C   UNL     1      41.840 -15.697   5.075  1.00  0.00     0.087 A 
HETATM    5  C   UNL     1      42.146 -14.409   4.798  1.00  0.00     0.055 A 
HETATM    6  C   UNL     1      42.668 -13.513   5.909  1.00  0.00     0.019 C 
HETATM    7  N   UNL     1      43.101 -12.769   6.831  1.00  0.00    -0.096 N 
HETATM    8  C   UNL     1      41.678 -13.747   3.491  1.00  0.00     0.104 A 
HETATM    9  C   UNL     1      40.972 -14.710   2.521  1.00  0.00     0.046 A 
HETATM   10  H   UNL     1      40.938 -17.392   4.412  1.00  0.00     0.166 HD
ENDROOT
BRANCH   4  11
HETATM   11  S   UNL     1      42.224 -16.411   6.631  1.00  0.00    -0.102 SA
BRANCH  11  12
HETATM   12  C   UNL     1      44.013 -16.715   6.405  1.00  0.00     0.184 C 
BRANCH  12  13
HETATM   13  C   UNL     1      44.358 -18.139   6.766  1.00  0.00     0.231 C 
HETATM   14  N   UNL     1      44.447 -19.140   5.849  1.00  0.00    -0.324 N 
HETATM   15  H   UNL     1      44.594 -20.039   6.306  1.00  0.00     0.169 HD
HETATM   16  O   UNL     1      44.546 -18.439   7.953  1.00  0.00    -0.272 OA
BRANCH  14  17
HETATM   17  C   UNL     1      44.309 -19.253   4.448  1.00  0.00     0.070 A 
HETATM   18  C   UNL     1      44.508 -20.554   3.920  1.00  0.00     0.095 A 
HETATM   19  C   UNL     1      44.371 -20.789   2.550  1.00  0.00     0.041 A 
HETATM   20  C   UNL     1      44.055 -19.739   1.690  1.00  0.00     0.026 A 
HETATM   21  C   UNL     1      43.884 -18.458   2.203  1.00  0.00     0.036 A 
HETATM   22 CL   UNL     1      43.516 -17.159   1.133  1.00  0.00    -0.084 Cl
HETATM   23  C   UNL     1      44.013 -18.210   3.572  1.00  0.00     0.056 A 
BRANCH  18  24
HETATM   24  O   UNL     1      44.819 -21.520   4.851  1.00  0.00    -0.354 OA
HETATM   25  C   UNL     1      44.709 -22.877   4.446  1.00  0.00     0.210 C 
ENDBRANCH  18  24
ENDBRANCH  14  17
ENDBRANCH  12  13
ENDBRANCH  11  12
ENDBRANCH   4  11
BRANCH   8  26
HETATM   26  C   UNL     1      40.823 -12.524   3.858  1.00  0.00    -0.044 A 
HETATM   27  C   UNL     1      39.497 -12.707   4.289  1.00  0.00     0.008 A 
HETATM   28  C   UNL     1      38.685 -11.608   4.571  1.00  0.00     0.001 A 
HETATM   29  C   UNL     1      39.184 -10.317   4.427  1.00  0.00     0.000 A 
HETATM   30  C   UNL     1      40.494 -10.120   3.992  1.00  0.00     0.001 A 
HETATM   31  C   UNL     1      41.309 -11.215   3.702  1.00  0.00     0.008 A 
ENDBRANCH   8  26
BRANCH   9  32
HETATM   32  C   UNL     1      40.626 -14.304   1.106  1.00  0.00     0.255 C 
HETATM   33  N   UNL     1      41.606 -14.456   0.157  1.00  0.00    -0.321 N 
HETATM   34  H   UNL     1      42.446 -14.982   0.358  1.00  0.00     0.169 HD
HETATM   35  O   UNL     1      39.490 -13.913   0.845  1.00  0.00    -0.268 OA
BRANCH  33  36
HETATM   36  C   UNL     1      41.618 -13.926  -1.158  1.00  0.00     0.068 A 
HETATM   37  C   UNL     1      42.156 -12.632  -1.327  1.00  0.00     0.095 A 
HETATM   38  C   UNL     1      42.137 -12.031  -2.590  1.00  0.00     0.039 A 
HETATM   39  C   UNL     1      41.578 -12.704  -3.678  1.00  0.00     0.003 A 
HETATM   40  C   UNL     1      41.044 -13.979  -3.512  1.00  0.00     0.002 A 
HETATM   41  C   UNL     1      41.068 -14.590  -2.257  1.00  0.00     0.032 A 
BRANCH  37  42
HETATM   42  O   UNL     1      42.685 -12.058  -0.194  1.00  0.00    -0.354 OA
HETATM   43  C   UNL     1      42.097 -10.842   0.250  1.00  0.00     0.210 C 
ENDBRANCH  37  42
ENDBRANCH  33  36
ENDBRANCH   9  32
TORSDOF 9
ENDMDL
MODEL 6
REMARK VINA RESULT:      -9.3      1.596      2.045
REMARK  9 active torsions:
REMARK  status: ('A' for Active; 'I' for Inactive)
REMARK    1  A    between atoms: C_4  and  S_5 
REMARK    2  A    between atoms: S_5  and  C_6 
REMARK    3  A    between atoms: C_6  and  C_7 
REMARK       I    between atoms: C_7  and  N_8 
REMARK    4  A    between atoms: N_8  and  C_9 
REMARK    5  A    between atoms: C_10  and  O_11 
REMARK    6  A    between atoms: C_22  and  C_23 
REMARK    7  A    between atoms: C_29  and  C_30 
REMARK       I    between atoms: C_30  and  N_31 
REMARK    8  A    between atoms: N_31  and  C_32 
REMARK    9  A    between atoms: C_33  and  O_34 
ROOT
HETATM    1  C   UNL     1      40.450 -15.933   6.156  1.00  0.00     0.069 C 
HETATM    2  C   UNL     1      40.690 -14.875   5.101  1.00  0.00     0.019 A 
HETATM    3  N   UNL     1      40.543 -13.576   5.550  1.00  0.00    -0.353 N 
HETATM    4  C   UNL     1      40.632 -12.444   4.778  1.00  0.00     0.087 A 
HETATM    5  C   UNL     1      40.937 -12.563   3.466  1.00  0.00     0.055 A 
HETATM    6  C   UNL     1      40.811 -11.349   2.560  1.00  0.00     0.019 C 
HETATM    7  N   UNL     1      40.706 -10.342   1.807  1.00  0.00    -0.096 N 
HETATM    8  C   UNL     1      41.089 -13.945   2.809  1.00  0.00     0.104 A 
HETATM    9  C   UNL     1      40.992 -15.120   3.799  1.00  0.00     0.046 A 
HETATM   10  H   UNL     1      40.272 -13.429   6.518  1.00  0.00     0.166 HD
ENDROOT
BRANCH   4  11
HETATM   11  S   UNL     1      40.294 -10.879   5.497  1.00  0.00    -0.102 SA
BRANCH  11  12
HETATM   12  C   UNL     1      41.135 -11.084   7.107  1.00  0.00     0.184 C 
BRANCH  12  13
HETATM   13  C   UNL     1      41.830  -9.806   7.509  1.00  0.00     0.231 C 
HETATM   14  N   UNL     1      42.333  -9.591   8.755  1.00  0.00    -0.324 N 
HETATM   15  H   UNL     1      42.674  -8.635   8.848  1.00  0.00     0.169 HD
HETATM   16  O   UNL     1      41.935  -8.885   6.688  1.00  0.00    -0.272 OA
BRANCH  14  17
HETATM   17  C   UNL     1      42.426 -10.327   9.956  1.00  0.00     0.070 A 
HETATM   18  C   UNL     1      43.714 -10.839  10.257  1.00  0.00     0.095 A 
HETATM   19  C   UNL     1      43.930 -11.561  11.433  1.00  0.00     0.041 A 
HETATM   20  C   UNL     1      42.874 -11.798  12.310  1.00  0.00     0.026 A 
HETATM   21  C   UNL     1      41.605 -11.318  12.004  1.00  0.00     0.036 A 
HETATM   22 CL   UNL     1      40.298 -11.633  13.081  1.00  0.00    -0.084 Cl
HETATM   23  C   UNL     1      41.376 -10.590  10.834  1.00  0.00     0.056 A 
BRANCH  18  24
HETATM   24  O   UNL     1      44.687 -10.553   9.325  1.00  0.00    -0.354 OA
HETATM   25  C   UNL     1      45.673 -11.547   9.084  1.00  0.00     0.210 C 
ENDBRANCH  18  24
ENDBRANCH  14  17
ENDBRANCH  12  13
ENDBRANCH  11  12
ENDBRANCH   4  11
BRANCH   8  26
HETATM   26  C   UNL     1      40.075 -14.038   1.660  1.00  0.00    -0.044 A 
HETATM   27  C   UNL     1      40.520 -13.941   0.329  1.00  0.00     0.008 A 
HETATM   28  C   UNL     1      39.609 -13.964  -0.728  1.00  0.00     0.001 A 
HETATM   29  C   UNL     1      38.247 -14.083  -0.470  1.00  0.00     0.000 A 
HETATM   30  C   UNL     1      37.790 -14.171   0.843  1.00  0.00     0.001 A 
HETATM   31  C   UNL     1      38.695 -14.143   1.905  1.00  0.00     0.008 A 
ENDBRANCH   8  26
BRANCH   9  32
HETATM   32  C   UNL     1      41.321 -16.537   3.388  1.00  0.00     0.255 C 
HETATM   33  N   UNL     1      42.492 -17.069   3.866  1.00  0.00    -0.321 N 
HETATM   34  H   UNL     1      43.010 -16.607   4.601  1.00  0.00     0.169 HD
HETATM   35  O   UNL     1      40.523 -17.172   2.699  1.00  0.00    -0.268 OA
BRANCH  33  36
HETATM   36  C   UNL     1      43.136 -18.256   3.434  1.00  0.00     0.068 A 
HETATM   37  C   UNL     1      43.853 -18.991   4.403  1.00  0.00     0.095 A 
HETATM   38  C   UNL     1      44.560 -20.136   4.024  1.00  0.00     0.039 A 
HETATM   39  C   UNL     1      44.567 -20.546   2.689  1.00  0.00     0.003 A 
HETATM   40  C   UNL     1      43.864 -19.820   1.732  1.00  0.00     0.002 A 
HETATM   41  C   UNL     1      43.147 -18.681   2.103  1.00  0.00     0.032 A 
BRANCH  37  42
HETATM   42  O   UNL     1      43.778 -18.505   5.688  1.00  0.00    -0.354 OA
HETATM   43  C   UNL     1      43.777 -19.460   6.742  1.00  0.00     0.210 C 
ENDBRANCH  37  42
ENDBRANCH  33  36
ENDBRANCH   9  32
TORSDOF 9
ENDMDL
MODEL 7
REMARK VINA RESULT:      -9.0      3.466      9.727
REMARK  9 active torsions:
REMARK  status: ('A' for Active; 'I' for Inactive)
REMARK    1  A    between atoms: C_4  and  S_5 
REMARK    2  A    between atoms: S_5  and  C_6 
REMARK    3  A    between atoms: C_6  and  C_7 
REMARK       I    between atoms: C_7  and  N_8 
REMARK    4  A    between atoms: N_8  and  C_9 
REMARK    5  A    between atoms: C_10  and  O_11 
REMARK    6  A    between atoms: C_22  and  C_23 
REMARK    7  A    between atoms: C_29  and  C_30 
REMARK       I    between atoms: C_30  and  N_31 
REMARK    8  A    between atoms: N_31  and  C_32 
REMARK    9  A    between atoms: C_33  and  O_34 
ROOT
HETATM    1  C   UNL     1      38.690 -11.645   5.074  1.00  0.00     0.069 C 
HETATM    2  C   UNL     1      39.863 -12.441   4.546  1.00  0.00     0.019 A 
HETATM    3  N   UNL     1      39.549 -13.311   3.520  1.00  0.00    -0.353 N 
HETATM    4  C   UNL     1      40.413 -14.196   2.922  1.00  0.00     0.087 A 
HETATM    5  C   UNL     1      41.708 -14.216   3.310  1.00  0.00     0.055 A 
HETATM    6  C   UNL     1      42.613 -15.338   2.826  1.00  0.00     0.019 C 
HETATM    7  N   UNL     1      43.363 -16.269   2.425  1.00  0.00    -0.096 N 
HETATM    8  C   UNL     1      42.202 -13.335   4.470  1.00  0.00     0.104 A 
HETATM    9  C   UNL     1      41.134 -12.376   5.024  1.00  0.00     0.046 A 
HETATM   10  H   UNL     1      38.581 -13.369   3.216  1.00  0.00     0.166 HD
ENDROOT
BRANCH   4  11
HETATM   11  S   UNL     1      39.806 -15.314   1.713  1.00  0.00    -0.102 SA
BRANCH  11  12
HETATM   12  C   UNL     1      40.225 -14.391   0.192  1.00  0.00     0.184 C 
BRANCH  12  13
HETATM   13  C   UNL     1      41.248 -15.147  -0.621  1.00  0.00     0.231 C 
HETATM   14  N   UNL     1      41.983 -14.574  -1.612  1.00  0.00    -0.324 N 
HETATM   15  H   UNL     1      42.542 -15.273  -2.100  1.00  0.00     0.169 HD
HETATM   16  O   UNL     1      41.423 -16.355  -0.411  1.00  0.00    -0.272 OA
BRANCH  14  17
HETATM   17  C   UNL     1      42.102 -13.285  -2.176  1.00  0.00     0.070 A 
HETATM   18  C   UNL     1      41.425 -13.096  -3.409  1.00  0.00     0.095 A 
HETATM   19  C   UNL     1      41.451 -11.853  -4.046  1.00  0.00     0.041 A 
HETATM   20  C   UNL     1      42.160 -10.795  -3.481  1.00  0.00     0.026 A 
HETATM   21  C   UNL     1      42.845 -10.985  -2.286  1.00  0.00     0.036 A 
HETATM   22 CL   UNL     1      43.737  -9.680  -1.603  1.00  0.00    -0.084 Cl
HETATM   23  C   UNL     1      42.822 -12.221  -1.636  1.00  0.00     0.056 A 
BRANCH  18  24
HETATM   24  O   UNL     1      40.758 -14.203  -3.883  1.00  0.00    -0.354 OA
HETATM   25  C   UNL     1      39.357 -14.268  -3.658  1.00  0.00     0.210 C 
ENDBRANCH  18  24
ENDBRANCH  14  17
ENDBRANCH  12  13
ENDBRANCH  11  12
ENDBRANCH   4  11
BRANCH   8  26
HETATM   26  C   UNL     1      42.801 -14.257   5.543  1.00  0.00    -0.044 A 
HETATM   27  C   UNL     1      44.105 -14.021   6.015  1.00  0.00     0.008 A 
HETATM   28  C   UNL     1      44.689 -14.881   6.946  1.00  0.00     0.001 A 
HETATM   29  C   UNL     1      43.982 -15.984   7.415  1.00  0.00     0.000 A 
HETATM   30  C   UNL     1      42.693 -16.237   6.949  1.00  0.00     0.001 A 
HETATM   31  C   UNL     1      42.105 -15.384   6.014  1.00  0.00     0.008 A 
ENDBRANCH   8  26
BRANCH   9  32
HETATM   32  C   UNL     1      41.477 -11.290   6.018  1.00  0.00     0.255 C 
HETATM   33  N   UNL     1      41.539 -11.652   7.341  1.00  0.00    -0.321 N 
HETATM   34  H   UNL     1      41.539 -12.625   7.613  1.00  0.00     0.169 HD
HETATM   35  O   UNL     1      41.738 -10.157   5.616  1.00  0.00    -0.268 OA
BRANCH  33  36
HETATM   36  C   UNL     1      41.590 -10.790   8.465  1.00  0.00     0.068 A 
HETATM   37  C   UNL     1      42.816 -10.710   9.161  1.00  0.00     0.095 A 
HETATM   38  C   UNL     1      42.910  -9.925  10.315  1.00  0.00     0.039 A 
HETATM   39  C   UNL     1      41.793  -9.231  10.784  1.00  0.00     0.003 A 
HETATM   40  C   UNL     1      40.583  -9.311  10.100  1.00  0.00     0.002 A 
HETATM   41  C   UNL     1      40.482 -10.085   8.942  1.00  0.00     0.032 A 
BRANCH  37  42
HETATM   42  O   UNL     1      43.855 -11.428   8.615  1.00  0.00    -0.354 OA
HETATM   43  C   UNL     1      44.686 -12.149   9.515  1.00  0.00     0.210 C 
ENDBRANCH  37  42
ENDBRANCH  33  36
ENDBRANCH   9  32
TORSDOF 9
ENDMDL
MODEL 8
REMARK VINA RESULT:      -9.0      4.179      8.098
REMARK  9 active torsions:
REMARK  status: ('A' for Active; 'I' for Inactive)
REMARK    1  A    between atoms: C_4  and  S_5 
REMARK    2  A    between atoms: S_5  and  C_6 
REMARK    3  A    between atoms: C_6  and  C_7 
REMARK       I    between atoms: C_7  and  N_8 
REMARK    4  A    between atoms: N_8  and  C_9 
REMARK    5  A    between atoms: C_10  and  O_11 
REMARK    6  A    between atoms: C_22  and  C_23 
REMARK    7  A    between atoms: C_29  and  C_30 
REMARK       I    between atoms: C_30  and  N_31 
REMARK    8  A    between atoms: N_31  and  C_32 
REMARK    9  A    between atoms: C_33  and  O_34 
ROOT
HETATM    1  C   UNL     1      39.777 -16.458   1.743  1.00  0.00     0.069 C 
HETATM    2  C   UNL     1      40.469 -15.440   2.623  1.00  0.00     0.019 A 
HETATM    3  N   UNL     1      40.757 -15.888   3.899  1.00  0.00    -0.353 N 
HETATM    4  C   UNL     1      41.310 -15.140   4.909  1.00  0.00     0.087 A 
HETATM    5  C   UNL     1      41.663 -13.858   4.662  1.00  0.00     0.055 A 
HETATM    6  C   UNL     1      42.057 -12.957   5.821  1.00  0.00     0.019 C 
HETATM    7  N   UNL     1      42.383 -12.210   6.784  1.00  0.00    -0.096 N 
HETATM    8  C   UNL     1      41.368 -13.202   3.302  1.00  0.00     0.104 A 
HETATM    9  C   UNL     1      40.773 -14.166   2.260  1.00  0.00     0.046 A 
HETATM   10  H   UNL     1      40.475 -16.831   4.153  1.00  0.00     0.166 HD
ENDROOT
BRANCH   4  11
HETATM   11  S   UNL     1      41.493 -15.844   6.506  1.00  0.00    -0.102 SA
BRANCH  11  12
HETATM   12  C   UNL     1      42.298 -17.424   6.063  1.00  0.00     0.184 C 
BRANCH  12  13
HETATM   13  C   UNL     1      43.793 -17.246   5.961  1.00  0.00     0.231 C 
HETATM   14  N   UNL     1      44.577 -17.984   5.129  1.00  0.00    -0.324 N 
HETATM   15  H   UNL     1      45.563 -17.778   5.281  1.00  0.00     0.169 HD
HETATM   16  O   UNL     1      44.360 -16.413   6.682  1.00  0.00    -0.272 OA
BRANCH  14  17
HETATM   17  C   UNL     1      44.370 -19.007   4.178  1.00  0.00     0.070 A 
HETATM   18  C   UNL     1      43.831 -18.582   2.937  1.00  0.00     0.095 A 
HETATM   19  C   UNL     1      43.608 -19.504   1.910  1.00  0.00     0.041 A 
HETATM   20  C   UNL     1      43.899 -20.852   2.109  1.00  0.00     0.026 A 
HETATM   21  C   UNL     1      44.405 -21.274   3.334  1.00  0.00     0.036 A 
HETATM   22 CL   UNL     1      44.742 -22.945   3.581  1.00  0.00    -0.084 Cl
HETATM   23  C   UNL     1      44.637 -20.362   4.366  1.00  0.00     0.056 A 
BRANCH  18  24
HETATM   24  O   UNL     1      43.575 -17.233   2.843  1.00  0.00    -0.354 OA
HETATM   25  C   UNL     1      43.606 -16.650   1.548  1.00  0.00     0.210 C 
ENDBRANCH  18  24
ENDBRANCH  14  17
ENDBRANCH  12  13
ENDBRANCH  11  12
ENDBRANCH   4  11
BRANCH   8  26
HETATM   26  C   UNL     1      40.489 -11.967   3.553  1.00  0.00    -0.044 A 
HETATM   27  C   UNL     1      39.130 -12.134   3.876  1.00  0.00     0.008 A 
HETATM   28  C   UNL     1      38.301 -11.025   4.049  1.00  0.00     0.001 A 
HETATM   29  C   UNL     1      38.816  -9.740   3.902  1.00  0.00     0.000 A 
HETATM   30  C   UNL     1      40.158  -9.559   3.574  1.00  0.00     0.001 A 
HETATM   31  C   UNL     1      40.992 -10.665   3.393  1.00  0.00     0.008 A 
ENDBRANCH   8  26
BRANCH   9  32
HETATM   32  C   UNL     1      40.609 -13.770   0.811  1.00  0.00     0.255 C 
HETATM   33  N   UNL     1      41.716 -13.873   0.006  1.00  0.00    -0.321 N 
HETATM   34  H   UNL     1      42.542 -14.362   0.322  1.00  0.00     0.169 HD
HETATM   35  O   UNL     1      39.502 -13.428   0.395  1.00  0.00    -0.268 OA
BRANCH  33  36
HETATM   36  C   UNL     1      41.885 -13.336  -1.295  1.00  0.00     0.068 A 
HETATM   37  C   UNL     1      42.458 -12.050  -1.394  1.00  0.00     0.095 A 
HETATM   38  C   UNL     1      42.592 -11.442  -2.646  1.00  0.00     0.039 A 
HETATM   39  C   UNL     1      42.151 -12.101  -3.795  1.00  0.00     0.003 A 
HETATM   40  C   UNL     1      41.583 -13.369  -3.700  1.00  0.00     0.002 A 
HETATM   41  C   UNL     1      41.454 -13.986  -2.454  1.00  0.00     0.032 A 
BRANCH  37  42
HETATM   42  O   UNL     1      42.862 -11.490  -0.203  1.00  0.00    -0.354 OA
HETATM   43  C   UNL     1      42.768 -10.076  -0.089  1.00  0.00     0.210 C 
ENDBRANCH  37  42
ENDBRANCH  33  36
ENDBRANCH   9  32
TORSDOF 9
ENDMDL
MODEL 9
REMARK VINA RESULT:      -8.9      4.392      8.125
REMARK  9 active torsions:
REMARK  status: ('A' for Active; 'I' for Inactive)
REMARK    1  A    between atoms: C_4  and  S_5 
REMARK    2  A    between atoms: S_5  and  C_6 
REMARK    3  A    between atoms: C_6  and  C_7 
REMARK       I    between atoms: C_7  and  N_8 
REMARK    4  A    between atoms: N_8  and  C_9 
REMARK    5  A    between atoms: C_10  and  O_11 
REMARK    6  A    between atoms: C_22  and  C_23 
REMARK    7  A    between atoms: C_29  and  C_30 
REMARK       I    between atoms: C_30  and  N_31 
REMARK    8  A    between atoms: N_31  and  C_32 
REMARK    9  A    between atoms: C_33  and  O_34 
ROOT
HETATM    1  C   UNL     1      42.345 -16.880   0.637  1.00  0.00     0.069 C 
HETATM    2  C   UNL     1      41.921 -15.989   1.783  1.00  0.00     0.019 A 
HETATM    3  N   UNL     1      41.516 -14.723   1.404  1.00  0.00    -0.353 N 
HETATM    4  C   UNL     1      41.158 -13.705   2.253  1.00  0.00     0.087 A 
HETATM    5  C   UNL     1      41.140 -13.933   3.586  1.00  0.00     0.055 A 
HETATM    6  C   UNL     1      40.973 -12.762   4.540  1.00  0.00     0.019 C 
HETATM    7  N   UNL     1      40.834 -11.790   5.332  1.00  0.00    -0.096 N 
HETATM    8  C   UNL     1      41.605 -15.280   4.166  1.00  0.00     0.104 A 
HETATM    9  C   UNL     1      41.950 -16.333   3.098  1.00  0.00     0.046 A 
HETATM   10  H   UNL     1      41.550 -14.481   0.417  1.00  0.00     0.166 HD
ENDROOT
BRANCH   4  11
HETATM   11  S   UNL     1      40.788 -12.120   1.596  1.00  0.00    -0.102 SA
BRANCH  11  12
HETATM   12  C   UNL     1      38.963 -12.219   1.546  1.00  0.00     0.184 C 
BRANCH  12  13
HETATM   13  C   UNL     1      38.519 -13.430   0.763  1.00  0.00     0.231 C 
HETATM   14  N   UNL     1      38.709 -13.562  -0.578  1.00  0.00    -0.324 N 
HETATM   15  H   UNL     1      38.253 -14.403  -0.928  1.00  0.00     0.169 HD
HETATM   16  O   UNL     1      37.924 -14.348   1.344  1.00  0.00    -0.272 OA
BRANCH  14  17
HETATM   17  C   UNL     1      39.305 -12.794  -1.601  1.00  0.00     0.070 A 
HETATM   18  C   UNL     1      40.458 -13.366  -2.198  1.00  0.00     0.095 A 
HETATM   19  C   UNL     1      41.116 -12.707  -3.239  1.00  0.00     0.041 A 
HETATM   20  C   UNL     1      40.652 -11.471  -3.686  1.00  0.00     0.026 A 
HETATM   21  C   UNL     1      39.536 -10.897  -3.085  1.00  0.00     0.036 A 
HETATM   22 CL   UNL     1      38.981  -9.360  -3.627  1.00  0.00    -0.084 Cl
HETATM   23  C   UNL     1      38.866 -11.548  -2.047  1.00  0.00     0.056 A 
BRANCH  18  24
HETATM   24  O   UNL     1      40.836 -14.586  -1.683  1.00  0.00    -0.354 OA
HETATM   25  C   UNL     1      40.926 -15.677  -2.588  1.00  0.00     0.210 C 
ENDBRANCH  18  24
ENDBRANCH  14  17
ENDBRANCH  12  13
ENDBRANCH  11  12
ENDBRANCH   4  11
BRANCH   8  26
HETATM   26  C   UNL     1      42.763 -15.003   5.137  1.00  0.00    -0.044 A 
HETATM   27  C   UNL     1      42.809 -15.672   6.374  1.00  0.00     0.008 A 
HETATM   28  C   UNL     1      43.819 -15.392   7.295  1.00  0.00     0.001 A 
HETATM   29  C   UNL     1      44.792 -14.443   6.994  1.00  0.00     0.000 A 
HETATM   30  C   UNL     1      44.755 -13.766   5.777  1.00  0.00     0.001 A 
HETATM   31  C   UNL     1      43.743 -14.037   4.854  1.00  0.00     0.008 A 
ENDBRANCH   8  26
BRANCH   9  32
HETATM   32  C   UNL     1      42.224 -17.775   3.461  1.00  0.00     0.255 C 
HETATM   33  N   UNL     1      43.395 -18.322   2.999  1.00  0.00    -0.321 N 
HETATM   34  H   UNL     1      44.118 -17.740   2.599  1.00  0.00     0.169 HD
HETATM   35  O   UNL     1      41.436 -18.381   4.185  1.00  0.00    -0.268 OA
BRANCH  33  36
HETATM   36  C   UNL     1      43.756 -19.694   2.987  1.00  0.00     0.068 A 
HETATM   37  C   UNL     1      44.463 -20.184   4.107  1.00  0.00     0.095 A 
HETATM   38  C   UNL     1      44.900 -21.512   4.125  1.00  0.00     0.039 A 
HETATM   39  C   UNL     1      44.649 -22.348   3.036  1.00  0.00     0.003 A 
HETATM   40  C   UNL     1      43.956 -21.865   1.930  1.00  0.00     0.002 A 
HETATM   41  C   UNL     1      43.507 -20.543   1.907  1.00  0.00     0.032 A 
BRANCH  37  42
HETATM   42  O   UNL     1      44.654 -19.281   5.128  1.00  0.00    -0.354 OA
HETATM   43  C   UNL     1      44.032 -19.571   6.373  1.00  0.00     0.210 C 
ENDBRANCH  37  42
ENDBRANCH  33  36
ENDBRANCH   9  32
TORSDOF 9
ENDMDL
MODEL 10
REMARK VINA RESULT:      -8.8      4.420      7.913
REMARK  9 active torsions:
REMARK  status: ('A' for Active; 'I' for Inactive)
REMARK    1  A    between atoms: C_4  and  S_5 
REMARK    2  A    between atoms: S_5  and  C_6 
REMARK    3  A    between atoms: C_6  and  C_7 
REMARK       I    between atoms: C_7  and  N_8 
REMARK    4  A    between atoms: N_8  and  C_9 
REMARK    5  A    between atoms: C_10  and  O_11 
REMARK    6  A    between atoms: C_22  and  C_23 
REMARK    7  A    between atoms: C_29  and  C_30 
REMARK       I    between atoms: C_30  and  N_31 
REMARK    8  A    between atoms: N_31  and  C_32 
REMARK    9  A    between atoms: C_33  and  O_34 
ROOT
HETATM    1  C   UNL     1      42.067 -16.105   0.397  1.00  0.00     0.069 C 
HETATM    2  C   UNL     1      41.728 -15.330   1.651  1.00  0.00     0.019 A 
HETATM    3  N   UNL     1      41.430 -13.997   1.437  1.00  0.00    -0.353 N 
HETATM    4  C   UNL     1      41.166 -13.066   2.410  1.00  0.00     0.087 A 
HETATM    5  C   UNL     1      41.137 -13.456   3.705  1.00  0.00     0.055 A 
HETATM    6  C   UNL     1      41.076 -12.401   4.799  1.00  0.00     0.019 C 
HETATM    7  N   UNL     1      41.026 -11.527   5.706  1.00  0.00    -0.096 N 
HETATM    8  C   UNL     1      41.489 -14.898   4.107  1.00  0.00     0.104 A 
HETATM    9  C   UNL     1      41.735 -15.836   2.912  1.00  0.00     0.046 A 
HETATM   10  H   UNL     1      41.479 -13.640   0.487  1.00  0.00     0.166 HD
ENDROOT
BRANCH   4  11
HETATM   11  S   UNL     1      40.928 -11.387   1.959  1.00  0.00    -0.102 SA
BRANCH  11  12
HETATM   12  C   UNL     1      42.108 -11.265   0.567  1.00  0.00     0.184 C 
BRANCH  12  13
HETATM   13  C   UNL     1      41.546 -10.395  -0.530  1.00  0.00     0.231 C 
HETATM   14  N   UNL     1      40.686 -10.854  -1.479  1.00  0.00    -0.324 N 
HETATM   15  H   UNL     1      40.502 -10.137  -2.180  1.00  0.00     0.169 HD
HETATM   16  O   UNL     1      41.892  -9.208  -0.605  1.00  0.00    -0.272 OA
BRANCH  14  17
HETATM   17  C   UNL     1      40.057 -12.083  -1.774  1.00  0.00     0.070 A 
HETATM   18  C   UNL     1      38.654 -12.113  -1.566  1.00  0.00     0.095 A 
HETATM   19  C   UNL     1      37.922 -13.269  -1.849  1.00  0.00     0.041 A 
HETATM   20  C   UNL     1      38.572 -14.408  -2.320  1.00  0.00     0.026 A 
HETATM   21  C   UNL     1      39.951 -14.388  -2.500  1.00  0.00     0.036 A 
HETATM   22 CL   UNL     1      40.752 -15.806  -3.062  1.00  0.00    -0.084 Cl
HETATM   23  C   UNL     1      40.694 -13.237  -2.226  1.00  0.00     0.056 A 
BRANCH  18  24
HETATM   24  O   UNL     1      38.109 -10.939  -1.096  1.00  0.00    -0.354 OA
HETATM   25  C   UNL     1      36.862 -11.022  -0.420  1.00  0.00     0.210 C 
ENDBRANCH  18  24
ENDBRANCH  14  17
ENDBRANCH  12  13
ENDBRANCH  11  12
ENDBRANCH   4  11
BRANCH   8  26
HETATM   26  C   UNL     1      42.671 -14.842   5.085  1.00  0.00    -0.044 A 
HETATM   27  C   UNL     1      42.656 -15.641   6.243  1.00  0.00     0.008 A 
HETATM   28  C   UNL     1      43.692 -15.562   7.174  1.00  0.00     0.001 A 
HETATM   29  C   UNL     1      44.753 -14.686   6.963  1.00  0.00     0.000 A 
HETATM   30  C   UNL     1      44.778 -13.882   5.825  1.00  0.00     0.001 A 
HETATM   31  C   UNL     1      43.741 -13.952   4.893  1.00  0.00     0.008 A 
ENDBRANCH   8  26
BRANCH   9  32
HETATM   32  C   UNL     1      41.887 -17.330   3.090  1.00  0.00     0.255 C 
HETATM   33  N   UNL     1      43.166 -17.829   3.103  1.00  0.00    -0.321 N 
HETATM   34  H   UNL     1      43.963 -17.212   3.177  1.00  0.00     0.169 HD
HETATM   35  O   UNL     1      40.889 -18.026   3.269  1.00  0.00    -0.268 OA
BRANCH  33  36
HETATM   36  C   UNL     1      43.557 -19.188   3.004  1.00  0.00     0.068 A 
HETATM   37  C   UNL     1      44.315 -19.721   4.070  1.00  0.00     0.095 A 
HETATM   38  C   UNL     1      44.783 -21.037   4.000  1.00  0.00     0.039 A 
HETATM   39  C   UNL     1      44.512 -21.819   2.875  1.00  0.00     0.003 A 
HETATM   40  C   UNL     1      43.769 -21.294   1.822  1.00  0.00     0.002 A 
HETATM   41  C   UNL     1      43.289 -19.984   1.888  1.00  0.00     0.032 A 
BRANCH  37  42
HETATM   42  O   UNL     1      44.522 -18.870   5.132  1.00  0.00    -0.354 OA
HETATM   43  C   UNL     1      44.119 -19.328   6.416  1.00  0.00     0.210 C 
ENDBRANCH  37  42
ENDBRANCH  33  36
ENDBRANCH   9  32
TORSDOF 9
ENDMDL
