MODEL 1
REMARK VINA RESULT:      -8.4      0.000      0.000
REMARK  10 active torsions:
REMARK  status: ('A' for Active; 'I' for Inactive)
REMARK    1  A    between atoms: C_2  and  C_3 
REMARK    2  A    between atoms: C_3  and  C_4 
REMARK    3  A    between atoms: C_4  and  O_5 
REMARK    4  A    between atoms: O_5  and  C_6 
REMARK    5  A    between atoms: C_9  and  C_10 
REMARK       I    between atoms: C_10  and  N_11 
REMARK    6  A    between atoms: N_11  and  C_12 
REMARK    7  A    between atoms: C_12  and  N_13 
REMARK    8  A    between atoms: N_13  and  C_14 
REMARK    9  A    between atoms: C_16  and  C_17 
REMARK   10  A    between atoms: C_26  and  O_27 
ROOT
HETATM    1  N   UNL     1      39.592 -14.691   4.456  1.00  0.00    -0.333 N 
HETATM    2  H   UNL     1      38.779 -15.248   4.700  1.00  0.00     0.168 HD
ENDROOT
BRANCH   1   3
HETATM    3  C   UNL     1      40.135 -14.026   5.527  1.00  0.00     0.179 C 
HETATM    4  S   UNL     1      39.598 -12.468   5.812  1.00  0.00    -0.040 SA
BRANCH   3   5
HETATM    5  N   UNL     1      41.155 -14.679   6.185  1.00  0.00    -0.299 N 
HETATM    6  C   UNL     1      42.469 -14.643   5.747  1.00  0.00     0.257 C 
HETATM    7  O   UNL     1      43.231 -13.722   6.022  1.00  0.00    -0.267 OA
HETATM    8  H   UNL     1      40.841 -15.591   6.486  1.00  0.00     0.171 HD
BRANCH   6   9
HETATM    9  C   UNL     1      42.950 -15.819   4.953  1.00  0.00     0.032 A 
HETATM   10  C   UNL     1      42.744 -17.145   5.362  1.00  0.00     0.020 A 
HETATM   11  C   UNL     1      43.117 -18.202   4.528  1.00  0.00     0.038 A 
HETATM   12  C   UNL     1      43.665 -17.947   3.274  1.00  0.00     0.068 A 
HETATM   13  C   UNL     1      43.918 -16.635   2.875  1.00  0.00     0.038 A 
HETATM   14  C   UNL     1      43.554 -15.574   3.710  1.00  0.00     0.020 A 
BRANCH  12  15
HETATM   15  O   UNL     1      43.946 -19.039   2.501  1.00  0.00    -0.351 OA
BRANCH  15  16
HETATM   16  C   UNL     1      44.420 -20.160   3.260  1.00  0.00     0.175 C 
BRANCH  16  17
HETATM   17  C   UNL     1      44.267 -21.409   2.395  1.00  0.00     0.026 C 
BRANCH  17  18
HETATM   18  C   UNL     1      44.686 -22.669   3.145  1.00  0.00    -0.002 C 
HETATM   19  C   UNL     1      44.773 -22.424   4.643  1.00  0.00     0.005 C 
ENDBRANCH  17  18
ENDBRANCH  16  17
ENDBRANCH  15  16
ENDBRANCH  12  15
ENDBRANCH   6   9
ENDBRANCH   3   5
ENDBRANCH   1   3
BRANCH   1  20
HETATM   20  C   UNL     1      40.078 -14.865   3.145  1.00  0.00     0.035 A 
HETATM   21  C   UNL     1      40.536 -13.812   2.350  1.00  0.00     0.048 A 
HETATM   22  C   UNL     1      41.125 -14.057   1.096  1.00  0.00     0.053 A 
HETATM   23  C   UNL     1      41.217 -15.386   0.643  1.00  0.00     0.086 A 
HETATM   24  C   UNL     1      40.726 -16.451   1.411  1.00  0.00    -0.026 A 
HETATM   25  C   UNL     1      40.836 -17.873   0.939  1.00  0.00     0.051 C 
HETATM   26  C   UNL     1      40.192 -16.178   2.677  1.00  0.00     0.039 A 
BRANCH  22  27
HETATM   27  C   UNL     1      41.685 -12.963   0.309  1.00  0.00     0.183 A 
HETATM   28  O   UNL     1      41.533 -13.026  -1.051  1.00  0.00    -0.289 OA
HETATM   29  C   UNL     1      42.109 -11.873  -1.499  1.00  0.00     0.106 A 
HETATM   30  C   UNL     1      42.580 -11.178  -0.396  1.00  0.00     0.093 A 
HETATM   31  C   UNL     1      42.210 -11.438  -2.813  1.00  0.00     0.040 A 
HETATM   32  N   UNL     1      42.332 -11.896   0.748  1.00  0.00    -0.221 NA
HETATM   33  C   UNL     1      43.192  -9.934  -0.591  1.00  0.00     0.034 A 
HETATM   34  C   UNL     1      43.304  -9.451  -1.904  1.00  0.00     0.002 A 
HETATM   35  C   UNL     1      42.827 -10.192  -2.993  1.00  0.00     0.003 A 
ENDBRANCH  22  27
BRANCH  23  36
HETATM   36  O   UNL     1      41.806 -15.703  -0.558  1.00  0.00    -0.359 OA
HETATM   37  H   UNL     1      41.911 -16.677  -0.613  1.00  0.00     0.218 HD
ENDBRANCH  23  36
ENDBRANCH   1  20
TORSDOF 10
ENDMDL
MODEL 2
REMARK VINA RESULT:      -8.2      0.915      1.449
REMARK  10 active torsions:
REMARK  status: ('A' for Active; 'I' for Inactive)
REMARK    1  A    between atoms: C_2  and  C_3 
REMARK    2  A    between atoms: C_3  and  C_4 
REMARK    3  A    between atoms: C_4  and  O_5 
REMARK    4  A    between atoms: O_5  and  C_6 
REMARK    5  A    between atoms: C_9  and  C_10 
REMARK       I    between atoms: C_10  and  N_11 
REMARK    6  A    between atoms: N_11  and  C_12 
REMARK    7  A    between atoms: C_12  and  N_13 
REMARK    8  A    between atoms: N_13  and  C_14 
REMARK    9  A    between atoms: C_16  and  C_17 
REMARK   10  A    between atoms: C_26  and  O_27 
ROOT
HETATM    1  N   UNL     1      40.012 -14.916   4.575  1.00  0.00    -0.333 N 
HETATM    2  H   UNL     1      39.447 -15.673   4.947  1.00  0.00     0.168 HD
ENDROOT
BRANCH   1   3
HETATM    3  C   UNL     1      40.370 -13.991   5.524  1.00  0.00     0.179 C 
HETATM    4  S   UNL     1      39.522 -12.550   5.547  1.00  0.00    -0.040 SA
BRANCH   3   5
HETATM    5  N   UNL     1      41.476 -14.307   6.284  1.00  0.00    -0.299 N 
HETATM    6  C   UNL     1      42.682 -14.695   5.722  1.00  0.00     0.257 C 
HETATM    7  O   UNL     1      43.512 -13.887   5.320  1.00  0.00    -0.267 OA
HETATM    8  H   UNL     1      41.196 -14.853   7.087  1.00  0.00     0.171 HD
BRANCH   6   9
HETATM    9  C   UNL     1      42.962 -16.166   5.671  1.00  0.00     0.032 A 
HETATM   10  C   UNL     1      43.481 -16.799   4.531  1.00  0.00     0.020 A 
HETATM   11  C   UNL     1      43.825 -18.153   4.576  1.00  0.00     0.038 A 
HETATM   12  C   UNL     1      43.686 -18.873   5.760  1.00  0.00     0.068 A 
HETATM   13  C   UNL     1      43.129 -18.268   6.885  1.00  0.00     0.038 A 
HETATM   14  C   UNL     1      42.774 -16.916   6.842  1.00  0.00     0.020 A 
BRANCH  12  15
HETATM   15  O   UNL     1      44.102 -20.175   5.729  1.00  0.00    -0.351 OA
BRANCH  15  16
HETATM   16  C   UNL     1      44.949 -20.470   4.610  1.00  0.00     0.175 C 
BRANCH  16  17
HETATM   17  C   UNL     1      44.819 -21.960   4.305  1.00  0.00     0.026 C 
BRANCH  17  18
HETATM   18  C   UNL     1      44.360 -22.204   2.871  1.00  0.00    -0.002 C 
HETATM   19  C   UNL     1      44.006 -20.902   2.169  1.00  0.00     0.005 C 
ENDBRANCH  17  18
ENDBRANCH  16  17
ENDBRANCH  15  16
ENDBRANCH  12  15
ENDBRANCH   6   9
ENDBRANCH   3   5
ENDBRANCH   1   3
BRANCH   1  20
HETATM   20  C   UNL     1      40.445 -15.075   3.243  1.00  0.00     0.035 A 
HETATM   21  C   UNL     1      40.820 -14.008   2.425  1.00  0.00     0.048 A 
HETATM   22  C   UNL     1      41.361 -14.234   1.146  1.00  0.00     0.053 A 
HETATM   23  C   UNL     1      41.488 -15.560   0.693  1.00  0.00     0.086 A 
HETATM   24  C   UNL     1      41.079 -16.640   1.486  1.00  0.00    -0.026 A 
HETATM   25  C   UNL     1      41.227 -18.059   1.014  1.00  0.00     0.051 C 
HETATM   26  C   UNL     1      40.592 -16.384   2.775  1.00  0.00     0.039 A 
BRANCH  22  27
HETATM   27  C   UNL     1      41.837 -13.121   0.331  1.00  0.00     0.183 A 
HETATM   28  O   UNL     1      41.631 -13.199  -1.021  1.00  0.00    -0.289 OA
HETATM   29  C   UNL     1      42.135 -12.024  -1.498  1.00  0.00     0.106 A 
HETATM   30  C   UNL     1      42.620 -11.302  -0.419  1.00  0.00     0.093 A 
HETATM   31  C   UNL     1      42.161 -11.594  -2.818  1.00  0.00     0.040 A 
HETATM   32  N   UNL     1      42.453 -12.022   0.738  1.00  0.00    -0.221 NA
HETATM   33  C   UNL     1      43.166 -10.033  -0.645  1.00  0.00     0.034 A 
HETATM   34  C   UNL     1      43.202  -9.554  -1.965  1.00  0.00     0.002 A 
HETATM   35  C   UNL     1      42.713 -10.323  -3.029  1.00  0.00     0.003 A 
ENDBRANCH  22  27
BRANCH  23  36
HETATM   36  O   UNL     1      42.034 -15.857  -0.532  1.00  0.00    -0.359 OA
HETATM   37  H   UNL     1      42.960 -15.536  -0.554  1.00  0.00     0.218 HD
ENDBRANCH  23  36
ENDBRANCH   1  20
TORSDOF 10
ENDMDL
MODEL 3
REMARK VINA RESULT:      -8.2      1.549      2.079
REMARK  10 active torsions:
REMARK  status: ('A' for Active; 'I' for Inactive)
REMARK    1  A    between atoms: C_2  and  C_3 
REMARK    2  A    between atoms: C_3  and  C_4 
REMARK    3  A    between atoms: C_4  and  O_5 
REMARK    4  A    between atoms: O_5  and  C_6 
REMARK    5  A    between atoms: C_9  and  C_10 
REMARK       I    between atoms: C_10  and  N_11 
REMARK    6  A    between atoms: N_11  and  C_12 
REMARK    7  A    between atoms: C_12  and  N_13 
REMARK    8  A    between atoms: N_13  and  C_14 
REMARK    9  A    between atoms: C_16  and  C_17 
REMARK   10  A    between atoms: C_26  and  O_27 
ROOT
HETATM    1  N   UNL     1      42.132 -13.836   4.101  1.00  0.00    -0.333 N 
HETATM    2  H   UNL     1      42.862 -13.137   4.203  1.00  0.00     0.168 HD
ENDROOT
BRANCH   1   3
HETATM    3  C   UNL     1      41.438 -14.068   5.262  1.00  0.00     0.179 C 
HETATM    4  S   UNL     1      39.829 -13.615   5.296  1.00  0.00    -0.040 SA
BRANCH   3   5
HETATM    5  N   UNL     1      42.182 -14.546   6.320  1.00  0.00    -0.299 N 
HETATM    6  C   UNL     1      43.472 -15.027   6.170  1.00  0.00     0.257 C 
HETATM    7  O   UNL     1      44.452 -14.291   6.151  1.00  0.00    -0.267 OA
HETATM    8  H   UNL     1      41.596 -15.106   6.926  1.00  0.00     0.171 HD
BRANCH   6   9
HETATM    9  C   UNL     1      43.633 -16.514   6.080  1.00  0.00     0.032 A 
HETATM   10  C   UNL     1      42.681 -17.344   5.470  1.00  0.00     0.020 A 
HETATM   11  C   UNL     1      42.935 -18.710   5.318  1.00  0.00     0.038 A 
HETATM   12  C   UNL     1      44.147 -19.249   5.740  1.00  0.00     0.068 A 
HETATM   13  C   UNL     1      45.083 -18.444   6.388  1.00  0.00     0.038 A 
HETATM   14  C   UNL     1      44.829 -17.079   6.551  1.00  0.00     0.020 A 
BRANCH  12  15
HETATM   15  O   UNL     1      44.335 -20.582   5.498  1.00  0.00    -0.351 OA
BRANCH  15  16
HETATM   16  C   UNL     1      45.121 -20.836   4.326  1.00  0.00     0.175 C 
BRANCH  16  17
HETATM   17  C   UNL     1      44.571 -22.095   3.659  1.00  0.00     0.026 C 
BRANCH  17  18
HETATM   18  C   UNL     1      44.348 -21.890   2.164  1.00  0.00    -0.002 C 
HETATM   19  C   UNL     1      43.547 -20.628   1.887  1.00  0.00     0.005 C 
ENDBRANCH  17  18
ENDBRANCH  16  17
ENDBRANCH  15  16
ENDBRANCH  12  15
ENDBRANCH   6   9
ENDBRANCH   3   5
ENDBRANCH   1   3
BRANCH   1  20
HETATM   20  C   UNL     1      41.880 -14.265   2.783  1.00  0.00     0.035 A 
HETATM   21  C   UNL     1      41.917 -13.413   1.677  1.00  0.00     0.048 A 
HETATM   22  C   UNL     1      41.780 -13.917   0.371  1.00  0.00     0.053 A 
HETATM   23  C   UNL     1      41.572 -15.298   0.201  1.00  0.00     0.086 A 
HETATM   24  C   UNL     1      41.492 -16.162   1.301  1.00  0.00    -0.026 A 
HETATM   25  C   UNL     1      41.287 -17.640   1.125  1.00  0.00     0.051 C 
HETATM   26  C   UNL     1      41.684 -15.636   2.586  1.00  0.00     0.039 A 
BRANCH  22  27
HETATM   27  C   UNL     1      41.911 -13.037  -0.786  1.00  0.00     0.183 A 
HETATM   28  O   UNL     1      42.241 -11.729  -0.545  1.00  0.00    -0.289 OA
HETATM   29  C   UNL     1      42.329 -11.179  -1.790  1.00  0.00     0.106 A 
HETATM   30  C   UNL     1      42.048 -12.173  -2.714  1.00  0.00     0.093 A 
HETATM   31  C   UNL     1      42.653  -9.867  -2.110  1.00  0.00     0.040 A 
HETATM   32  N   UNL     1      41.753 -13.345  -2.063  1.00  0.00    -0.221 NA
HETATM   33  C   UNL     1      42.104 -11.865  -4.079  1.00  0.00     0.034 A 
HETATM   34  C   UNL     1      42.440 -10.552  -4.447  1.00  0.00     0.002 A 
HETATM   35  C   UNL     1      42.704  -9.573  -3.479  1.00  0.00     0.003 A 
ENDBRANCH  22  27
BRANCH  23  36
HETATM   36  O   UNL     1      41.459 -15.865  -1.046  1.00  0.00    -0.359 OA
HETATM   37  H   UNL     1      40.509 -16.008  -1.244  1.00  0.00     0.218 HD
ENDBRANCH  23  36
ENDBRANCH   1  20
TORSDOF 10
ENDMDL
MODEL 4
REMARK VINA RESULT:      -8.1      3.047      6.237
REMARK  10 active torsions:
REMARK  status: ('A' for Active; 'I' for Inactive)
REMARK    1  A    between atoms: C_2  and  C_3 
REMARK    2  A    between atoms: C_3  and  C_4 
REMARK    3  A    between atoms: C_4  and  O_5 
REMARK    4  A    between atoms: O_5  and  C_6 
REMARK    5  A    between atoms: C_9  and  C_10 
REMARK       I    between atoms: C_10  and  N_11 
REMARK    6  A    between atoms: N_11  and  C_12 
REMARK    7  A    between atoms: C_12  and  N_13 
REMARK    8  A    between atoms: N_13  and  C_14 
REMARK    9  A    between atoms: C_16  and  C_17 
REMARK   10  A    between atoms: C_26  and  O_27 
ROOT
HETATM    1  N   UNL     1      38.412 -14.198   0.351  1.00  0.00    -0.333 N 
HETATM    2  H   UNL     1      37.553 -14.738   0.305  1.00  0.00     0.168 HD
ENDROOT
BRANCH   1   3
HETATM    3  C   UNL     1      38.976 -13.972  -0.879  1.00  0.00     0.179 C 
HETATM    4  S   UNL     1      37.935 -13.720  -2.164  1.00  0.00    -0.040 SA
BRANCH   3   5
HETATM    5  N   UNL     1      40.348 -14.094  -0.943  1.00  0.00    -0.299 N 
HETATM    6  C   UNL     1      40.986 -15.322  -1.012  1.00  0.00     0.257 C 
HETATM    7  O   UNL     1      41.143 -15.924  -2.068  1.00  0.00    -0.267 OA
HETATM    8  H   UNL     1      40.781 -13.434  -0.311  1.00  0.00     0.171 HD
BRANCH   6   9
HETATM    9  C   UNL     1      41.532 -15.873   0.269  1.00  0.00     0.032 A 
HETATM   10  C   UNL     1      41.216 -17.157   0.739  1.00  0.00     0.020 A 
HETATM   11  C   UNL     1      41.841 -17.659   1.883  1.00  0.00     0.038 A 
HETATM   12  C   UNL     1      42.804 -16.903   2.545  1.00  0.00     0.068 A 
HETATM   13  C   UNL     1      43.094 -15.609   2.116  1.00  0.00     0.038 A 
HETATM   14  C   UNL     1      42.465 -15.099   0.977  1.00  0.00     0.020 A 
BRANCH  12  15
HETATM   15  O   UNL     1      43.406 -17.497   3.620  1.00  0.00    -0.351 OA
BRANCH  15  16
HETATM   16  C   UNL     1      43.049 -18.877   3.776  1.00  0.00     0.175 C 
BRANCH  16  17
HETATM   17  C   UNL     1      44.331 -19.667   4.023  1.00  0.00     0.026 C 
BRANCH  17  18
HETATM   18  C   UNL     1      44.794 -20.398   2.767  1.00  0.00    -0.002 C 
HETATM   19  C   UNL     1      43.616 -20.872   1.930  1.00  0.00     0.005 C 
ENDBRANCH  17  18
ENDBRANCH  16  17
ENDBRANCH  15  16
ENDBRANCH  12  15
ENDBRANCH   6   9
ENDBRANCH   3   5
ENDBRANCH   1   3
BRANCH   1  20
HETATM   20  C   UNL     1      38.727 -13.661   1.615  1.00  0.00     0.035 A 
HETATM   21  C   UNL     1      39.533 -14.316   2.548  1.00  0.00     0.048 A 
HETATM   22  C   UNL     1      39.916 -13.681   3.744  1.00  0.00     0.053 A 
HETATM   23  C   UNL     1      39.444 -12.380   3.997  1.00  0.00     0.086 A 
HETATM   24  C   UNL     1      38.601 -11.724   3.089  1.00  0.00    -0.026 A 
HETATM   25  C   UNL     1      38.107 -10.329   3.346  1.00  0.00     0.051 C 
HETATM   26  C   UNL     1      38.280 -12.364   1.884  1.00  0.00     0.039 A 
BRANCH  22  27
HETATM   27  C   UNL     1      40.833 -14.333   4.673  1.00  0.00     0.183 A 
HETATM   28  O   UNL     1      40.439 -15.531   5.208  1.00  0.00    -0.289 OA
HETATM   29  C   UNL     1      41.495 -15.905   5.987  1.00  0.00     0.106 A 
HETATM   30  C   UNL     1      42.465 -14.921   5.888  1.00  0.00     0.093 A 
HETATM   31  C   UNL     1      41.614 -17.062   6.745  1.00  0.00     0.040 A 
HETATM   32  N   UNL     1      42.022 -13.909   5.072  1.00  0.00    -0.221 NA
HETATM   33  C   UNL     1      43.672 -15.087   6.578  1.00  0.00     0.034 A 
HETATM   34  C   UNL     1      43.839 -16.250   7.347  1.00  0.00     0.002 A 
HETATM   35  C   UNL     1      42.826 -17.215   7.432  1.00  0.00     0.003 A 
ENDBRANCH  22  27
BRANCH  23  36
HETATM   36  O   UNL     1      39.800 -11.687   5.129  1.00  0.00    -0.359 OA
HETATM   37  H   UNL     1      40.231 -10.847   4.865  1.00  0.00     0.218 HD
ENDBRANCH  23  36
ENDBRANCH   1  20
TORSDOF 10
ENDMDL
MODEL 5
REMARK VINA RESULT:      -8.1      4.809      9.023
REMARK  10 active torsions:
REMARK  status: ('A' for Active; 'I' for Inactive)
REMARK    1  A    between atoms: C_2  and  C_3 
REMARK    2  A    between atoms: C_3  and  C_4 
REMARK    3  A    between atoms: C_4  and  O_5 
REMARK    4  A    between atoms: O_5  and  C_6 
REMARK    5  A    between atoms: C_9  and  C_10 
REMARK       I    between atoms: C_10  and  N_11 
REMARK    6  A    between atoms: N_11  and  C_12 
REMARK    7  A    between atoms: C_12  and  N_13 
REMARK    8  A    between atoms: N_13  and  C_14 
REMARK    9  A    between atoms: C_16  and  C_17 
REMARK   10  A    between atoms: C_26  and  O_27 
ROOT
HETATM    1  N   UNL     1      39.946 -13.988   6.050  1.00  0.00    -0.333 N 
HETATM    2  H   UNL     1      39.731 -14.613   6.821  1.00  0.00     0.168 HD
ENDROOT
BRANCH   1   3
HETATM    3  C   UNL     1      40.141 -12.688   6.446  1.00  0.00     0.179 C 
HETATM    4  S   UNL     1      41.264 -11.789   5.592  1.00  0.00    -0.040 SA
BRANCH   3   5
HETATM    5  N   UNL     1      39.470 -12.300   7.586  1.00  0.00    -0.299 N 
HETATM    6  C   UNL     1      39.570 -11.023   8.112  1.00  0.00     0.257 C 
HETATM    7  O   UNL     1      38.890 -10.087   7.706  1.00  0.00    -0.267 OA
HETATM    8  H   UNL     1      39.508 -13.039   8.275  1.00  0.00     0.171 HD
BRANCH   6   9
HETATM    9  C   UNL     1      40.522 -10.834   9.254  1.00  0.00     0.032 A 
HETATM   10  C   UNL     1      40.162 -11.074  10.589  1.00  0.00     0.020 A 
HETATM   11  C   UNL     1      41.122 -10.987  11.600  1.00  0.00     0.038 A 
HETATM   12  C   UNL     1      42.447 -10.696  11.288  1.00  0.00     0.068 A 
HETATM   13  C   UNL     1      42.808 -10.411   9.972  1.00  0.00     0.038 A 
HETATM   14  C   UNL     1      41.849 -10.487   8.957  1.00  0.00     0.020 A 
BRANCH  12  15
HETATM   15  O   UNL     1      43.329 -10.690  12.332  1.00  0.00    -0.351 OA
BRANCH  15  16
HETATM   16  C   UNL     1      42.693 -10.520  13.606  1.00  0.00     0.175 C 
BRANCH  16  17
HETATM   17  C   UNL     1      43.159  -9.186  14.186  1.00  0.00     0.026 C 
BRANCH  17  18
HETATM   18  C   UNL     1      42.160  -8.068  13.901  1.00  0.00    -0.002 C 
HETATM   19  C   UNL     1      42.548  -7.276  12.662  1.00  0.00     0.005 C 
ENDBRANCH  17  18
ENDBRANCH  16  17
ENDBRANCH  15  16
ENDBRANCH  12  15
ENDBRANCH   6   9
ENDBRANCH   3   5
ENDBRANCH   1   3
BRANCH   1  20
HETATM   20  C   UNL     1      40.170 -14.610   4.806  1.00  0.00     0.035 A 
HETATM   21  C   UNL     1      41.079 -15.654   4.622  1.00  0.00     0.048 A 
HETATM   22  C   UNL     1      41.173 -16.320   3.387  1.00  0.00     0.053 A 
HETATM   23  C   UNL     1      40.352 -15.893   2.327  1.00  0.00     0.086 A 
HETATM   24  C   UNL     1      39.463 -14.821   2.483  1.00  0.00    -0.026 A 
HETATM   25  C   UNL     1      38.573 -14.371   1.359  1.00  0.00     0.051 C 
HETATM   26  C   UNL     1      39.356 -14.212   3.740  1.00  0.00     0.039 A 
BRANCH  22  27
HETATM   27  C   UNL     1      42.057 -17.470   3.225  1.00  0.00     0.183 A 
HETATM   28  O   UNL     1      42.845 -17.810   4.293  1.00  0.00    -0.289 OA
HETATM   29  C   UNL     1      43.514 -18.920   3.866  1.00  0.00     0.106 A 
HETATM   30  C   UNL     1      43.104 -19.190   2.570  1.00  0.00     0.093 A 
HETATM   31  C   UNL     1      44.437 -19.673   4.579  1.00  0.00     0.040 A 
HETATM   32  N   UNL     1      42.198 -18.242   2.160  1.00  0.00    -0.221 NA
HETATM   33  C   UNL     1      43.628 -20.310   1.913  1.00  0.00     0.034 A 
HETATM   34  C   UNL     1      44.556 -21.107   2.603  1.00  0.00     0.002 A 
HETATM   35  C   UNL     1      44.955 -20.790   3.908  1.00  0.00     0.003 A 
ENDBRANCH  22  27
BRANCH  23  36
HETATM   36  O   UNL     1      40.369 -16.515   1.101  1.00  0.00    -0.359 OA
HETATM   37  H   UNL     1      39.452 -16.767   0.860  1.00  0.00     0.218 HD
ENDBRANCH  23  36
ENDBRANCH   1  20
TORSDOF 10
ENDMDL
MODEL 6
REMARK VINA RESULT:      -8.0      2.992      6.539
REMARK  10 active torsions:
REMARK  status: ('A' for Active; 'I' for Inactive)
REMARK    1  A    between atoms: C_2  and  C_3 
REMARK    2  A    between atoms: C_3  and  C_4 
REMARK    3  A    between atoms: C_4  and  O_5 
REMARK    4  A    between atoms: O_5  and  C_6 
REMARK    5  A    between atoms: C_9  and  C_10 
REMARK       I    between atoms: C_10  and  N_11 
REMARK    6  A    between atoms: N_11  and  C_12 
REMARK    7  A    between atoms: C_12  and  N_13 
REMARK    8  A    between atoms: N_13  and  C_14 
REMARK    9  A    between atoms: C_16  and  C_17 
REMARK   10  A    between atoms: C_26  and  O_27 
ROOT
HETATM    1  N   UNL     1      41.956 -13.315   2.342  1.00  0.00    -0.333 N 
HETATM    2  H   UNL     1      42.302 -12.366   2.239  1.00  0.00     0.168 HD
ENDROOT
BRANCH   1   3
HETATM    3  C   UNL     1      41.418 -13.824   1.186  1.00  0.00     0.179 C 
HETATM    4  S   UNL     1      39.804 -13.504   0.887  1.00  0.00    -0.040 SA
BRANCH   3   5
HETATM    5  N   UNL     1      42.245 -14.647   0.451  1.00  0.00    -0.299 N 
HETATM    6  C   UNL     1      41.871 -15.921   0.056  1.00  0.00     0.257 C 
HETATM    7  O   UNL     1      41.200 -16.129  -0.949  1.00  0.00    -0.267 OA
HETATM    8  H   UNL     1      43.192 -14.579   0.796  1.00  0.00     0.171 HD
BRANCH   6   9
HETATM    9  C   UNL     1      42.368 -17.061   0.891  1.00  0.00     0.032 A 
HETATM   10  C   UNL     1      41.548 -18.132   1.278  1.00  0.00     0.020 A 
HETATM   11  C   UNL     1      42.093 -19.221   1.963  1.00  0.00     0.038 A 
HETATM   12  C   UNL     1      43.457 -19.266   2.237  1.00  0.00     0.068 A 
HETATM   13  C   UNL     1      44.274 -18.188   1.899  1.00  0.00     0.038 A 
HETATM   14  C   UNL     1      43.732 -17.092   1.222  1.00  0.00     0.020 A 
BRANCH  12  15
HETATM   15  O   UNL     1      43.913 -20.396   2.858  1.00  0.00    -0.351 OA
BRANCH  15  16
HETATM   16  C   UNL     1      45.025 -20.150   3.730  1.00  0.00     0.175 C 
BRANCH  16  17
HETATM   17  C   UNL     1      44.659 -20.678   5.115  1.00  0.00     0.026 C 
BRANCH  17  18
HETATM   18  C   UNL     1      44.173 -19.560   6.033  1.00  0.00    -0.002 C 
HETATM   19  C   UNL     1      45.088 -18.347   5.968  1.00  0.00     0.005 C 
ENDBRANCH  17  18
ENDBRANCH  16  17
ENDBRANCH  15  16
ENDBRANCH  12  15
ENDBRANCH   6   9
ENDBRANCH   3   5
ENDBRANCH   1   3
BRANCH   1  20
HETATM   20  C   UNL     1      42.262 -13.946   3.564  1.00  0.00     0.035 A 
HETATM   21  C   UNL     1      42.898 -13.297   4.624  1.00  0.00     0.048 A 
HETATM   22  C   UNL     1      43.069 -13.938   5.865  1.00  0.00     0.053 A 
HETATM   23  C   UNL     1      42.611 -15.260   6.009  1.00  0.00     0.086 A 
HETATM   24  C   UNL     1      42.007 -15.940   4.943  1.00  0.00    -0.026 A 
HETATM   25  C   UNL     1      41.502 -17.346   5.095  1.00  0.00     0.051 C 
HETATM   26  C   UNL     1      41.806 -15.256   3.735  1.00  0.00     0.039 A 
BRANCH  22  27
HETATM   27  C   UNL     1      43.651 -13.225   6.998  1.00  0.00     0.183 A 
HETATM   28  O   UNL     1      42.931 -12.183   7.521  1.00  0.00    -0.289 OA
HETATM   29  C   UNL     1      43.693 -11.751   8.568  1.00  0.00     0.106 A 
HETATM   30  C   UNL     1      44.828 -12.545   8.622  1.00  0.00     0.093 A 
HETATM   31  C   UNL     1      43.407 -10.716   9.446  1.00  0.00     0.040 A 
HETATM   32  N   UNL     1      44.806 -13.461   7.599  1.00  0.00    -0.221 NA
HETATM   33  C   UNL     1      45.763 -12.321   9.639  1.00  0.00     0.034 A 
HETATM   34  C   UNL     1      45.507 -11.290  10.557  1.00  0.00     0.002 A 
HETATM   35  C   UNL     1      44.353 -10.501  10.458  1.00  0.00     0.003 A 
ENDBRANCH  22  27
BRANCH  23  36
HETATM   36  O   UNL     1      42.718 -15.938   7.200  1.00  0.00    -0.359 OA
HETATM   37  H   UNL     1      43.398 -16.638   7.107  1.00  0.00     0.218 HD
ENDBRANCH  23  36
ENDBRANCH   1  20
TORSDOF 10
ENDMDL
MODEL 7
REMARK VINA RESULT:      -7.9      2.270      6.556
REMARK  10 active torsions:
REMARK  status: ('A' for Active; 'I' for Inactive)
REMARK    1  A    between atoms: C_2  and  C_3 
REMARK    2  A    between atoms: C_3  and  C_4 
REMARK    3  A    between atoms: C_4  and  O_5 
REMARK    4  A    between atoms: O_5  and  C_6 
REMARK    5  A    between atoms: C_9  and  C_10 
REMARK       I    between atoms: C_10  and  N_11 
REMARK    6  A    between atoms: N_11  and  C_12 
REMARK    7  A    between atoms: C_12  and  N_13 
REMARK    8  A    between atoms: N_13  and  C_14 
REMARK    9  A    between atoms: C_16  and  C_17 
REMARK   10  A    between atoms: C_26  and  O_27 
ROOT
HETATM    1  N   UNL     1      42.079 -12.142   1.580  1.00  0.00    -0.333 N 
HETATM    2  H   UNL     1      43.088 -12.026   1.568  1.00  0.00     0.168 HD
ENDROOT
BRANCH   1   3
HETATM    3  C   UNL     1      41.494 -11.915   0.359  1.00  0.00     0.179 C 
HETATM    4  S   UNL     1      40.918 -10.373   0.061  1.00  0.00    -0.040 SA
BRANCH   3   5
HETATM    5  N   UNL     1      41.339 -13.022  -0.448  1.00  0.00    -0.299 N 
HETATM    6  C   UNL     1      40.385 -13.997  -0.203  1.00  0.00     0.257 C 
HETATM    7  O   UNL     1      39.221 -13.887  -0.572  1.00  0.00    -0.267 OA
HETATM    8  H   UNL     1      42.245 -13.383  -0.713  1.00  0.00     0.171 HD
BRANCH   6   9
HETATM    9  C   UNL     1      40.850 -15.237   0.498  1.00  0.00     0.032 A 
HETATM   10  C   UNL     1      42.101 -15.823   0.252  1.00  0.00     0.020 A 
HETATM   11  C   UNL     1      42.525 -16.915   1.013  1.00  0.00     0.038 A 
HETATM   12  C   UNL     1      41.726 -17.407   2.041  1.00  0.00     0.068 A 
HETATM   13  C   UNL     1      40.463 -16.863   2.266  1.00  0.00     0.038 A 
HETATM   14  C   UNL     1      40.029 -15.776   1.501  1.00  0.00     0.020 A 
BRANCH  12  15
HETATM   15  O   UNL     1      42.247 -18.438   2.773  1.00  0.00    -0.351 OA
BRANCH  15  16
HETATM   16  C   UNL     1      43.099 -19.300   2.006  1.00  0.00     0.175 C 
BRANCH  16  17
HETATM   17  C   UNL     1      44.268 -19.714   2.895  1.00  0.00     0.026 C 
BRANCH  17  18
HETATM   18  C   UNL     1      44.458 -21.227   2.910  1.00  0.00    -0.002 C 
HETATM   19  C   UNL     1      44.036 -21.855   1.591  1.00  0.00     0.005 C 
ENDBRANCH  17  18
ENDBRANCH  16  17
ENDBRANCH  15  16
ENDBRANCH  12  15
ENDBRANCH   6   9
ENDBRANCH   3   5
ENDBRANCH   1   3
BRANCH   1  20
HETATM   20  C   UNL     1      41.541 -12.673   2.768  1.00  0.00     0.035 A 
HETATM   21  C   UNL     1      42.094 -13.766   3.440  1.00  0.00     0.048 A 
HETATM   22  C   UNL     1      41.589 -14.178   4.687  1.00  0.00     0.053 A 
HETATM   23  C   UNL     1      40.493 -13.484   5.232  1.00  0.00     0.086 A 
HETATM   24  C   UNL     1      39.901 -12.411   4.553  1.00  0.00    -0.026 A 
HETATM   25  C   UNL     1      38.741 -11.657   5.138  1.00  0.00     0.051 C 
HETATM   26  C   UNL     1      40.460 -11.993   3.337  1.00  0.00     0.039 A 
BRANCH  22  27
HETATM   27  C   UNL     1      42.227 -15.261   5.428  1.00  0.00     0.183 A 
HETATM   28  O   UNL     1      43.327 -15.848   4.859  1.00  0.00    -0.289 OA
HETATM   29  C   UNL     1      43.718 -16.774   5.782  1.00  0.00     0.106 A 
HETATM   30  C   UNL     1      42.839 -16.704   6.852  1.00  0.00     0.093 A 
HETATM   31  C   UNL     1      44.801 -17.638   5.701  1.00  0.00     0.040 A 
HETATM   32  N   UNL     1      41.876 -15.757   6.603  1.00  0.00    -0.221 NA
HETATM   33  C   UNL     1      43.047 -17.541   7.955  1.00  0.00     0.034 A 
HETATM   34  C   UNL     1      44.139 -18.423   7.919  1.00  0.00     0.002 A 
HETATM   35  C   UNL     1      44.995 -18.472   6.810  1.00  0.00     0.003 A 
ENDBRANCH  22  27
BRANCH  23  36
HETATM   36  O   UNL     1      39.966 -13.812   6.459  1.00  0.00    -0.359 OA
HETATM   37  H   UNL     1      40.341 -13.210   7.136  1.00  0.00     0.218 HD
ENDBRANCH  23  36
ENDBRANCH   1  20
TORSDOF 10
ENDMDL
MODEL 8
REMARK VINA RESULT:      -7.8      2.471      3.040
REMARK  10 active torsions:
REMARK  status: ('A' for Active; 'I' for Inactive)
REMARK    1  A    between atoms: C_2  and  C_3 
REMARK    2  A    between atoms: C_3  and  C_4 
REMARK    3  A    between atoms: C_4  and  O_5 
REMARK    4  A    between atoms: O_5  and  C_6 
REMARK    5  A    between atoms: C_9  and  C_10 
REMARK       I    between atoms: C_10  and  N_11 
REMARK    6  A    between atoms: N_11  and  C_12 
REMARK    7  A    between atoms: C_12  and  N_13 
REMARK    8  A    between atoms: N_13  and  C_14 
REMARK    9  A    between atoms: C_16  and  C_17 
REMARK   10  A    between atoms: C_26  and  O_27 
ROOT
HETATM    1  N   UNL     1      43.181 -13.651   4.335  1.00  0.00    -0.333 N 
HETATM    2  H   UNL     1      44.060 -13.148   4.256  1.00  0.00     0.168 HD
ENDROOT
BRANCH   1   3
HETATM    3  C   UNL     1      42.486 -13.350   5.479  1.00  0.00     0.179 C 
HETATM    4  S   UNL     1      41.386 -12.092   5.398  1.00  0.00    -0.040 SA
BRANCH   3   5
HETATM    5  N   UNL     1      42.858 -14.046   6.609  1.00  0.00    -0.299 N 
HETATM    6  C   UNL     1      44.041 -14.762   6.690  1.00  0.00     0.257 C 
HETATM    7  O   UNL     1      45.111 -14.237   6.977  1.00  0.00    -0.267 OA
HETATM    8  H   UNL     1      42.056 -14.522   6.999  1.00  0.00     0.171 HD
BRANCH   6   9
HETATM    9  C   UNL     1      43.955 -16.239   6.458  1.00  0.00     0.032 A 
HETATM   10  C   UNL     1      42.769 -16.877   6.061  1.00  0.00     0.020 A 
HETATM   11  C   UNL     1      42.775 -18.240   5.754  1.00  0.00     0.038 A 
HETATM   12  C   UNL     1      43.961 -18.967   5.809  1.00  0.00     0.068 A 
HETATM   13  C   UNL     1      45.135 -18.357   6.247  1.00  0.00     0.038 A 
HETATM   14  C   UNL     1      45.133 -16.995   6.564  1.00  0.00     0.020 A 
BRANCH  12  15
HETATM   15  O   UNL     1      43.884 -20.280   5.435  1.00  0.00    -0.351 OA
BRANCH  15  16
HETATM   16  C   UNL     1      45.030 -20.723   4.696  1.00  0.00     0.175 C 
BRANCH  16  17
HETATM   17  C   UNL     1      44.564 -21.787   3.704  1.00  0.00     0.026 C 
BRANCH  17  18
HETATM   18  C   UNL     1      43.858 -21.166   2.503  1.00  0.00    -0.002 C 
HETATM   19  C   UNL     1      44.157 -21.932   1.223  1.00  0.00     0.005 C 
ENDBRANCH  17  18
ENDBRANCH  16  17
ENDBRANCH  15  16
ENDBRANCH  12  15
ENDBRANCH   6   9
ENDBRANCH   3   5
ENDBRANCH   1   3
BRANCH   1  20
HETATM   20  C   UNL     1      42.796 -14.387   3.197  1.00  0.00     0.035 A 
HETATM   21  C   UNL     1      41.820 -13.953   2.297  1.00  0.00     0.048 A 
HETATM   22  C   UNL     1      41.563 -14.666   1.112  1.00  0.00     0.053 A 
HETATM   23  C   UNL     1      42.287 -15.847   0.865  1.00  0.00     0.086 A 
HETATM   24  C   UNL     1      43.242 -16.317   1.777  1.00  0.00    -0.026 A 
HETATM   25  C   UNL     1      44.030 -17.568   1.511  1.00  0.00     0.051 C 
HETATM   26  C   UNL     1      43.511 -15.556   2.923  1.00  0.00     0.039 A 
BRANCH  22  27
HETATM   27  C   UNL     1      40.608 -14.161   0.130  1.00  0.00     0.183 A 
HETATM   28  O   UNL     1      40.971 -14.228  -1.190  1.00  0.00    -0.289 OA
HETATM   29  C   UNL     1      39.886 -13.732  -1.853  1.00  0.00     0.106 A 
HETATM   30  C   UNL     1      38.932 -13.389  -0.908  1.00  0.00     0.093 A 
HETATM   31  C   UNL     1      39.729 -13.594  -3.225  1.00  0.00     0.040 A 
HETATM   32  N   UNL     1      39.414 -13.638   0.354  1.00  0.00    -0.221 NA
HETATM   33  C   UNL     1      37.702 -12.880  -1.342  1.00  0.00     0.034 A 
HETATM   34  C   UNL     1      37.497 -12.735  -2.723  1.00  0.00     0.002 A 
HETATM   35  C   UNL     1      38.494 -13.081  -3.645  1.00  0.00     0.003 A 
ENDBRANCH  22  27
BRANCH  23  36
HETATM   36  O   UNL     1      42.110 -16.579  -0.284  1.00  0.00    -0.359 OA
HETATM   37  H   UNL     1      42.953 -17.027  -0.509  1.00  0.00     0.218 HD
ENDBRANCH  23  36
ENDBRANCH   1  20
TORSDOF 10
ENDMDL
MODEL 9
REMARK VINA RESULT:      -7.8      4.034      8.662
REMARK  10 active torsions:
REMARK  status: ('A' for Active; 'I' for Inactive)
REMARK    1  A    between atoms: C_2  and  C_3 
REMARK    2  A    between atoms: C_3  and  C_4 
REMARK    3  A    between atoms: C_4  and  O_5 
REMARK    4  A    between atoms: O_5  and  C_6 
REMARK    5  A    between atoms: C_9  and  C_10 
REMARK       I    between atoms: C_10  and  N_11 
REMARK    6  A    between atoms: N_11  and  C_12 
REMARK    7  A    between atoms: C_12  and  N_13 
REMARK    8  A    between atoms: N_13  and  C_14 
REMARK    9  A    between atoms: C_16  and  C_17 
REMARK   10  A    between atoms: C_26  and  O_27 
ROOT
HETATM    1  N   UNL     1      40.423 -14.425   4.474  1.00  0.00    -0.333 N 
HETATM    2  H   UNL     1      39.630 -14.982   4.169  1.00  0.00     0.168 HD
ENDROOT
BRANCH   1   3
HETATM    3  C   UNL     1      40.172 -13.076   4.467  1.00  0.00     0.179 C 
HETATM    4  S   UNL     1      41.049 -12.140   3.393  1.00  0.00    -0.040 SA
BRANCH   3   5
HETATM    5  N   UNL     1      39.302 -12.621   5.435  1.00  0.00    -0.299 N 
HETATM    6  C   UNL     1      39.318 -11.316   5.900  1.00  0.00     0.257 C 
HETATM    7  O   UNL     1      38.739 -10.404   5.320  1.00  0.00    -0.267 OA
HETATM    8  H   UNL     1      39.198 -13.320   6.159  1.00  0.00     0.171 HD
BRANCH   6   9
HETATM    9  C   UNL     1      40.038 -11.066   7.189  1.00  0.00     0.032 A 
HETATM   10  C   UNL     1      39.383 -11.032   8.430  1.00  0.00     0.020 A 
HETATM   11  C   UNL     1      40.120 -10.904   9.609  1.00  0.00     0.038 A 
HETATM   12  C   UNL     1      41.510 -10.841   9.564  1.00  0.00     0.068 A 
HETATM   13  C   UNL     1      42.170 -10.828   8.337  1.00  0.00     0.038 A 
HETATM   14  C   UNL     1      41.436 -10.947   7.153  1.00  0.00     0.020 A 
BRANCH  12  15
HETATM   15  O   UNL     1      42.153 -10.777  10.770  1.00  0.00    -0.351 OA
BRANCH  15  16
HETATM   16  C   UNL     1      43.343  -9.978  10.732  1.00  0.00     0.175 C 
BRANCH  16  17
HETATM   17  C   UNL     1      44.404 -10.680  11.576  1.00  0.00     0.026 C 
BRANCH  17  18
HETATM   18  C   UNL     1      45.167 -11.725  10.768  1.00  0.00    -0.002 C 
HETATM   19  C   UNL     1      45.700 -11.144   9.468  1.00  0.00     0.005 C 
ENDBRANCH  17  18
ENDBRANCH  16  17
ENDBRANCH  15  16
ENDBRANCH  12  15
ENDBRANCH   6   9
ENDBRANCH   3   5
ENDBRANCH   1   3
BRANCH   1  20
HETATM   20  C   UNL     1      41.512 -15.151   4.997  1.00  0.00     0.035 A 
HETATM   21  C   UNL     1      41.844 -16.442   4.581  1.00  0.00     0.048 A 
HETATM   22  C   UNL     1      43.013 -17.072   5.046  1.00  0.00     0.053 A 
HETATM   23  C   UNL     1      43.828 -16.386   5.966  1.00  0.00     0.086 A 
HETATM   24  C   UNL     1      43.488 -15.106   6.424  1.00  0.00    -0.026 A 
HETATM   25  C   UNL     1      44.363 -14.363   7.392  1.00  0.00     0.051 C 
HETATM   26  C   UNL     1      42.344 -14.486   5.902  1.00  0.00     0.039 A 
BRANCH  22  27
HETATM   27  C   UNL     1      43.405 -18.384   4.539  1.00  0.00     0.183 A 
HETATM   28  O   UNL     1      43.137 -18.653   3.223  1.00  0.00    -0.289 OA
HETATM   29  C   UNL     1      43.643 -19.907   3.036  1.00  0.00     0.106 A 
HETATM   30  C   UNL     1      44.183 -20.330   4.241  1.00  0.00     0.093 A 
HETATM   31  C   UNL     1      43.644 -20.648   1.862  1.00  0.00     0.040 A 
HETATM   32  N   UNL     1      43.999 -19.364   5.200  1.00  0.00    -0.221 NA
HETATM   33  C   UNL     1      44.798 -21.586   4.302  1.00  0.00     0.034 A 
HETATM   34  C   UNL     1      44.832 -22.364   3.134  1.00  0.00     0.002 A 
HETATM   35  C   UNL     1      44.261 -21.904   1.940  1.00  0.00     0.003 A 
ENDBRANCH  22  27
BRANCH  23  36
HETATM   36  O   UNL     1      44.999 -16.927   6.440  1.00  0.00    -0.359 OA
HETATM   37  H   UNL     1      44.787 -17.717   6.982  1.00  0.00     0.218 HD
ENDBRANCH  23  36
ENDBRANCH   1  20
TORSDOF 10
ENDMDL
MODEL 10
REMARK VINA RESULT:      -7.8      4.256      8.988
REMARK  10 active torsions:
REMARK  status: ('A' for Active; 'I' for Inactive)
REMARK    1  A    between atoms: C_2  and  C_3 
REMARK    2  A    between atoms: C_3  and  C_4 
REMARK    3  A    between atoms: C_4  and  O_5 
REMARK    4  A    between atoms: O_5  and  C_6 
REMARK    5  A    between atoms: C_9  and  C_10 
REMARK       I    between atoms: C_10  and  N_11 
REMARK    6  A    between atoms: N_11  and  C_12 
REMARK    7  A    between atoms: C_12  and  N_13 
REMARK    8  A    between atoms: N_13  and  C_14 
REMARK    9  A    between atoms: C_16  and  C_17 
REMARK   10  A    between atoms: C_26  and  O_27 
ROOT
HETATM    1  N   UNL     1      40.361 -14.880   4.760  1.00  0.00    -0.333 N 
HETATM    2  H   UNL     1      39.477 -15.334   4.969  1.00  0.00     0.168 HD
ENDROOT
BRANCH   1   3
HETATM    3  C   UNL     1      40.692 -13.900   5.662  1.00  0.00     0.179 C 
HETATM    4  S   UNL     1      42.311 -13.503   5.801  1.00  0.00    -0.040 SA
BRANCH   3   5
HETATM    5  N   UNL     1      39.659 -13.428   6.443  1.00  0.00    -0.299 N 
HETATM    6  C   UNL     1      39.333 -12.084   6.520  1.00  0.00     0.257 C 
HETATM    7  O   UNL     1      38.615 -11.531   5.694  1.00  0.00    -0.267 OA
HETATM    8  H   UNL     1      39.654 -13.910   7.332  1.00  0.00     0.171 HD
BRANCH   6   9
HETATM    9  C   UNL     1      39.860 -11.327   7.701  1.00  0.00     0.032 A 
HETATM   10  C   UNL     1      39.300 -11.437   8.983  1.00  0.00     0.020 A 
HETATM   11  C   UNL     1      39.900 -10.792  10.068  1.00  0.00     0.038 A 
HETATM   12  C   UNL     1      41.074 -10.065   9.890  1.00  0.00     0.068 A 
HETATM   13  C   UNL     1      41.615  -9.911   8.615  1.00  0.00     0.038 A 
HETATM   14  C   UNL     1      41.013 -10.546   7.525  1.00  0.00     0.020 A 
BRANCH  12  15
HETATM   15  O   UNL     1      41.624  -9.519  11.017  1.00  0.00    -0.351 OA
BRANCH  15  16
HETATM   16  C   UNL     1      42.303 -10.479  11.836  1.00  0.00     0.175 C 
BRANCH  16  17
HETATM   17  C   UNL     1      43.565  -9.817  12.384  1.00  0.00     0.026 C 
BRANCH  17  18
HETATM   18  C   UNL     1      43.387  -9.379  13.835  1.00  0.00    -0.002 C 
HETATM   19  C   UNL     1      42.268 -10.150  14.517  1.00  0.00     0.005 C 
ENDBRANCH  17  18
ENDBRANCH  16  17
ENDBRANCH  15  16
ENDBRANCH  12  15
ENDBRANCH   6   9
ENDBRANCH   3   5
ENDBRANCH   1   3
BRANCH   1  20
HETATM   20  C   UNL     1      41.117 -15.465   3.725  1.00  0.00     0.035 A 
HETATM   21  C   UNL     1      41.798 -16.676   3.863  1.00  0.00     0.048 A 
HETATM   22  C   UNL     1      42.436 -17.275   2.761  1.00  0.00     0.053 A 
HETATM   23  C   UNL     1      42.399 -16.614   1.520  1.00  0.00     0.086 A 
HETATM   24  C   UNL     1      41.753 -15.379   1.374  1.00  0.00    -0.026 A 
HETATM   25  C   UNL     1      41.696 -14.677   0.047  1.00  0.00     0.051 C 
HETATM   26  C   UNL     1      41.084 -14.833   2.478  1.00  0.00     0.039 A 
BRANCH  22  27
HETATM   27  C   UNL     1      43.068 -18.585   2.888  1.00  0.00     0.183 A 
HETATM   28  O   UNL     1      43.646 -18.889   4.093  1.00  0.00    -0.289 OA
HETATM   29  C   UNL     1      44.106 -20.162   3.923  1.00  0.00     0.106 A 
HETATM   30  C   UNL     1      43.789 -20.559   2.633  1.00  0.00     0.093 A 
HETATM   31  C   UNL     1      44.766 -20.950   4.856  1.00  0.00     0.040 A 
HETATM   32  N   UNL     1      43.155 -19.536   1.972  1.00  0.00    -0.221 NA
HETATM   33  C   UNL     1      44.131 -21.852   2.219  1.00  0.00     0.034 A 
HETATM   34  C   UNL     1      44.789 -22.687   3.136  1.00  0.00     0.002 A 
HETATM   35  C   UNL     1      45.104 -22.241   4.427  1.00  0.00     0.003 A 
ENDBRANCH  22  27
BRANCH  23  36
HETATM   36  O   UNL     1      42.973 -17.154   0.394  1.00  0.00    -0.359 OA
HETATM   37  H   UNL     1      42.573 -18.033   0.224  1.00  0.00     0.218 HD
ENDBRANCH  23  36
ENDBRANCH   1  20
TORSDOF 10
ENDMDL
