MODEL 1
REMARK VINA RESULT:      -8.5      0.000      0.000
REMARK  5 active torsions:
REMARK  status: ('A' for Active; 'I' for Inactive)
REMARK    1  A    between atoms: O_2  and  C_3 
REMARK    2  A    between atoms: C_7  and  C_8 
REMARK       I    between atoms: C_8  and  N_9 
REMARK    3  A    between atoms: N_9  and  C_10 
REMARK    4  A    between atoms: C_10  and  C_11 
REMARK    5  A    between atoms: C_11  and  C_12 
ROOT
HETATM    1  C   UNL     1      43.541 -16.954   5.988  1.00  0.00     0.251 C 
HETATM    2  N   UNL     1      43.616 -15.668   5.507  1.00  0.00    -0.356 N 
HETATM    3  O   UNL     1      43.205 -17.228   7.136  1.00  0.00    -0.268 OA
HETATM    4  H   UNL     1      44.019 -15.467   4.600  1.00  0.00     0.162 HD
ENDROOT
BRANCH   2   5
HETATM    5  C   UNL     1      43.435 -14.517   6.373  1.00  0.00     0.130 C 
BRANCH   5   6
HETATM    6  C   UNL     1      44.755 -14.039   6.978  1.00  0.00     0.098 C 
BRANCH   6   7
HETATM    7  C   UNL     1      44.534 -13.068   8.094  1.00  0.00     0.106 A 
HETATM    8  N   UNL     1      45.294 -12.890   9.158  1.00  0.00    -0.233 NA
HETATM    9  C   UNL     1      44.689 -11.888   9.881  1.00  0.00     0.085 A 
HETATM   10  C   UNL     1      43.534 -11.446   9.245  1.00  0.00     0.062 A 
HETATM   11  C   UNL     1      45.069 -11.298  11.094  1.00  0.00     0.034 A 
HETATM   12  N   UNL     1      43.453 -12.219   8.117  1.00  0.00    -0.343 N 
HETATM   13  C   UNL     1      42.721 -10.429   9.748  1.00  0.00     0.032 A 
HETATM   14  H   UNL     1      42.726 -12.167   7.419  1.00  0.00     0.167 HD
HETATM   15  C   UNL     1      43.118  -9.849  10.959  1.00  0.00     0.002 A 
HETATM   16  C   UNL     1      44.270 -10.275  11.624  1.00  0.00     0.002 A 
ENDBRANCH   6   7
ENDBRANCH   5   6
ENDBRANCH   2   5
BRANCH   1  17
HETATM   17  C   UNL     1      43.861 -18.052   5.038  1.00  0.00     0.035 A 
HETATM   18  C   UNL     1      44.299 -19.311   5.463  1.00  0.00     0.044 A 
HETATM   19  C   UNL     1      44.595 -20.297   4.517  1.00  0.00     0.070 A 
HETATM   20  C   UNL     1      44.434 -20.045   3.147  1.00  0.00     0.111 A 
HETATM   21 CL   UNL     1      45.160 -21.827   5.087  1.00  0.00    -0.081 Cl
HETATM   22  C   UNL     1      44.005 -18.780   2.728  1.00  0.00     0.070 A 
HETATM   23  C   UNL     1      43.705 -17.795   3.670  1.00  0.00     0.044 A 
HETATM   24 CL   UNL     1      43.851 -18.380   1.056  1.00  0.00    -0.081 Cl
BRANCH  20  25
HETATM   25  O   UNL     1      44.782 -21.006   2.230  1.00  0.00    -0.352 OA
HETATM   26  C   UNL     1      43.641 -21.773   1.839  1.00  0.00     0.210 C 
ENDBRANCH  20  25
ENDBRANCH   1  17
TORSDOF 5
ENDMDL
MODEL 2
REMARK VINA RESULT:      -8.5      3.559      4.795
REMARK  5 active torsions:
REMARK  status: ('A' for Active; 'I' for Inactive)
REMARK    1  A    between atoms: O_2  and  C_3 
REMARK    2  A    between atoms: C_7  and  C_8 
REMARK       I    between atoms: C_8  and  N_9 
REMARK    3  A    between atoms: N_9  and  C_10 
REMARK    4  A    between atoms: C_10  and  C_11 
REMARK    5  A    between atoms: C_11  and  C_12 
ROOT
HETATM    1  C   UNL     1      42.160 -17.531   1.648  1.00  0.00     0.251 C 
HETATM    2  N   UNL     1      42.623 -16.240   1.540  1.00  0.00    -0.356 N 
HETATM    3  O   UNL     1      41.084 -17.903   1.192  1.00  0.00    -0.268 OA
HETATM    4  H   UNL     1      43.451 -15.934   2.036  1.00  0.00     0.162 HD
ENDROOT
BRANCH   2   5
HETATM    5  C   UNL     1      41.800 -15.177   0.992  1.00  0.00     0.130 C 
BRANCH   5   6
HETATM    6  C   UNL     1      41.621 -14.023   1.978  1.00  0.00     0.098 C 
BRANCH   6   7
HETATM    7  C   UNL     1      42.193 -14.347   3.321  1.00  0.00     0.106 A 
HETATM    8  N   UNL     1      41.737 -15.229   4.190  1.00  0.00    -0.233 NA
HETATM    9  C   UNL     1      42.600 -15.173   5.260  1.00  0.00     0.085 A 
HETATM   10  C   UNL     1      43.604 -14.236   5.039  1.00  0.00     0.062 A 
HETATM   11  C   UNL     1      42.594 -15.897   6.460  1.00  0.00     0.034 A 
HETATM   12  N   UNL     1      43.317 -13.718   3.804  1.00  0.00    -0.343 N 
HETATM   13  C   UNL     1      44.625 -13.973   5.954  1.00  0.00     0.032 A 
HETATM   14  H   UNL     1      43.845 -13.001   3.329  1.00  0.00     0.167 HD
HETATM   15  C   UNL     1      44.603 -14.707   7.146  1.00  0.00     0.002 A 
HETATM   16  C   UNL     1      43.606 -15.653   7.399  1.00  0.00     0.002 A 
ENDBRANCH   6   7
ENDBRANCH   5   6
ENDBRANCH   2   5
BRANCH   1  17
HETATM   17  C   UNL     1      43.042 -18.512   2.333  1.00  0.00     0.035 A 
HETATM   18  C   UNL     1      43.315 -19.777   1.804  1.00  0.00     0.044 A 
HETATM   19  C   UNL     1      44.144 -20.657   2.506  1.00  0.00     0.070 A 
HETATM   20  C   UNL     1      44.726 -20.276   3.723  1.00  0.00     0.111 A 
HETATM   21 CL   UNL     1      44.430 -22.221   1.827  1.00  0.00    -0.081 Cl
HETATM   22  C   UNL     1      44.441 -19.012   4.252  1.00  0.00     0.070 A 
HETATM   23  C   UNL     1      43.616 -18.129   3.553  1.00  0.00     0.044 A 
HETATM   24 CL   UNL     1      45.066 -18.502   5.779  1.00  0.00    -0.081 Cl
BRANCH  20  25
HETATM   25  O   UNL     1      45.492 -21.172   4.425  1.00  0.00    -0.352 OA
HETATM   26  C   UNL     1      44.684 -21.943   5.317  1.00  0.00     0.210 C 
ENDBRANCH  20  25
ENDBRANCH   1  17
TORSDOF 5
ENDMDL
MODEL 3
REMARK VINA RESULT:      -8.3      5.705      8.646
REMARK  5 active torsions:
REMARK  status: ('A' for Active; 'I' for Inactive)
REMARK    1  A    between atoms: O_2  and  C_3 
REMARK    2  A    between atoms: C_7  and  C_8 
REMARK       I    between atoms: C_8  and  N_9 
REMARK    3  A    between atoms: N_9  and  C_10 
REMARK    4  A    between atoms: C_10  and  C_11 
REMARK    5  A    between atoms: C_11  and  C_12 
ROOT
HETATM    1  C   UNL     1      41.960 -17.151   2.322  1.00  0.00     0.251 C 
HETATM    2  N   UNL     1      42.068 -15.899   2.879  1.00  0.00    -0.356 N 
HETATM    3  O   UNL     1      41.168 -17.427   1.426  1.00  0.00    -0.268 OA
HETATM    4  H   UNL     1      42.636 -15.734   3.701  1.00  0.00     0.162 HD
ENDROOT
BRANCH   2   5
HETATM    5  C   UNL     1      41.145 -14.830   2.539  1.00  0.00     0.130 C 
BRANCH   5   6
HETATM    6  C   UNL     1      41.664 -13.966   1.390  1.00  0.00     0.098 C 
BRANCH   6   7
HETATM    7  C   UNL     1      40.945 -14.253   0.111  1.00  0.00     0.106 A 
HETATM    8  N   UNL     1      39.820 -13.706  -0.311  1.00  0.00    -0.233 NA
HETATM    9  C   UNL     1      39.568 -14.280  -1.535  1.00  0.00     0.085 A 
HETATM   10  C   UNL     1      40.559 -15.196  -1.868  1.00  0.00     0.062 A 
HETATM   11  C   UNL     1      38.508 -14.065  -2.428  1.00  0.00     0.034 A 
HETATM   12  N   UNL     1      41.417 -15.168  -0.800  1.00  0.00    -0.343 N 
HETATM   13  C   UNL     1      40.565 -15.924  -3.059  1.00  0.00     0.032 A 
HETATM   14  H   UNL     1      42.256 -15.721  -0.704  1.00  0.00     0.167 HD
HETATM   15  C   UNL     1      39.501 -15.695  -3.939  1.00  0.00     0.002 A 
HETATM   16  C   UNL     1      38.488 -14.783  -3.632  1.00  0.00     0.002 A 
ENDBRANCH   6   7
ENDBRANCH   5   6
ENDBRANCH   2   5
BRANCH   1  17
HETATM   17  C   UNL     1      42.882 -18.201   2.831  1.00  0.00     0.035 A 
HETATM   18  C   UNL     1      43.115 -19.396   2.143  1.00  0.00     0.044 A 
HETATM   19  C   UNL     1      43.986 -20.347   2.684  1.00  0.00     0.070 A 
HETATM   20  C   UNL     1      44.649 -20.104   3.895  1.00  0.00     0.111 A 
HETATM   21 CL   UNL     1      44.221 -21.822   1.813  1.00  0.00    -0.081 Cl
HETATM   22  C   UNL     1      44.403 -18.910   4.583  1.00  0.00     0.070 A 
HETATM   23  C   UNL     1      43.537 -17.957   4.046  1.00  0.00     0.044 A 
HETATM   24 CL   UNL     1      45.131 -18.576   6.113  1.00  0.00    -0.081 Cl
BRANCH  20  25
HETATM   25  O   UNL     1      45.457 -21.072   4.439  1.00  0.00    -0.352 OA
HETATM   26  C   UNL     1      44.700 -21.966   5.258  1.00  0.00     0.210 C 
ENDBRANCH  20  25
ENDBRANCH   1  17
TORSDOF 5
ENDMDL
MODEL 4
REMARK VINA RESULT:      -8.2      6.090      7.937
REMARK  5 active torsions:
REMARK  status: ('A' for Active; 'I' for Inactive)
REMARK    1  A    between atoms: O_2  and  C_3 
REMARK    2  A    between atoms: C_7  and  C_8 
REMARK       I    between atoms: C_8  and  N_9 
REMARK    3  A    between atoms: N_9  and  C_10 
REMARK    4  A    between atoms: C_10  and  C_11 
REMARK    5  A    between atoms: C_11  and  C_12 
ROOT
HETATM    1  C   UNL     1      41.867 -17.548   1.923  1.00  0.00     0.251 C 
HETATM    2  N   UNL     1      40.843 -17.019   2.672  1.00  0.00    -0.356 N 
HETATM    3  O   UNL     1      42.035 -17.295   0.734  1.00  0.00    -0.268 OA
HETATM    4  H   UNL     1      40.654 -17.345   3.613  1.00  0.00     0.162 HD
ENDROOT
BRANCH   2   5
HETATM    5  C   UNL     1      39.790 -16.220   2.071  1.00  0.00     0.130 C 
BRANCH   5   6
HETATM    6  C   UNL     1      40.111 -14.725   2.106  1.00  0.00     0.098 C 
BRANCH   6   7
HETATM    7  C   UNL     1      40.654 -14.244   0.799  1.00  0.00     0.106 A 
HETATM    8  N   UNL     1      41.471 -13.226   0.600  1.00  0.00    -0.233 NA
HETATM    9  C   UNL     1      41.691 -13.189  -0.757  1.00  0.00     0.085 A 
HETATM   10  C   UNL     1      40.993 -14.204  -1.401  1.00  0.00     0.062 A 
HETATM   11  C   UNL     1      42.480 -12.314  -1.516  1.00  0.00     0.034 A 
HETATM   12  N   UNL     1      40.334 -14.854  -0.392  1.00  0.00    -0.343 N 
HETATM   13  C   UNL     1      41.036 -14.411  -2.781  1.00  0.00     0.032 A 
HETATM   14  H   UNL     1      39.723 -15.650  -0.503  1.00  0.00     0.167 HD
HETATM   15  C   UNL     1      41.832 -13.529  -3.522  1.00  0.00     0.002 A 
HETATM   16  C   UNL     1      42.541 -12.497  -2.905  1.00  0.00     0.002 A 
ENDBRANCH   6   7
ENDBRANCH   5   6
ENDBRANCH   2   5
BRANCH   1  17
HETATM   17  C   UNL     1      42.822 -18.449   2.621  1.00  0.00     0.035 A 
HETATM   18  C   UNL     1      43.394 -18.127   3.856  1.00  0.00     0.044 A 
HETATM   19  C   UNL     1      44.295 -19.014   4.453  1.00  0.00     0.070 A 
HETATM   20  C   UNL     1      44.613 -20.234   3.839  1.00  0.00     0.111 A 
HETATM   21 CL   UNL     1      44.999 -18.561   5.966  1.00  0.00    -0.081 Cl
HETATM   22  C   UNL     1      44.044 -20.545   2.598  1.00  0.00     0.070 A 
HETATM   23  C   UNL     1      43.142 -19.664   2.001  1.00  0.00     0.044 A 
HETATM   24 CL   UNL     1      44.443 -21.997   1.754  1.00  0.00    -0.081 Cl
BRANCH  20  25
HETATM   25  O   UNL     1      45.541 -21.066   4.413  1.00  0.00    -0.352 OA
HETATM   26  C   UNL     1      44.905 -22.057   5.223  1.00  0.00     0.210 C 
ENDBRANCH  20  25
ENDBRANCH   1  17
TORSDOF 5
ENDMDL
MODEL 5
REMARK VINA RESULT:      -8.2      6.095      7.975
REMARK  5 active torsions:
REMARK  status: ('A' for Active; 'I' for Inactive)
REMARK    1  A    between atoms: O_2  and  C_3 
REMARK    2  A    between atoms: C_7  and  C_8 
REMARK       I    between atoms: C_8  and  N_9 
REMARK    3  A    between atoms: N_9  and  C_10 
REMARK    4  A    between atoms: C_10  and  C_11 
REMARK    5  A    between atoms: C_11  and  C_12 
ROOT
HETATM    1  C   UNL     1      41.979 -17.596   1.907  1.00  0.00     0.251 C 
HETATM    2  N   UNL     1      40.966 -17.095   2.691  1.00  0.00    -0.356 N 
HETATM    3  O   UNL     1      42.143 -17.281   0.733  1.00  0.00    -0.268 OA
HETATM    4  H   UNL     1      40.779 -17.470   3.614  1.00  0.00     0.162 HD
ENDROOT
BRANCH   2   5
HETATM    5  C   UNL     1      39.920 -16.252   2.141  1.00  0.00     0.130 C 
BRANCH   5   6
HETATM    6  C   UNL     1      40.299 -14.771   2.174  1.00  0.00     0.098 C 
BRANCH   6   7
HETATM    7  C   UNL     1      40.767 -14.289   0.838  1.00  0.00     0.106 A 
HETATM    8  N   UNL     1      41.576 -13.275   0.595  1.00  0.00    -0.233 NA
HETATM    9  C   UNL     1      41.717 -13.235  -0.773  1.00  0.00     0.085 A 
HETATM   10  C   UNL     1      40.978 -14.245  -1.378  1.00  0.00     0.062 A 
HETATM   11  C   UNL     1      42.465 -12.362  -1.575  1.00  0.00     0.034 A 
HETATM   12  N   UNL     1      40.376 -14.895  -0.333  1.00  0.00    -0.343 N 
HETATM   13  C   UNL     1      40.941 -14.449  -2.758  1.00  0.00     0.032 A 
HETATM   14  H   UNL     1      39.756 -15.688  -0.411  1.00  0.00     0.167 HD
HETATM   15  C   UNL     1      41.696 -13.569  -3.543  1.00  0.00     0.002 A 
HETATM   16  C   UNL     1      42.445 -12.541  -2.965  1.00  0.00     0.002 A 
ENDBRANCH   6   7
ENDBRANCH   5   6
ENDBRANCH   2   5
BRANCH   1  17
HETATM   17  C   UNL     1      42.927 -18.544   2.550  1.00  0.00     0.035 A 
HETATM   18  C   UNL     1      43.288 -19.761   1.963  1.00  0.00     0.044 A 
HETATM   19  C   UNL     1      44.176 -20.613   2.626  1.00  0.00     0.070 A 
HETATM   20  C   UNL     1      44.729 -20.250   3.862  1.00  0.00     0.111 A 
HETATM   21 CL   UNL     1      44.571 -22.120   1.875  1.00  0.00    -0.081 Cl
HETATM   22  C   UNL     1      44.356 -19.035   4.449  1.00  0.00     0.070 A 
HETATM   23  C   UNL     1      43.473 -18.180   3.788  1.00  0.00     0.044 A 
HETATM   24 CL   UNL     1      44.944 -18.556   6.000  1.00  0.00    -0.081 Cl
BRANCH  20  25
HETATM   25  O   UNL     1      45.556 -21.123   4.524  1.00  0.00    -0.352 OA
HETATM   26  C   UNL     1      44.798 -22.027   5.332  1.00  0.00     0.210 C 
ENDBRANCH  20  25
ENDBRANCH   1  17
TORSDOF 5
ENDMDL
MODEL 6
REMARK VINA RESULT:      -8.1      2.428      3.506
REMARK  5 active torsions:
REMARK  status: ('A' for Active; 'I' for Inactive)
REMARK    1  A    between atoms: O_2  and  C_3 
REMARK    2  A    between atoms: C_7  and  C_8 
REMARK       I    between atoms: C_8  and  N_9 
REMARK    3  A    between atoms: N_9  and  C_10 
REMARK    4  A    between atoms: C_10  and  C_11 
REMARK    5  A    between atoms: C_11  and  C_12 
ROOT
HETATM    1  C   UNL     1      44.813 -14.061   7.002  1.00  0.00     0.251 C 
HETATM    2  N   UNL     1      44.293 -13.679   8.216  1.00  0.00    -0.356 N 
HETATM    3  O   UNL     1      45.766 -13.504   6.469  1.00  0.00    -0.268 OA
HETATM    4  H   UNL     1      43.429 -14.074   8.568  1.00  0.00     0.162 HD
ENDROOT
BRANCH   2   5
HETATM    5  C   UNL     1      44.752 -12.484   8.901  1.00  0.00     0.130 C 
BRANCH   5   6
HETATM    6  C   UNL     1      43.684 -11.391   8.931  1.00  0.00     0.098 C 
BRANCH   6   7
HETATM    7  C   UNL     1      43.341 -10.989  10.330  1.00  0.00     0.106 A 
HETATM    8  N   UNL     1      44.024 -10.180  11.117  1.00  0.00    -0.233 NA
HETATM    9  C   UNL     1      43.308 -10.113  12.289  1.00  0.00     0.085 A 
HETATM   10  C   UNL     1      42.163 -10.899  12.217  1.00  0.00     0.062 A 
HETATM   11  C   UNL     1      43.571  -9.397  13.465  1.00  0.00     0.034 A 
HETATM   12  N   UNL     1      42.213 -11.453  10.965  1.00  0.00    -0.343 N 
HETATM   13  C   UNL     1      41.243 -11.014  13.260  1.00  0.00     0.032 A 
HETATM   14  H   UNL     1      41.532 -12.088  10.575  1.00  0.00     0.167 HD
HETATM   15  C   UNL     1      41.521 -10.290  14.425  1.00  0.00     0.002 A 
HETATM   16  C   UNL     1      42.665  -9.495  14.530  1.00  0.00     0.002 A 
ENDBRANCH   6   7
ENDBRANCH   5   6
ENDBRANCH   2   5
BRANCH   1  17
HETATM   17  C   UNL     1      44.185 -15.233   6.335  1.00  0.00     0.035 A 
HETATM   18  C   UNL     1      44.379 -16.545   6.778  1.00  0.00     0.044 A 
HETATM   19  C   UNL     1      43.769 -17.603   6.098  1.00  0.00     0.070 A 
HETATM   20  C   UNL     1      42.943 -17.362   4.992  1.00  0.00     0.111 A 
HETATM   21 CL   UNL     1      44.062 -19.210   6.664  1.00  0.00    -0.081 Cl
HETATM   22  C   UNL     1      42.760 -16.047   4.547  1.00  0.00     0.070 A 
HETATM   23  C   UNL     1      43.365 -14.988   5.225  1.00  0.00     0.044 A 
HETATM   24 CL   UNL     1      41.812 -15.682   3.151  1.00  0.00    -0.081 Cl
BRANCH  20  25
HETATM   25  O   UNL     1      42.397 -18.416   4.303  1.00  0.00    -0.352 OA
HETATM   26  C   UNL     1      43.289 -18.875   3.286  1.00  0.00     0.210 C 
ENDBRANCH  20  25
ENDBRANCH   1  17
TORSDOF 5
ENDMDL
MODEL 7
REMARK VINA RESULT:      -8.0      4.623     10.010
REMARK  5 active torsions:
REMARK  status: ('A' for Active; 'I' for Inactive)
REMARK    1  A    between atoms: O_2  and  C_3 
REMARK    2  A    between atoms: C_7  and  C_8 
REMARK       I    between atoms: C_8  and  N_9 
REMARK    3  A    between atoms: N_9  and  C_10 
REMARK    4  A    between atoms: C_10  and  C_11 
REMARK    5  A    between atoms: C_11  and  C_12 
ROOT
HETATM    1  C   UNL     1      44.608 -12.571   8.739  1.00  0.00     0.251 C 
HETATM    2  N   UNL     1      43.987 -13.215   7.694  1.00  0.00    -0.356 N 
HETATM    3  O   UNL     1      45.759 -12.807   9.090  1.00  0.00    -0.268 OA
HETATM    4  H   UNL     1      42.999 -13.091   7.510  1.00  0.00     0.162 HD
ENDROOT
BRANCH   2   5
HETATM    5  C   UNL     1      44.610 -14.332   7.008  1.00  0.00     0.130 C 
BRANCH   5   6
HETATM    6  C   UNL     1      44.004 -15.673   7.425  1.00  0.00     0.098 C 
BRANCH   6   7
HETATM    7  C   UNL     1      44.008 -16.657   6.299  1.00  0.00     0.106 A 
HETATM    8  N   UNL     1      43.455 -16.512   5.110  1.00  0.00    -0.233 NA
HETATM    9  C   UNL     1      43.737 -17.672   4.427  1.00  0.00     0.085 A 
HETATM   10  C   UNL     1      44.478 -18.545   5.216  1.00  0.00     0.062 A 
HETATM   11  C   UNL     1      43.395 -18.054   3.123  1.00  0.00     0.034 A 
HETATM   12  N   UNL     1      44.628 -17.881   6.405  1.00  0.00    -0.343 N 
HETATM   13  C   UNL     1      44.913 -19.796   4.777  1.00  0.00     0.032 A 
HETATM   14  H   UNL     1      45.117 -18.229   7.216  1.00  0.00     0.167 HD
HETATM   15  C   UNL     1      44.564 -20.159   3.471  1.00  0.00     0.002 A 
HETATM   16  C   UNL     1      43.817 -19.306   2.655  1.00  0.00     0.002 A 
ENDBRANCH   6   7
ENDBRANCH   5   6
ENDBRANCH   2   5
BRANCH   1  17
HETATM   17  C   UNL     1      43.829 -11.519   9.445  1.00  0.00     0.035 A 
HETATM   18  C   UNL     1      44.086 -11.153  10.770  1.00  0.00     0.044 A 
HETATM   19  C   UNL     1      43.308 -10.164  11.378  1.00  0.00     0.070 A 
HETATM   20  C   UNL     1      42.289  -9.516  10.667  1.00  0.00     0.111 A 
HETATM   21 CL   UNL     1      43.644  -9.766  13.027  1.00  0.00    -0.081 Cl
HETATM   22  C   UNL     1      42.030  -9.894   9.344  1.00  0.00     0.070 A 
HETATM   23  C   UNL     1      42.807 -10.878   8.732  1.00  0.00     0.044 A 
HETATM   24 CL   UNL     1      40.747  -9.187   8.431  1.00  0.00    -0.081 Cl
BRANCH  20  25
HETATM   25  O   UNL     1      41.499  -8.587  11.297  1.00  0.00    -0.352 OA
HETATM   26  C   UNL     1      40.374  -9.213  11.918  1.00  0.00     0.210 C 
ENDBRANCH  20  25
ENDBRANCH   1  17
TORSDOF 5
ENDMDL
MODEL 8
REMARK VINA RESULT:      -7.9      4.669      8.615
REMARK  5 active torsions:
REMARK  status: ('A' for Active; 'I' for Inactive)
REMARK    1  A    between atoms: O_2  and  C_3 
REMARK    2  A    between atoms: C_7  and  C_8 
REMARK       I    between atoms: C_8  and  N_9 
REMARK    3  A    between atoms: N_9  and  C_10 
REMARK    4  A    between atoms: C_10  and  C_11 
REMARK    5  A    between atoms: C_11  and  C_12 
ROOT
HETATM    1  C   UNL     1      41.125 -15.909   6.131  1.00  0.00     0.251 C 
HETATM    2  N   UNL     1      42.394 -15.707   6.621  1.00  0.00    -0.356 N 
HETATM    3  O   UNL     1      40.460 -16.911   6.369  1.00  0.00    -0.268 OA
HETATM    4  H   UNL     1      42.965 -14.933   6.303  1.00  0.00     0.162 HD
ENDROOT
BRANCH   2   5
HETATM    5  C   UNL     1      43.103 -16.741   7.354  1.00  0.00     0.130 C 
BRANCH   5   6
HETATM    6  C   UNL     1      44.445 -17.086   6.708  1.00  0.00     0.098 C 
BRANCH   6   7
HETATM    7  C   UNL     1      44.280 -18.024   5.555  1.00  0.00     0.106 A 
HETATM    8  N   UNL     1      43.646 -17.792   4.422  1.00  0.00    -0.233 NA
HETATM    9  C   UNL     1      43.779 -18.943   3.681  1.00  0.00     0.085 A 
HETATM   10  C   UNL     1      44.510 -19.899   4.377  1.00  0.00     0.062 A 
HETATM   11  C   UNL     1      43.304 -19.247   2.398  1.00  0.00     0.034 A 
HETATM   12  N   UNL     1      44.808 -19.294   5.570  1.00  0.00    -0.343 N 
HETATM   13  C   UNL     1      44.808 -21.163   3.864  1.00  0.00     0.032 A 
HETATM   14  H   UNL     1      45.332 -19.709   6.326  1.00  0.00     0.167 HD
HETATM   15  C   UNL     1      44.327 -21.448   2.581  1.00  0.00     0.002 A 
HETATM   16  C   UNL     1      43.587 -20.510   1.858  1.00  0.00     0.002 A 
ENDBRANCH   6   7
ENDBRANCH   5   6
ENDBRANCH   2   5
BRANCH   1  17
HETATM   17  C   UNL     1      40.542 -14.826   5.293  1.00  0.00     0.035 A 
HETATM   18  C   UNL     1      40.265 -13.551   5.796  1.00  0.00     0.044 A 
HETATM   19  C   UNL     1      39.706 -12.583   4.958  1.00  0.00     0.070 A 
HETATM   20  C   UNL     1      39.443 -12.868   3.610  1.00  0.00     0.111 A 
HETATM   21 CL   UNL     1      39.354 -11.030   5.631  1.00  0.00    -0.081 Cl
HETATM   22  C   UNL     1      39.713 -14.149   3.116  1.00  0.00     0.070 A 
HETATM   23  C   UNL     1      40.275 -15.117   3.948  1.00  0.00     0.044 A 
HETATM   24 CL   UNL     1      39.351 -14.590   1.486  1.00  0.00    -0.081 Cl
BRANCH  20  25
HETATM   25  O   UNL     1      38.842 -11.923   2.817  1.00  0.00    -0.352 OA
HETATM   26  C   UNL     1      39.820 -11.166   2.098  1.00  0.00     0.210 C 
ENDBRANCH  20  25
ENDBRANCH   1  17
TORSDOF 5
ENDMDL
MODEL 9
REMARK VINA RESULT:      -7.9      6.214      8.094
REMARK  5 active torsions:
REMARK  status: ('A' for Active; 'I' for Inactive)
REMARK    1  A    between atoms: O_2  and  C_3 
REMARK    2  A    between atoms: C_7  and  C_8 
REMARK       I    between atoms: C_8  and  N_9 
REMARK    3  A    between atoms: N_9  and  C_10 
REMARK    4  A    between atoms: C_10  and  C_11 
REMARK    5  A    between atoms: C_11  and  C_12 
ROOT
HETATM    1  C   UNL     1      41.928 -17.362   1.865  1.00  0.00     0.251 C 
HETATM    2  N   UNL     1      42.402 -16.775   0.715  1.00  0.00    -0.356 N 
HETATM    3  O   UNL     1      40.798 -17.176   2.303  1.00  0.00    -0.268 OA
HETATM    4  H   UNL     1      43.378 -16.846   0.451  1.00  0.00     0.162 HD
ENDROOT
BRANCH   2   5
HETATM    5  C   UNL     1      41.636 -15.772  -0.001  1.00  0.00     0.130 C 
BRANCH   5   6
HETATM    6  C   UNL     1      41.728 -14.397   0.662  1.00  0.00     0.098 C 
BRANCH   6   7
HETATM    7  C   UNL     1      41.966 -13.313  -0.340  1.00  0.00     0.106 A 
HETATM    8  N   UNL     1      42.398 -12.088  -0.102  1.00  0.00    -0.233 NA
HETATM    9  C   UNL     1      42.467 -11.476  -1.332  1.00  0.00     0.085 A 
HETATM   10  C   UNL     1      42.068 -12.345  -2.342  1.00  0.00     0.062 A 
HETATM   11  C   UNL     1      42.865 -10.175  -1.668  1.00  0.00     0.034 A 
HETATM   12  N   UNL     1      41.745 -13.502  -1.684  1.00  0.00    -0.343 N 
HETATM   13  C   UNL     1      42.046 -11.995  -3.693  1.00  0.00     0.032 A 
HETATM   14  H   UNL     1      41.410 -14.351  -2.115  1.00  0.00     0.167 HD
HETATM   15  C   UNL     1      42.449 -10.692  -4.010  1.00  0.00     0.002 A 
HETATM   16  C   UNL     1      42.851  -9.795  -3.018  1.00  0.00     0.002 A 
ENDBRANCH   6   7
ENDBRANCH   5   6
ENDBRANCH   2   5
BRANCH   1  17
HETATM   17  C   UNL     1      42.846 -18.288   2.581  1.00  0.00     0.035 A 
HETATM   18  C   UNL     1      43.423 -17.971   3.815  1.00  0.00     0.044 A 
HETATM   19  C   UNL     1      44.287 -18.882   4.430  1.00  0.00     0.070 A 
HETATM   20  C   UNL     1      44.562 -20.122   3.834  1.00  0.00     0.111 A 
HETATM   21 CL   UNL     1      44.999 -18.435   5.940  1.00  0.00    -0.081 Cl
HETATM   22  C   UNL     1      43.989 -20.428   2.595  1.00  0.00     0.070 A 
HETATM   23  C   UNL     1      43.123 -19.523   1.980  1.00  0.00     0.044 A 
HETATM   24 CL   UNL     1      44.338 -21.906   1.772  1.00  0.00    -0.081 Cl
BRANCH  20  25
HETATM   25  O   UNL     1      45.456 -20.980   4.424  1.00  0.00    -0.352 OA
HETATM   26  C   UNL     1      44.779 -21.927   5.255  1.00  0.00     0.210 C 
ENDBRANCH  20  25
ENDBRANCH   1  17
TORSDOF 5
ENDMDL
MODEL 10
REMARK VINA RESULT:      -7.8      2.727      4.630
REMARK  5 active torsions:
REMARK  status: ('A' for Active; 'I' for Inactive)
REMARK    1  A    between atoms: O_2  and  C_3 
REMARK    2  A    between atoms: C_7  and  C_8 
REMARK       I    between atoms: C_8  and  N_9 
REMARK    3  A    between atoms: N_9  and  C_10 
REMARK    4  A    between atoms: C_10  and  C_11 
REMARK    5  A    between atoms: C_11  and  C_12 
ROOT
HETATM    1  C   UNL     1      43.734 -17.398   6.481  1.00  0.00     0.251 C 
HETATM    2  N   UNL     1      44.431 -16.214   6.415  1.00  0.00    -0.356 N 
HETATM    3  O   UNL     1      42.897 -17.643   7.343  1.00  0.00    -0.268 OA
HETATM    4  H   UNL     1      45.204 -16.092   5.772  1.00  0.00     0.162 HD
ENDROOT
BRANCH   2   5
HETATM    5  C   UNL     1      44.327 -15.209   7.457  1.00  0.00     0.130 C 
BRANCH   5   6
HETATM    6  C   UNL     1      43.925 -13.843   6.900  1.00  0.00     0.098 C 
BRANCH   6   7
HETATM    7  C   UNL     1      43.044 -13.971   5.699  1.00  0.00     0.106 A 
HETATM    8  N   UNL     1      43.423 -14.096   4.441  1.00  0.00    -0.233 NA
HETATM    9  C   UNL     1      42.261 -14.191   3.712  1.00  0.00     0.085 A 
HETATM   10  C   UNL     1      41.147 -14.122   4.543  1.00  0.00     0.062 A 
HETATM   11  C   UNL     1      42.074 -14.342   2.331  1.00  0.00     0.034 A 
HETATM   12  N   UNL     1      41.672 -13.972   5.799  1.00  0.00    -0.343 N 
HETATM   13  C   UNL     1      39.834 -14.200   4.076  1.00  0.00     0.032 A 
HETATM   14  H   UNL     1      41.141 -13.884   6.653  1.00  0.00     0.167 HD
HETATM   15  C   UNL     1      39.668 -14.353   2.694  1.00  0.00     0.002 A 
HETATM   16  C   UNL     1      40.766 -14.422   1.834  1.00  0.00     0.002 A 
ENDBRANCH   6   7
ENDBRANCH   5   6
ENDBRANCH   2   5
BRANCH   1  17
HETATM   17  C   UNL     1      44.008 -18.405   5.421  1.00  0.00     0.035 A 
HETATM   18  C   UNL     1      44.454 -19.698   5.708  1.00  0.00     0.044 A 
HETATM   19  C   UNL     1      44.704 -20.593   4.663  1.00  0.00     0.070 A 
HETATM   20  C   UNL     1      44.488 -20.215   3.330  1.00  0.00     0.111 A 
HETATM   21 CL   UNL     1      45.282 -22.171   5.065  1.00  0.00    -0.081 Cl
HETATM   22  C   UNL     1      44.051 -18.915   3.049  1.00  0.00     0.070 A 
HETATM   23  C   UNL     1      43.797 -18.021   4.089  1.00  0.00     0.044 A 
HETATM   24 CL   UNL     1      43.830 -18.361   1.429  1.00  0.00    -0.081 Cl
BRANCH  20  25
HETATM   25  O   UNL     1      44.792 -21.087   2.315  1.00  0.00    -0.352 OA
HETATM   26  C   UNL     1      43.622 -21.777   1.870  1.00  0.00     0.210 C 
ENDBRANCH  20  25
ENDBRANCH   1  17
TORSDOF 5
ENDMDL
