MODEL 1
REMARK VINA RESULT:      -8.4      0.000      0.000
REMARK  6 active torsions:
REMARK  status: ('A' for Active; 'I' for Inactive)
REMARK    1  A    between atoms: C_8  and  C_9 
REMARK    2  A    between atoms: C_9  and  C_10 
REMARK    3  A    between atoms: C_10  and  N_11 
REMARK    4  A    between atoms: C_10  and  C_19 
REMARK       I    between atoms: N_11  and  C_12 
REMARK    5  A    between atoms: C_12  and  C_13 
REMARK       I    between atoms: C_19  and  N_20 
REMARK    6  A    between atoms: N_20  and  C_21 
ROOT
HETATM    1  C   UNL     1      43.573 -14.846   5.949  1.00  0.00     0.181 C 
ENDROOT
BRANCH   1   2
HETATM    2  C   UNL     1      43.043 -16.217   6.415  1.00  0.00     0.075 C 
BRANCH   2   3
HETATM    3  C   UNL     1      43.737 -17.407   5.818  1.00  0.00    -0.028 A 
HETATM    4  C   UNL     1      43.487 -17.980   4.527  1.00  0.00    -0.002 A 
HETATM    5  C   UNL     1      42.624 -17.661   3.457  1.00  0.00     0.014 A 
HETATM    6  C   UNL     1      44.320 -19.090   4.394  1.00  0.00     0.042 A 
HETATM    7  C   UNL     1      42.621 -18.461   2.308  1.00  0.00     0.001 A 
HETATM    8  C   UNL     1      43.460 -19.567   2.212  1.00  0.00     0.002 A 
HETATM    9  C   UNL     1      44.327 -19.904   3.255  1.00  0.00     0.030 A 
HETATM   10  N   UNL     1      45.067 -19.178   5.545  1.00  0.00    -0.365 N 
HETATM   11  H   UNL     1      45.761 -19.889   5.726  1.00  0.00     0.165 HD
HETATM   12  C   UNL     1      44.738 -18.161   6.399  1.00  0.00     0.096 A 
ENDBRANCH   2   3
ENDBRANCH   1   2
BRANCH   1  13
HETATM   13  N   UNL     1      43.610 -13.869   7.039  1.00  0.00    -0.343 N 
HETATM   14  C   UNL     1      44.761 -13.271   7.487  1.00  0.00     0.259 C 
HETATM   15  O   UNL     1      45.847 -13.513   6.962  1.00  0.00    -0.267 OA
HETATM   16  H   UNL     1      42.717 -13.569   7.420  1.00  0.00     0.163 HD
BRANCH  14  17
HETATM   17  C   UNL     1      44.610 -12.367   8.619  1.00  0.00     0.072 A 
HETATM   18  S   UNL     1      43.246 -11.341   8.802  1.00  0.00    -0.097 SA
HETATM   19  C   UNL     1      43.825 -10.714  10.282  1.00  0.00     0.050 A 
HETATM   20  C   UNL     1      45.034 -11.267  10.639  1.00  0.00     0.009 A 
HETATM   21  C   UNL     1      45.488 -12.216   9.679  1.00  0.00     0.025 A 
ENDBRANCH  14  17
ENDBRANCH   1  13
BRANCH   1  22
HETATM   22  C   UNL     1      42.770 -14.197   4.789  1.00  0.00     0.245 C 
HETATM   23  N   UNL     1      41.454 -14.608   4.680  1.00  0.00    -0.324 N 
HETATM   24  H   UNL     1      41.074 -15.165   5.433  1.00  0.00     0.169 HD
HETATM   25  O   UNL     1      43.326 -13.414   4.015  1.00  0.00    -0.271 OA
BRANCH  23  26
HETATM   26  C   UNL     1      40.511 -14.161   3.728  1.00  0.00     0.052 A 
HETATM   27  C   UNL     1      39.950 -12.887   3.684  1.00  0.00     0.145 A 
HETATM   28  N   UNL     1      39.041 -12.486   2.756  1.00  0.00    -0.271 NA
HETATM   29  C   UNL     1      38.669 -13.395   1.833  1.00  0.00     0.116 A 
HETATM   30  C   UNL     1      39.166 -14.685   1.787  1.00  0.00     0.021 A 
HETATM   31  C   UNL     1      40.103 -15.067   2.746  1.00  0.00     0.032 A 
ENDBRANCH  23  26
ENDBRANCH   1  22
TORSDOF 6
ENDMDL
MODEL 2
REMARK VINA RESULT:      -8.4      3.787      8.024
REMARK  6 active torsions:
REMARK  status: ('A' for Active; 'I' for Inactive)
REMARK    1  A    between atoms: C_8  and  C_9 
REMARK    2  A    between atoms: C_9  and  C_10 
REMARK    3  A    between atoms: C_10  and  N_11 
REMARK    4  A    between atoms: C_10  and  C_19 
REMARK       I    between atoms: N_11  and  C_12 
REMARK    5  A    between atoms: C_12  and  C_13 
REMARK       I    between atoms: C_19  and  N_20 
REMARK    6  A    between atoms: N_20  and  C_21 
ROOT
HETATM    1  C   UNL     1      42.844 -15.793   1.660  1.00  0.00     0.181 C 
ENDROOT
BRANCH   1   2
HETATM    2  C   UNL     1      41.982 -15.502   2.905  1.00  0.00     0.075 C 
BRANCH   2   3
HETATM    3  C   UNL     1      42.747 -15.112   4.135  1.00  0.00    -0.028 A 
HETATM    4  C   UNL     1      42.857 -15.872   5.347  1.00  0.00    -0.002 A 
HETATM    5  C   UNL     1      42.373 -17.129   5.770  1.00  0.00     0.014 A 
HETATM    6  C   UNL     1      43.622 -15.125   6.242  1.00  0.00     0.042 A 
HETATM    7  C   UNL     1      42.663 -17.582   7.062  1.00  0.00     0.001 A 
HETATM    8  C   UNL     1      43.422 -16.807   7.932  1.00  0.00     0.002 A 
HETATM    9  C   UNL     1      43.918 -15.561   7.539  1.00  0.00     0.030 A 
HETATM   10  N   UNL     1      43.986 -13.967   5.596  1.00  0.00    -0.365 N 
HETATM   11  H   UNL     1      44.549 -13.234   6.005  1.00  0.00     0.165 HD
HETATM   12  C   UNL     1      43.481 -13.957   4.324  1.00  0.00     0.096 A 
ENDBRANCH   2   3
ENDBRANCH   1   2
BRANCH   1  13
HETATM   13  N   UNL     1      42.050 -15.815   0.430  1.00  0.00    -0.343 N 
HETATM   14  C   UNL     1      41.612 -14.686  -0.215  1.00  0.00     0.259 C 
HETATM   15  O   UNL     1      41.897 -13.565   0.206  1.00  0.00    -0.267 OA
HETATM   16  H   UNL     1      41.891 -16.723   0.000  1.00  0.00     0.163 HD
BRANCH  14  17
HETATM   17  C   UNL     1      40.786 -14.906  -1.393  1.00  0.00     0.072 A 
HETATM   18  S   UNL     1      39.416 -13.937  -1.752  1.00  0.00    -0.097 SA
HETATM   19  C   UNL     1      39.094 -14.795  -3.193  1.00  0.00     0.050 A 
HETATM   20  C   UNL     1      40.005 -15.804  -3.407  1.00  0.00     0.009 A 
HETATM   21  C   UNL     1      40.977 -15.870  -2.368  1.00  0.00     0.025 A 
ENDBRANCH  14  17
ENDBRANCH   1  13
BRANCH   1  22
HETATM   22  C   UNL     1      43.632 -17.131   1.712  1.00  0.00     0.245 C 
HETATM   23  N   UNL     1      43.062 -18.122   2.490  1.00  0.00    -0.324 N 
HETATM   24  H   UNL     1      42.124 -17.966   2.834  1.00  0.00     0.169 HD
HETATM   25  O   UNL     1      44.711 -17.235   1.124  1.00  0.00    -0.271 OA
BRANCH  23  26
HETATM   26  C   UNL     1      43.565 -19.426   2.689  1.00  0.00     0.052 A 
HETATM   27  C   UNL     1      44.325 -19.842   3.780  1.00  0.00     0.145 A 
HETATM   28  N   UNL     1      44.799 -21.105   3.942  1.00  0.00    -0.271 NA
HETATM   29  C   UNL     1      44.511 -21.995   2.971  1.00  0.00     0.116 A 
HETATM   30  C   UNL     1      43.764 -21.686   1.849  1.00  0.00     0.021 A 
HETATM   31  C   UNL     1      43.283 -20.385   1.712  1.00  0.00     0.032 A 
ENDBRANCH  23  26
ENDBRANCH   1  22
TORSDOF 6
ENDMDL
MODEL 3
REMARK VINA RESULT:      -8.3      3.913      7.402
REMARK  6 active torsions:
REMARK  status: ('A' for Active; 'I' for Inactive)
REMARK    1  A    between atoms: C_8  and  C_9 
REMARK    2  A    between atoms: C_9  and  C_10 
REMARK    3  A    between atoms: C_10  and  N_11 
REMARK    4  A    between atoms: C_10  and  C_19 
REMARK       I    between atoms: N_11  and  C_12 
REMARK    5  A    between atoms: C_12  and  C_13 
REMARK       I    between atoms: C_19  and  N_20 
REMARK    6  A    between atoms: N_20  and  C_21 
ROOT
HETATM    1  C   UNL     1      42.890 -16.009   2.314  1.00  0.00     0.181 C 
ENDROOT
BRANCH   1   2
HETATM    2  C   UNL     1      43.491 -15.199   3.480  1.00  0.00     0.075 C 
BRANCH   2   3
HETATM    3  C   UNL     1      42.960 -15.547   4.840  1.00  0.00    -0.028 A 
HETATM    4  C   UNL     1      43.546 -16.466   5.773  1.00  0.00    -0.002 A 
HETATM    5  C   UNL     1      44.710 -17.263   5.774  1.00  0.00     0.014 A 
HETATM    6  C   UNL     1      42.709 -16.519   6.888  1.00  0.00     0.042 A 
HETATM    7  C   UNL     1      44.987 -18.083   6.874  1.00  0.00     0.001 A 
HETATM    8  C   UNL     1      44.126 -18.119   7.966  1.00  0.00     0.002 A 
HETATM    9  C   UNL     1      42.968 -17.336   7.996  1.00  0.00     0.030 A 
HETATM   10  N   UNL     1      41.669 -15.650   6.657  1.00  0.00    -0.365 N 
HETATM   11  H   UNL     1      40.909 -15.482   7.301  1.00  0.00     0.165 HD
HETATM   12  C   UNL     1      41.820 -15.047   5.438  1.00  0.00     0.096 A 
ENDBRANCH   2   3
ENDBRANCH   1   2
BRANCH   1  13
HETATM   13  N   UNL     1      41.553 -15.538   1.945  1.00  0.00    -0.343 N 
HETATM   14  C   UNL     1      41.233 -15.052   0.702  1.00  0.00     0.259 C 
HETATM   15  O   UNL     1      42.070 -15.012  -0.198  1.00  0.00    -0.267 OA
HETATM   16  H   UNL     1      40.816 -15.658   2.634  1.00  0.00     0.163 HD
BRANCH  14  17
HETATM   17  C   UNL     1      39.867 -14.576   0.538  1.00  0.00     0.072 A 
HETATM   18  S   UNL     1      39.338 -13.762  -0.877  1.00  0.00    -0.097 SA
HETATM   19  C   UNL     1      37.744 -13.607  -0.282  1.00  0.00     0.050 A 
HETATM   20  C   UNL     1      37.605 -14.161   0.970  1.00  0.00     0.009 A 
HETATM   21  C   UNL     1      38.829 -14.715   1.444  1.00  0.00     0.025 A 
ENDBRANCH  14  17
ENDBRANCH   1  13
BRANCH   1  22
HETATM   22  C   UNL     1      42.774 -17.536   2.574  1.00  0.00     0.245 C 
HETATM   23  N   UNL     1      43.962 -18.241   2.491  1.00  0.00    -0.324 N 
HETATM   24  H   UNL     1      44.818 -17.708   2.424  1.00  0.00     0.169 HD
HETATM   25  O   UNL     1      41.671 -18.045   2.784  1.00  0.00    -0.271 OA
BRANCH  23  26
HETATM   26  C   UNL     1      44.130 -19.627   2.699  1.00  0.00     0.052 A 
HETATM   27  C   UNL     1      44.651 -20.214   3.850  1.00  0.00     0.145 A 
HETATM   28  N   UNL     1      44.804 -21.554   4.020  1.00  0.00    -0.271 NA
HETATM   29  C   UNL     1      44.429 -22.346   2.995  1.00  0.00     0.116 A 
HETATM   30  C   UNL     1      43.900 -21.866   1.811  1.00  0.00     0.021 A 
HETATM   31  C   UNL     1      43.746 -20.488   1.667  1.00  0.00     0.032 A 
ENDBRANCH  23  26
ENDBRANCH   1  22
TORSDOF 6
ENDMDL
MODEL 4
REMARK VINA RESULT:      -8.1      3.415      6.205
REMARK  6 active torsions:
REMARK  status: ('A' for Active; 'I' for Inactive)
REMARK    1  A    between atoms: C_8  and  C_9 
REMARK    2  A    between atoms: C_9  and  C_10 
REMARK    3  A    between atoms: C_10  and  N_11 
REMARK    4  A    between atoms: C_10  and  C_19 
REMARK       I    between atoms: N_11  and  C_12 
REMARK    5  A    between atoms: C_12  and  C_13 
REMARK       I    between atoms: C_19  and  N_20 
REMARK    6  A    between atoms: N_20  and  C_21 
ROOT
HETATM    1  C   UNL     1      42.089 -16.560   3.327  1.00  0.00     0.181 C 
ENDROOT
BRANCH   1   2
HETATM    2  C   UNL     1      43.610 -16.811   3.346  1.00  0.00     0.075 C 
BRANCH   2   3
HETATM    3  C   UNL     1      44.037 -18.095   3.995  1.00  0.00    -0.028 A 
HETATM    4  C   UNL     1      44.080 -19.389   3.377  1.00  0.00    -0.002 A 
HETATM    5  C   UNL     1      43.801 -19.872   2.081  1.00  0.00     0.014 A 
HETATM    6  C   UNL     1      44.494 -20.302   4.347  1.00  0.00     0.042 A 
HETATM    7  C   UNL     1      43.936 -21.239   1.808  1.00  0.00     0.001 A 
HETATM    8  C   UNL     1      44.343 -22.124   2.802  1.00  0.00     0.002 A 
HETATM    9  C   UNL     1      44.631 -21.672   4.093  1.00  0.00     0.030 A 
HETATM   10  N   UNL     1      44.719 -19.593   5.503  1.00  0.00    -0.365 N 
HETATM   11  H   UNL     1      45.032 -19.998   6.374  1.00  0.00     0.165 HD
HETATM   12  C   UNL     1      44.466 -18.263   5.297  1.00  0.00     0.096 A 
ENDBRANCH   2   3
ENDBRANCH   1   2
BRANCH   1  13
HETATM   13  N   UNL     1      41.662 -15.840   2.125  1.00  0.00    -0.343 N 
HETATM   14  C   UNL     1      41.140 -16.453   1.014  1.00  0.00     0.259 C 
HETATM   15  O   UNL     1      40.973 -17.672   0.983  1.00  0.00    -0.267 OA
HETATM   16  H   UNL     1      41.688 -14.824   2.163  1.00  0.00     0.163 HD
BRANCH  14  17
HETATM   17  C   UNL     1      40.826 -15.579  -0.107  1.00  0.00     0.072 A 
HETATM   18  S   UNL     1      39.969 -14.105   0.086  1.00  0.00    -0.097 SA
HETATM   19  C   UNL     1      40.064 -13.745  -1.581  1.00  0.00     0.050 A 
HETATM   20  C   UNL     1      40.733 -14.723  -2.282  1.00  0.00     0.009 A 
HETATM   21  C   UNL     1      41.168 -15.781  -1.433  1.00  0.00     0.025 A 
ENDBRANCH  14  17
ENDBRANCH   1  13
BRANCH   1  22
HETATM   22  C   UNL     1      41.545 -15.764   4.545  1.00  0.00     0.245 C 
HETATM   23  N   UNL     1      41.356 -14.411   4.329  1.00  0.00    -0.324 N 
HETATM   24  H   UNL     1      41.432 -14.073   3.380  1.00  0.00     0.169 HD
HETATM   25  O   UNL     1      41.361 -16.335   5.622  1.00  0.00    -0.271 OA
BRANCH  23  26
HETATM   26  C   UNL     1      40.859 -13.474   5.262  1.00  0.00     0.052 A 
HETATM   27  C   UNL     1      39.538 -13.389   5.697  1.00  0.00     0.145 A 
HETATM   28  N   UNL     1      39.088 -12.473   6.595  1.00  0.00    -0.271 NA
HETATM   29  C   UNL     1      39.992 -11.597   7.078  1.00  0.00     0.116 A 
HETATM   30  C   UNL     1      41.326 -11.597   6.714  1.00  0.00     0.021 A 
HETATM   31  C   UNL     1      41.762 -12.552   5.797  1.00  0.00     0.032 A 
ENDBRANCH  23  26
ENDBRANCH   1  22
TORSDOF 6
ENDMDL
MODEL 5
REMARK VINA RESULT:      -8.1      2.763      6.338
REMARK  6 active torsions:
REMARK  status: ('A' for Active; 'I' for Inactive)
REMARK    1  A    between atoms: C_8  and  C_9 
REMARK    2  A    between atoms: C_9  and  C_10 
REMARK    3  A    between atoms: C_10  and  N_11 
REMARK    4  A    between atoms: C_10  and  C_19 
REMARK       I    between atoms: N_11  and  C_12 
REMARK    5  A    between atoms: C_12  and  C_13 
REMARK       I    between atoms: C_19  and  N_20 
REMARK    6  A    between atoms: N_20  and  C_21 
ROOT
HETATM    1  C   UNL     1      41.970 -16.502   3.991  1.00  0.00     0.181 C 
ENDROOT
BRANCH   1   2
HETATM    2  C   UNL     1      43.279 -16.972   3.326  1.00  0.00     0.075 C 
BRANCH   2   3
HETATM    3  C   UNL     1      43.881 -18.217   3.910  1.00  0.00    -0.028 A 
HETATM    4  C   UNL     1      43.949 -19.505   3.282  1.00  0.00    -0.002 A 
HETATM    5  C   UNL     1      43.553 -20.012   2.026  1.00  0.00     0.014 A 
HETATM    6  C   UNL     1      44.548 -20.381   4.188  1.00  0.00     0.042 A 
HETATM    7  C   UNL     1      43.761 -21.364   1.729  1.00  0.00     0.001 A 
HETATM    8  C   UNL     1      44.352 -22.212   2.660  1.00  0.00     0.002 A 
HETATM    9  C   UNL     1      44.759 -21.737   3.909  1.00  0.00     0.030 A 
HETATM   10  N   UNL     1      44.855 -19.653   5.313  1.00  0.00    -0.365 N 
HETATM   11  H   UNL     1      45.302 -20.031   6.136  1.00  0.00     0.165 HD
HETATM   12  C   UNL     1      44.476 -18.349   5.149  1.00  0.00     0.096 A 
ENDBRANCH   2   3
ENDBRANCH   1   2
BRANCH   1  13
HETATM   13  N   UNL     1      41.173 -15.652   3.103  1.00  0.00    -0.343 N 
HETATM   14  C   UNL     1      40.377 -16.138   2.097  1.00  0.00     0.259 C 
HETATM   15  O   UNL     1      40.268 -17.347   1.902  1.00  0.00    -0.267 OA
HETATM   16  H   UNL     1      41.160 -14.656   3.308  1.00  0.00     0.163 HD
BRANCH  14  17
HETATM   17  C   UNL     1      39.704 -15.138   1.280  1.00  0.00     0.072 A 
HETATM   18  S   UNL     1      40.434 -14.436  -0.105  1.00  0.00    -0.097 SA
HETATM   19  C   UNL     1      39.057 -13.483  -0.440  1.00  0.00     0.050 A 
HETATM   20  C   UNL     1      38.053 -13.686   0.480  1.00  0.00     0.009 A 
HETATM   21  C   UNL     1      38.428 -14.636   1.473  1.00  0.00     0.025 A 
ENDBRANCH  14  17
ENDBRANCH   1  13
BRANCH   1  22
HETATM   22  C   UNL     1      42.160 -15.715   5.317  1.00  0.00     0.245 C 
HETATM   23  N   UNL     1      43.205 -14.809   5.321  1.00  0.00    -0.324 N 
HETATM   24  H   UNL     1      43.660 -14.615   4.440  1.00  0.00     0.169 HD
HETATM   25  O   UNL     1      41.435 -15.954   6.285  1.00  0.00    -0.271 OA
BRANCH  23  26
HETATM   26  C   UNL     1      43.577 -13.962   6.389  1.00  0.00     0.052 A 
HETATM   27  C   UNL     1      44.608 -14.206   7.292  1.00  0.00     0.145 A 
HETATM   28  N   UNL     1      44.941 -13.373   8.313  1.00  0.00    -0.271 NA
HETATM   29  C   UNL     1      44.209 -12.248   8.446  1.00  0.00     0.116 A 
HETATM   30  C   UNL     1      43.166 -11.911   7.602  1.00  0.00     0.021 A 
HETATM   31  C   UNL     1      42.852 -12.779   6.559  1.00  0.00     0.032 A 
ENDBRANCH  23  26
ENDBRANCH   1  22
TORSDOF 6
ENDMDL
MODEL 6
REMARK VINA RESULT:      -8.0      3.430      6.672
REMARK  6 active torsions:
REMARK  status: ('A' for Active; 'I' for Inactive)
REMARK    1  A    between atoms: C_8  and  C_9 
REMARK    2  A    between atoms: C_9  and  C_10 
REMARK    3  A    between atoms: C_10  and  N_11 
REMARK    4  A    between atoms: C_10  and  C_19 
REMARK       I    between atoms: N_11  and  C_12 
REMARK    5  A    between atoms: C_12  and  C_13 
REMARK       I    between atoms: C_19  and  N_20 
REMARK    6  A    between atoms: N_20  and  C_21 
ROOT
HETATM    1  C   UNL     1      40.784 -15.715   2.481  1.00  0.00     0.181 C 
ENDROOT
BRANCH   1   2
HETATM    2  C   UNL     1      40.632 -14.769   3.688  1.00  0.00     0.075 C 
BRANCH   2   3
HETATM    3  C   UNL     1      41.853 -14.629   4.550  1.00  0.00    -0.028 A 
HETATM    4  C   UNL     1      42.231 -15.487   5.636  1.00  0.00    -0.002 A 
HETATM    5  C   UNL     1      41.681 -16.653   6.208  1.00  0.00     0.014 A 
HETATM    6  C   UNL     1      43.406 -14.973   6.185  1.00  0.00     0.042 A 
HETATM    7  C   UNL     1      42.316 -17.252   7.303  1.00  0.00     0.001 A 
HETATM    8  C   UNL     1      43.482 -16.707   7.832  1.00  0.00     0.002 A 
HETATM    9  C   UNL     1      44.051 -15.555   7.282  1.00  0.00     0.030 A 
HETATM   10  N   UNL     1      43.745 -13.862   5.449  1.00  0.00    -0.365 N 
HETATM   11  H   UNL     1      44.558 -13.286   5.621  1.00  0.00     0.165 HD
HETATM   12  C   UNL     1      42.829 -13.657   4.453  1.00  0.00     0.096 A 
ENDBRANCH   2   3
ENDBRANCH   1   2
BRANCH   1  13
HETATM   13  N   UNL     1      41.781 -16.761   2.721  1.00  0.00    -0.343 N 
HETATM   14  C   UNL     1      41.856 -17.923   1.995  1.00  0.00     0.259 C 
HETATM   15  O   UNL     1      41.083 -18.139   1.063  1.00  0.00    -0.267 OA
HETATM   16  H   UNL     1      42.499 -16.564   3.414  1.00  0.00     0.163 HD
BRANCH  14  17
HETATM   17  C   UNL     1      42.878 -18.871   2.416  1.00  0.00     0.072 A 
HETATM   18  S   UNL     1      43.835 -18.631   3.820  1.00  0.00    -0.097 SA
HETATM   19  C   UNL     1      44.669 -20.104   3.594  1.00  0.00     0.050 A 
HETATM   20  C   UNL     1      44.236 -20.775   2.473  1.00  0.00     0.009 A 
HETATM   21  C   UNL     1      43.207 -20.063   1.793  1.00  0.00     0.025 A 
ENDBRANCH  14  17
ENDBRANCH   1  13
BRANCH   1  22
HETATM   22  C   UNL     1      41.176 -15.016   1.150  1.00  0.00     0.245 C 
HETATM   23  N   UNL     1      40.325 -15.254   0.086  1.00  0.00    -0.324 N 
HETATM   24  H   UNL     1      39.452 -15.724   0.281  1.00  0.00     0.169 HD
HETATM   25  O   UNL     1      42.209 -14.347   1.086  1.00  0.00    -0.271 OA
BRANCH  23  26
HETATM   26  C   UNL     1      40.446 -14.727  -1.219  1.00  0.00     0.052 A 
HETATM   27  C   UNL     1      40.983 -15.399  -2.315  1.00  0.00     0.145 A 
HETATM   28  N   UNL     1      41.089 -14.863  -3.560  1.00  0.00    -0.271 NA
HETATM   29  C   UNL     1      40.648 -13.599  -3.720  1.00  0.00     0.116 A 
HETATM   30  C   UNL     1      40.098 -12.846  -2.699  1.00  0.00     0.021 A 
HETATM   31  C   UNL     1      39.994 -13.423  -1.434  1.00  0.00     0.032 A 
ENDBRANCH  23  26
ENDBRANCH   1  22
TORSDOF 6
ENDMDL
MODEL 7
REMARK VINA RESULT:      -8.0      4.086      8.243
REMARK  6 active torsions:
REMARK  status: ('A' for Active; 'I' for Inactive)
REMARK    1  A    between atoms: C_8  and  C_9 
REMARK    2  A    between atoms: C_9  and  C_10 
REMARK    3  A    between atoms: C_10  and  N_11 
REMARK    4  A    between atoms: C_10  and  C_19 
REMARK       I    between atoms: N_11  and  C_12 
REMARK    5  A    between atoms: C_12  and  C_13 
REMARK       I    between atoms: C_19  and  N_20 
REMARK    6  A    between atoms: N_20  and  C_21 
ROOT
HETATM    1  C   UNL     1      42.088 -15.882   2.121  1.00  0.00     0.181 C 
ENDROOT
BRANCH   1   2
HETATM    2  C   UNL     1      40.755 -16.172   2.839  1.00  0.00     0.075 C 
BRANCH   2   3
HETATM    3  C   UNL     1      40.548 -15.430   4.127  1.00  0.00    -0.028 A 
HETATM    4  C   UNL     1      40.022 -14.103   4.269  1.00  0.00    -0.002 A 
HETATM    5  C   UNL     1      39.534 -13.134   3.367  1.00  0.00     0.014 A 
HETATM    6  C   UNL     1      40.039 -13.791   5.628  1.00  0.00     0.042 A 
HETATM    7  C   UNL     1      39.094 -11.896   3.853  1.00  0.00     0.001 A 
HETATM    8  C   UNL     1      39.134 -11.614   5.214  1.00  0.00     0.002 A 
HETATM    9  C   UNL     1      39.607 -12.557   6.131  1.00  0.00     0.030 A 
HETATM   10  N   UNL     1      40.532 -14.889   6.291  1.00  0.00    -0.365 N 
HETATM   11  H   UNL     1      40.654 -14.948   7.293  1.00  0.00     0.165 HD
HETATM   12  C   UNL     1      40.823 -15.886   5.401  1.00  0.00     0.096 A 
ENDBRANCH   2   3
ENDBRANCH   1   2
BRANCH   1  13
HETATM   13  N   UNL     1      41.891 -15.507   0.719  1.00  0.00    -0.343 N 
HETATM   14  C   UNL     1      41.878 -14.209   0.271  1.00  0.00     0.259 C 
HETATM   15  O   UNL     1      42.065 -13.271   1.044  1.00  0.00    -0.267 OA
HETATM   16  H   UNL     1      41.841 -16.264   0.042  1.00  0.00     0.163 HD
BRANCH  14  17
HETATM   17  C   UNL     1      41.611 -14.029  -1.149  1.00  0.00     0.072 A 
HETATM   18  S   UNL     1      42.096 -12.624  -2.006  1.00  0.00    -0.097 SA
HETATM   19  C   UNL     1      41.464 -13.215  -3.479  1.00  0.00     0.050 A 
HETATM   20  C   UNL     1      40.891 -14.458  -3.333  1.00  0.00     0.009 A 
HETATM   21  C   UNL     1      40.972 -14.924  -1.989  1.00  0.00     0.025 A 
ENDBRANCH  14  17
ENDBRANCH   1  13
BRANCH   1  22
HETATM   22  C   UNL     1      43.105 -17.056   2.134  1.00  0.00     0.245 C 
HETATM   23  N   UNL     1      42.672 -18.204   2.772  1.00  0.00    -0.324 N 
HETATM   24  H   UNL     1      41.698 -18.252   3.039  1.00  0.00     0.169 HD
HETATM   25  O   UNL     1      44.226 -16.908   1.642  1.00  0.00    -0.271 OA
BRANCH  23  26
HETATM   26  C   UNL     1      43.393 -19.411   2.908  1.00  0.00     0.052 A 
HETATM   27  C   UNL     1      44.229 -19.737   3.973  1.00  0.00     0.145 A 
HETATM   28  N   UNL     1      44.914 -20.907   4.074  1.00  0.00    -0.271 NA
HETATM   29  C   UNL     1      44.765 -21.791   3.067  1.00  0.00     0.116 A 
HETATM   30  C   UNL     1      43.958 -21.566   1.966  1.00  0.00     0.021 A 
HETATM   31  C   UNL     1      43.262 -20.361   1.891  1.00  0.00     0.032 A 
ENDBRANCH  23  26
ENDBRANCH   1  22
TORSDOF 6
ENDMDL
MODEL 8
REMARK VINA RESULT:      -7.9      3.007      4.096
REMARK  6 active torsions:
REMARK  status: ('A' for Active; 'I' for Inactive)
REMARK    1  A    between atoms: C_8  and  C_9 
REMARK    2  A    between atoms: C_9  and  C_10 
REMARK    3  A    between atoms: C_10  and  N_11 
REMARK    4  A    between atoms: C_10  and  C_19 
REMARK       I    between atoms: N_11  and  C_12 
REMARK    5  A    between atoms: C_12  and  C_13 
REMARK       I    between atoms: C_19  and  N_20 
REMARK    6  A    between atoms: N_20  and  C_21 
ROOT
HETATM    1  C   UNL     1      41.622 -15.649   2.689  1.00  0.00     0.181 C 
ENDROOT
BRANCH   1   2
HETATM    2  C   UNL     1      41.324 -17.005   3.358  1.00  0.00     0.075 C 
BRANCH   2   3
HETATM    3  C   UNL     1      42.528 -17.744   3.867  1.00  0.00    -0.028 A 
HETATM    4  C   UNL     1      43.133 -18.899   3.270  1.00  0.00    -0.002 A 
HETATM    5  C   UNL     1      42.875 -19.659   2.109  1.00  0.00     0.014 A 
HETATM    6  C   UNL     1      44.196 -19.284   4.087  1.00  0.00     0.042 A 
HETATM    7  C   UNL     1      43.676 -20.769   1.816  1.00  0.00     0.001 A 
HETATM    8  C   UNL     1      44.722 -21.131   2.659  1.00  0.00     0.002 A 
HETATM    9  C   UNL     1      45.003 -20.395   3.813  1.00  0.00     0.030 A 
HETATM   10  N   UNL     1      44.253 -18.388   5.128  1.00  0.00    -0.365 N 
HETATM   11  H   UNL     1      44.930 -18.420   5.877  1.00  0.00     0.165 HD
HETATM   12  C   UNL     1      43.267 -17.447   4.995  1.00  0.00     0.096 A 
ENDBRANCH   2   3
ENDBRANCH   1   2
BRANCH   1  13
HETATM   13  N   UNL     1      41.400 -14.523   3.598  1.00  0.00    -0.343 N 
HETATM   14  C   UNL     1      42.242 -13.443   3.694  1.00  0.00     0.259 C 
HETATM   15  O   UNL     1      43.240 -13.352   2.980  1.00  0.00    -0.267 OA
HETATM   16  H   UNL     1      40.530 -14.518   4.123  1.00  0.00     0.163 HD
BRANCH  14  17
HETATM   17  C   UNL     1      41.889 -12.448   4.697  1.00  0.00     0.072 A 
HETATM   18  S   UNL     1      41.092 -10.981   4.298  1.00  0.00    -0.097 SA
HETATM   19  C   UNL     1      41.045 -10.477   5.929  1.00  0.00     0.050 A 
HETATM   20  C   UNL     1      41.623 -11.400   6.771  1.00  0.00     0.009 A 
HETATM   21  C   UNL     1      42.113 -12.533   6.060  1.00  0.00     0.025 A 
ENDBRANCH  14  17
ENDBRANCH   1  13
BRANCH   1  22
HETATM   22  C   UNL     1      40.796 -15.360   1.405  1.00  0.00     0.245 C 
HETATM   23  N   UNL     1      41.538 -15.007   0.293  1.00  0.00    -0.324 N 
HETATM   24  H   UNL     1      42.542 -15.110   0.348  1.00  0.00     0.169 HD
HETATM   25  O   UNL     1      39.564 -15.407   1.440  1.00  0.00    -0.271 OA
BRANCH  23  26
HETATM   26  C   UNL     1      41.033 -14.713  -0.993  1.00  0.00     0.052 A 
HETATM   27  C   UNL     1      40.533 -13.480  -1.402  1.00  0.00     0.145 A 
HETATM   28  N   UNL     1      40.050 -13.228  -2.648  1.00  0.00    -0.271 NA
HETATM   29  C   UNL     1      40.059 -14.251  -3.525  1.00  0.00     0.116 A 
HETATM   30  C   UNL     1      40.536 -15.514  -3.221  1.00  0.00     0.021 A 
HETATM   31  C   UNL     1      41.032 -15.743  -1.939  1.00  0.00     0.032 A 
ENDBRANCH  23  26
ENDBRANCH   1  22
TORSDOF 6
ENDMDL
MODEL 9
REMARK VINA RESULT:      -7.8      2.889      5.362
REMARK  6 active torsions:
REMARK  status: ('A' for Active; 'I' for Inactive)
REMARK    1  A    between atoms: C_8  and  C_9 
REMARK    2  A    between atoms: C_9  and  C_10 
REMARK    3  A    between atoms: C_10  and  N_11 
REMARK    4  A    between atoms: C_10  and  C_19 
REMARK       I    between atoms: N_11  and  C_12 
REMARK    5  A    between atoms: C_12  and  C_13 
REMARK       I    between atoms: C_19  and  N_20 
REMARK    6  A    between atoms: N_20  and  C_21 
ROOT
HETATM    1  C   UNL     1      40.358 -14.175   5.488  1.00  0.00     0.181 C 
ENDROOT
BRANCH   1   2
HETATM    2  C   UNL     1      40.884 -13.741   4.105  1.00  0.00     0.075 C 
BRANCH   2   3
HETATM    3  C   UNL     1      40.727 -14.759   3.014  1.00  0.00    -0.028 A 
HETATM    4  C   UNL     1      41.761 -15.593   2.473  1.00  0.00    -0.002 A 
HETATM    5  C   UNL     1      43.134 -15.768   2.751  1.00  0.00     0.014 A 
HETATM    6  C   UNL     1      41.191 -16.358   1.455  1.00  0.00     0.042 A 
HETATM    7  C   UNL     1      43.880 -16.686   2.002  1.00  0.00     0.001 A 
HETATM    8  C   UNL     1      43.281 -17.426   0.987  1.00  0.00     0.002 A 
HETATM    9  C   UNL     1      41.923 -17.277   0.692  1.00  0.00     0.030 A 
HETATM   10  N   UNL     1      39.860 -16.023   1.393  1.00  0.00    -0.365 N 
HETATM   11  H   UNL     1      39.196 -16.425   0.745  1.00  0.00     0.165 HD
HETATM   12  C   UNL     1      39.566 -15.078   2.337  1.00  0.00     0.096 A 
ENDBRANCH   2   3
ENDBRANCH   1   2
BRANCH   1  13
HETATM   13  N   UNL     1      40.586 -13.154   6.512  1.00  0.00    -0.343 N 
HETATM   14  C   UNL     1      39.738 -12.099   6.740  1.00  0.00     0.259 C 
HETATM   15  O   UNL     1      38.699 -11.972   6.094  1.00  0.00    -0.267 OA
HETATM   16  H   UNL     1      41.380 -13.292   7.133  1.00  0.00     0.163 HD
BRANCH  14  17
HETATM   17  C   UNL     1      40.160 -11.152   7.762  1.00  0.00     0.072 A 
HETATM   18  S   UNL     1      41.780 -10.603   7.897  1.00  0.00    -0.097 SA
HETATM   19  C   UNL     1      41.404  -9.588   9.218  1.00  0.00     0.050 A 
HETATM   20  C   UNL     1      40.073  -9.658   9.560  1.00  0.00     0.009 A 
HETATM   21  C   UNL     1      39.357 -10.562   8.724  1.00  0.00     0.025 A 
ENDBRANCH  14  17
ENDBRANCH   1  13
BRANCH   1  22
HETATM   22  C   UNL     1      40.964 -15.499   6.030  1.00  0.00     0.245 C 
HETATM   23  N   UNL     1      42.333 -15.483   6.229  1.00  0.00    -0.324 N 
HETATM   24  H   UNL     1      42.806 -14.592   6.161  1.00  0.00     0.169 HD
HETATM   25  O   UNL     1      40.242 -16.483   6.204  1.00  0.00    -0.271 OA
BRANCH  23  26
HETATM   26  C   UNL     1      43.121 -16.544   6.727  1.00  0.00     0.052 A 
HETATM   27  C   UNL     1      43.139 -16.987   8.047  1.00  0.00     0.145 A 
HETATM   28  N   UNL     1      43.911 -18.011   8.497  1.00  0.00    -0.271 NA
HETATM   29  C   UNL     1      44.707 -18.618   7.594  1.00  0.00     0.116 A 
HETATM   30  C   UNL     1      44.764 -18.257   6.260  1.00  0.00     0.021 A 
HETATM   31  C   UNL     1      43.955 -17.209   5.824  1.00  0.00     0.032 A 
ENDBRANCH  23  26
ENDBRANCH   1  22
TORSDOF 6
ENDMDL
MODEL 10
REMARK VINA RESULT:      -7.5      3.762      7.824
REMARK  6 active torsions:
REMARK  status: ('A' for Active; 'I' for Inactive)
REMARK    1  A    between atoms: C_8  and  C_9 
REMARK    2  A    between atoms: C_9  and  C_10 
REMARK    3  A    between atoms: C_10  and  N_11 
REMARK    4  A    between atoms: C_10  and  C_19 
REMARK       I    between atoms: N_11  and  C_12 
REMARK    5  A    between atoms: C_12  and  C_13 
REMARK       I    between atoms: C_19  and  N_20 
REMARK    6  A    between atoms: N_20  and  C_21 
ROOT
HETATM    1  C   UNL     1      42.713 -15.797   2.781  1.00  0.00     0.181 C 
ENDROOT
BRANCH   1   2
HETATM    2  C   UNL     1      43.038 -15.002   4.061  1.00  0.00     0.075 C 
BRANCH   2   3
HETATM    3  C   UNL     1      41.851 -14.623   4.897  1.00  0.00    -0.028 A 
HETATM    4  C   UNL     1      41.216 -13.337   4.943  1.00  0.00    -0.002 A 
HETATM    5  C   UNL     1      41.426 -12.110   4.278  1.00  0.00     0.014 A 
HETATM    6  C   UNL     1      40.184 -13.414   5.877  1.00  0.00     0.042 A 
HETATM    7  C   UNL     1      40.609 -11.014   4.575  1.00  0.00     0.001 A 
HETATM    8  C   UNL     1      39.593 -11.122   5.520  1.00  0.00     0.002 A 
HETATM    9  C   UNL     1      39.359 -12.326   6.190  1.00  0.00     0.030 A 
HETATM   10  N   UNL     1      40.171 -14.699   6.364  1.00  0.00    -0.365 N 
HETATM   11  H   UNL     1      39.522 -15.043   7.057  1.00  0.00     0.165 HD
HETATM   12  C   UNL     1      41.156 -15.439   5.769  1.00  0.00     0.096 A 
ENDBRANCH   2   3
ENDBRANCH   1   2
BRANCH   1  13
HETATM   13  N   UNL     1      41.439 -15.390   2.185  1.00  0.00    -0.343 N 
HETATM   14  C   UNL     1      41.308 -14.345   1.305  1.00  0.00     0.259 C 
HETATM   15  O   UNL     1      42.288 -13.697   0.942  1.00  0.00    -0.267 OA
HETATM   16  H   UNL     1      40.629 -15.973   2.384  1.00  0.00     0.163 HD
BRANCH  14  17
HETATM   17  C   UNL     1      39.952 -14.052   0.863  1.00  0.00     0.072 A 
HETATM   18  S   UNL     1      38.694 -13.646   1.956  1.00  0.00    -0.097 SA
HETATM   19  C   UNL     1      37.560 -13.449   0.694  1.00  0.00     0.050 A 
HETATM   20  C   UNL     1      38.118 -13.685  -0.542  1.00  0.00     0.009 A 
HETATM   21  C   UNL     1      39.495 -14.037  -0.444  1.00  0.00     0.025 A 
ENDBRANCH  14  17
ENDBRANCH   1  13
BRANCH   1  22
HETATM   22  C   UNL     1      42.649 -17.338   2.970  1.00  0.00     0.245 C 
HETATM   23  N   UNL     1      43.847 -18.005   2.785  1.00  0.00    -0.324 N 
HETATM   24  H   UNL     1      44.685 -17.446   2.696  1.00  0.00     0.169 HD
HETATM   25  O   UNL     1      41.573 -17.886   3.218  1.00  0.00    -0.271 OA
BRANCH  23  26
HETATM   26  C   UNL     1      44.062 -19.395   2.914  1.00  0.00     0.052 A 
HETATM   27  C   UNL     1      44.660 -20.022   4.004  1.00  0.00     0.145 A 
HETATM   28  N   UNL     1      44.857 -21.364   4.098  1.00  0.00    -0.271 NA
HETATM   29  C   UNL     1      44.444 -22.116   3.058  1.00  0.00     0.116 A 
HETATM   30  C   UNL     1      43.838 -21.593   1.930  1.00  0.00     0.021 A 
HETATM   31  C   UNL     1      43.642 -20.215   1.863  1.00  0.00     0.032 A 
ENDBRANCH  23  26
ENDBRANCH   1  22
TORSDOF 6
ENDMDL
