MODEL 1
REMARK VINA RESULT:      -8.6      0.000      0.000
REMARK  6 active torsions:
REMARK  status: ('A' for Active; 'I' for Inactive)
REMARK    1  A    between atoms: N_7  and  C_8 
REMARK    2  A    between atoms: C_8  and  C_9 
REMARK    3  A    between atoms: C_9  and  N_10 
REMARK    4  A    between atoms: C_17  and  C_18 
REMARK    5  A    between atoms: C_18  and  N_19 
REMARK       I    between atoms: N_19  and  C_20 
REMARK    6  A    between atoms: C_20  and  C_21 
ROOT
HETATM    1  C   UNL     1      44.463 -21.998   2.100  1.00  0.00     0.001 A 
HETATM    2  C   UNL     1      44.183 -20.665   1.788  1.00  0.00     0.014 A 
HETATM    3  C   UNL     1      44.096 -19.711   2.808  1.00  0.00     0.008 A 
HETATM    4  C   UNL     1      44.297 -20.098   4.131  1.00  0.00     0.046 A 
HETATM    5  C   UNL     1      44.230 -19.089   5.205  1.00  0.00     0.274 A 
HETATM    6  O   UNL     1      44.467 -19.399   6.369  1.00  0.00    -0.266 OA
HETATM    7  N   UNL     1      43.894 -17.795   4.820  1.00  0.00    -0.232 N 
HETATM    8  N   UNL     1      43.713 -17.407   3.526  1.00  0.00    -0.172 NA
HETATM    9  C   UNL     1      43.800 -18.280   2.567  1.00  0.00     0.084 A 
HETATM   10  C   UNL     1      44.579 -21.434   4.443  1.00  0.00     0.018 A 
HETATM   11  C   UNL     1      44.659 -22.383   3.426  1.00  0.00     0.001 A 
ENDROOT
BRANCH   9  12
HETATM   12  C   UNL     1      43.605 -17.766   1.143  1.00  0.00     0.185 C 
BRANCH  12  13
HETATM   13  N   UNL     1      42.727 -16.614   1.159  1.00  0.00    -0.351 N 
HETATM   14  C   UNL     1      41.363 -16.731   1.010  1.00  0.00     0.253 C 
HETATM   15  O   UNL     1      40.790 -17.818   0.976  1.00  0.00    -0.268 OA
HETATM   16  H   UNL     1      43.134 -15.688   1.212  1.00  0.00     0.163 HD
BRANCH  14  17
HETATM   17  C   UNL     1      40.569 -15.465   0.965  1.00  0.00     0.048 A 
HETATM   18  C   UNL     1      40.335 -14.664  -0.168  1.00  0.00     0.022 A 
HETATM   19  I   UNL     1      40.957 -15.119  -2.127  1.00  0.00    -0.043 I 
HETATM   20  C   UNL     1      39.577 -13.488  -0.047  1.00  0.00     0.019 A 
HETATM   21  C   UNL     1      39.035 -13.111   1.182  1.00  0.00     0.001 A 
HETATM   22  C   UNL     1      39.240 -13.908   2.302  1.00  0.00     0.001 A 
HETATM   23  C   UNL     1      39.999 -15.075   2.193  1.00  0.00     0.018 A 
ENDBRANCH  14  17
ENDBRANCH  12  13
ENDBRANCH   9  12
BRANCH   7  24
HETATM   24  C   UNL     1      43.953 -16.729   5.811  1.00  0.00     0.182 C 
BRANCH  24  25
HETATM   25  C   UNL     1      42.578 -16.327   6.359  1.00  0.00     0.256 C 
BRANCH  25  26
HETATM   26  N   UNL     1      41.847 -15.386   5.415  1.00  0.00    -0.070 N 
HETATM   27  H   UNL     1      41.702 -15.882   4.525  1.00  0.00     0.279 HD
HETATM   28  C   UNL     1      42.650 -14.132   5.106  1.00  0.00     0.235 C 
HETATM   29  C   UNL     1      41.871 -13.010   5.761  1.00  0.00     0.029 C 
HETATM   30  C   UNL     1      40.434 -13.456   5.602  1.00  0.00     0.029 C 
HETATM   31  C   UNL     1      40.496 -14.931   5.943  1.00  0.00     0.235 C 
ENDBRANCH  25  26
ENDBRANCH  24  25
ENDBRANCH   7  24
TORSDOF 6
ENDMDL
MODEL 2
REMARK VINA RESULT:      -8.5      1.630      1.886
REMARK  6 active torsions:
REMARK  status: ('A' for Active; 'I' for Inactive)
REMARK    1  A    between atoms: N_7  and  C_8 
REMARK    2  A    between atoms: C_8  and  C_9 
REMARK    3  A    between atoms: C_9  and  N_10 
REMARK    4  A    between atoms: C_17  and  C_18 
REMARK    5  A    between atoms: C_18  and  N_19 
REMARK       I    between atoms: N_19  and  C_20 
REMARK    6  A    between atoms: C_20  and  C_21 
ROOT
HETATM    1  C   UNL     1      43.877 -21.413   1.972  1.00  0.00     0.001 A 
HETATM    2  C   UNL     1      43.132 -20.244   1.790  1.00  0.00     0.014 A 
HETATM    3  C   UNL     1      43.210 -19.211   2.731  1.00  0.00     0.008 A 
HETATM    4  C   UNL     1      44.038 -19.355   3.843  1.00  0.00     0.046 A 
HETATM    5  C   UNL     1      44.140 -18.258   4.824  1.00  0.00     0.274 A 
HETATM    6  O   UNL     1      44.912 -18.340   5.775  1.00  0.00    -0.266 OA
HETATM    7  N   UNL     1      43.328 -17.150   4.601  1.00  0.00    -0.232 N 
HETATM    8  N   UNL     1      42.530 -16.996   3.507  1.00  0.00    -0.172 NA
HETATM    9  C   UNL     1      42.454 -17.943   2.619  1.00  0.00     0.084 A 
HETATM   10  C   UNL     1      44.784 -20.527   4.024  1.00  0.00     0.018 A 
HETATM   11  C   UNL     1      44.700 -21.555   3.087  1.00  0.00     0.001 A 
ENDROOT
BRANCH   9  12
HETATM   12  C   UNL     1      41.555 -17.689   1.413  1.00  0.00     0.185 C 
BRANCH  12  13
HETATM   13  N   UNL     1      41.904 -16.422   0.805  1.00  0.00    -0.351 N 
HETATM   14  C   UNL     1      41.008 -15.379   0.723  1.00  0.00     0.253 C 
HETATM   15  O   UNL     1      39.905 -15.408   1.262  1.00  0.00    -0.268 OA
HETATM   16  H   UNL     1      42.810 -16.323   0.365  1.00  0.00     0.163 HD
BRANCH  14  17
HETATM   17  C   UNL     1      41.458 -14.147   0.003  1.00  0.00     0.048 A 
HETATM   18  C   UNL     1      41.491 -13.958  -1.390  1.00  0.00     0.022 A 
HETATM   19  I   UNL     1      40.797 -15.337  -2.821  1.00  0.00    -0.043 I 
HETATM   20  C   UNL     1      41.957 -12.743  -1.918  1.00  0.00     0.019 A 
HETATM   21  C   UNL     1      42.371 -11.711  -1.076  1.00  0.00     0.001 A 
HETATM   22  C   UNL     1      42.320 -11.879   0.302  1.00  0.00     0.001 A 
HETATM   23  C   UNL     1      41.866 -13.086   0.836  1.00  0.00     0.018 A 
ENDBRANCH  14  17
ENDBRANCH  12  13
ENDBRANCH   9  12
BRANCH   7  24
HETATM   24  C   UNL     1      43.490 -15.978   5.452  1.00  0.00     0.182 C 
BRANCH  24  25
HETATM   25  C   UNL     1      42.181 -15.217   5.698  1.00  0.00     0.256 C 
BRANCH  25  26
HETATM   26  N   UNL     1      41.784 -14.373   4.498  1.00  0.00    -0.070 N 
HETATM   27  H   UNL     1      42.046 -14.891   3.648  1.00  0.00     0.279 HD
HETATM   28  C   UNL     1      42.516 -13.040   4.456  1.00  0.00     0.235 C 
HETATM   29  C   UNL     1      41.437 -12.006   4.702  1.00  0.00     0.029 C 
HETATM   30  C   UNL     1      40.226 -12.610   4.025  1.00  0.00     0.029 C 
HETATM   31  C   UNL     1      40.297 -14.065   4.441  1.00  0.00     0.235 C 
ENDBRANCH  25  26
ENDBRANCH  24  25
ENDBRANCH   7  24
TORSDOF 6
ENDMDL
MODEL 3
REMARK VINA RESULT:      -8.1      2.602      6.486
REMARK  6 active torsions:
REMARK  status: ('A' for Active; 'I' for Inactive)
REMARK    1  A    between atoms: N_7  and  C_8 
REMARK    2  A    between atoms: C_8  and  C_9 
REMARK    3  A    between atoms: C_9  and  N_10 
REMARK    4  A    between atoms: C_17  and  C_18 
REMARK    5  A    between atoms: C_18  and  N_19 
REMARK       I    between atoms: N_19  and  C_20 
REMARK    6  A    between atoms: C_20  and  C_21 
ROOT
HETATM    1  C   UNL     1      40.926 -15.159  -3.061  1.00  0.00     0.001 A 
HETATM    2  C   UNL     1      40.993 -15.799  -1.819  1.00  0.00     0.014 A 
HETATM    3  C   UNL     1      41.376 -15.081  -0.682  1.00  0.00     0.008 A 
HETATM    4  C   UNL     1      41.683 -13.725  -0.794  1.00  0.00     0.046 A 
HETATM    5  C   UNL     1      42.064 -12.961   0.408  1.00  0.00     0.274 A 
HETATM    6  O   UNL     1      42.276 -11.753   0.340  1.00  0.00    -0.266 OA
HETATM    7  N   UNL     1      42.159 -13.680   1.596  1.00  0.00    -0.232 N 
HETATM    8  N   UNL     1      41.843 -15.001   1.715  1.00  0.00    -0.172 NA
HETATM    9  C   UNL     1      41.476 -15.679   0.669  1.00  0.00     0.084 A 
HETATM   10  C   UNL     1      41.616 -13.085  -2.038  1.00  0.00     0.018 A 
HETATM   11  C   UNL     1      41.239 -13.805  -3.170  1.00  0.00     0.001 A 
ENDROOT
BRANCH   9  12
HETATM   12  C   UNL     1      41.120 -17.147   0.886  1.00  0.00     0.185 C 
BRANCH  12  13
HETATM   13  N   UNL     1      41.829 -17.653   2.043  1.00  0.00    -0.351 N 
HETATM   14  C   UNL     1      43.108 -18.156   1.955  1.00  0.00     0.253 C 
HETATM   15  O   UNL     1      43.774 -18.098   0.924  1.00  0.00    -0.268 OA
HETATM   16  H   UNL     1      41.345 -17.703   2.931  1.00  0.00     0.163 HD
BRANCH  14  17
HETATM   17  C   UNL     1      43.708 -18.721   3.203  1.00  0.00     0.048 A 
HETATM   18  C   UNL     1      44.129 -20.048   3.402  1.00  0.00     0.022 A 
HETATM   19  I   UNL     1      44.126 -21.557   1.934  1.00  0.00    -0.043 I 
HETATM   20  C   UNL     1      44.660 -20.433   4.644  1.00  0.00     0.019 A 
HETATM   21  C   UNL     1      44.795 -19.509   5.680  1.00  0.00     0.001 A 
HETATM   22  C   UNL     1      44.404 -18.191   5.485  1.00  0.00     0.001 A 
HETATM   23  C   UNL     1      43.867 -17.800   4.258  1.00  0.00     0.018 A 
ENDBRANCH  14  17
ENDBRANCH  12  13
ENDBRANCH   9  12
BRANCH   7  24
HETATM   24  C   UNL     1      42.389 -12.957   2.839  1.00  0.00     0.182 C 
BRANCH  24  25
HETATM   25  C   UNL     1      43.168 -13.767   3.883  1.00  0.00     0.256 C 
BRANCH  25  26
HETATM   26  N   UNL     1      42.421 -13.854   5.203  1.00  0.00    -0.070 N 
HETATM   27  H   UNL     1      43.119 -13.871   5.960  1.00  0.00     0.279 HD
HETATM   28  C   UNL     1      41.595 -15.126   5.323  1.00  0.00     0.235 C 
HETATM   29  C   UNL     1      40.157 -14.649   5.304  1.00  0.00     0.029 C 
HETATM   30  C   UNL     1      40.229 -13.320   6.023  1.00  0.00     0.029 C 
HETATM   31  C   UNL     1      41.476 -12.686   5.441  1.00  0.00     0.235 C 
ENDBRANCH  25  26
ENDBRANCH  24  25
ENDBRANCH   7  24
TORSDOF 6
ENDMDL
MODEL 4
REMARK VINA RESULT:      -8.1      1.362      1.685
REMARK  6 active torsions:
REMARK  status: ('A' for Active; 'I' for Inactive)
REMARK    1  A    between atoms: N_7  and  C_8 
REMARK    2  A    between atoms: C_8  and  C_9 
REMARK    3  A    between atoms: C_9  and  N_10 
REMARK    4  A    between atoms: C_17  and  C_18 
REMARK    5  A    between atoms: C_18  and  N_19 
REMARK       I    between atoms: N_19  and  C_20 
REMARK    6  A    between atoms: C_20  and  C_21 
ROOT
HETATM    1  C   UNL     1      44.096 -21.173   2.083  1.00  0.00     0.001 A 
HETATM    2  C   UNL     1      43.549 -19.924   1.773  1.00  0.00     0.014 A 
HETATM    3  C   UNL     1      43.522 -18.912   2.740  1.00  0.00     0.008 A 
HETATM    4  C   UNL     1      44.051 -19.157   4.006  1.00  0.00     0.046 A 
HETATM    5  C   UNL     1      44.046 -18.084   5.018  1.00  0.00     0.274 A 
HETATM    6  O   UNL     1      44.564 -18.260   6.118  1.00  0.00    -0.266 OA
HETATM    7  N   UNL     1      43.437 -16.888   4.651  1.00  0.00    -0.232 N 
HETATM    8  N   UNL     1      42.934 -16.637   3.409  1.00  0.00    -0.172 NA
HETATM    9  C   UNL     1      42.959 -17.564   2.498  1.00  0.00     0.084 A 
HETATM   10  C   UNL     1      44.600 -20.408   4.315  1.00  0.00     0.018 A 
HETATM   11  C   UNL     1      44.619 -21.415   3.352  1.00  0.00     0.001 A 
ENDROOT
BRANCH   9  12
HETATM   12  C   UNL     1      42.396 -17.202   1.127  1.00  0.00     0.185 C 
BRANCH  12  13
HETATM   13  N   UNL     1      41.498 -16.073   1.254  1.00  0.00    -0.351 N 
HETATM   14  C   UNL     1      40.974 -15.428   0.155  1.00  0.00     0.253 C 
HETATM   15  O   UNL     1      41.133 -15.837  -0.992  1.00  0.00    -0.268 OA
HETATM   16  H   UNL     1      41.303 -15.703   2.176  1.00  0.00     0.163 HD
BRANCH  14  17
HETATM   17  C   UNL     1      40.121 -14.227   0.411  1.00  0.00     0.048 A 
HETATM   18  C   UNL     1      40.450 -12.891   0.122  1.00  0.00     0.022 A 
HETATM   19  I   UNL     1      42.200 -12.254  -0.860  1.00  0.00    -0.043 I 
HETATM   20  C   UNL     1      39.544 -11.865   0.439  1.00  0.00     0.019 A 
HETATM   21  C   UNL     1      38.309 -12.156   1.019  1.00  0.00     0.001 A 
HETATM   22  C   UNL     1      37.965 -13.475   1.286  1.00  0.00     0.001 A 
HETATM   23  C   UNL     1      38.863 -14.501   0.983  1.00  0.00     0.018 A 
ENDBRANCH  14  17
ENDBRANCH  12  13
ENDBRANCH   9  12
BRANCH   7  24
HETATM   24  C   UNL     1      43.528 -15.747   5.552  1.00  0.00     0.182 C 
BRANCH  24  25
HETATM   25  C   UNL     1      42.177 -15.327   6.145  1.00  0.00     0.256 C 
BRANCH  25  26
HETATM   26  N   UNL     1      41.864 -13.867   5.860  1.00  0.00    -0.070 N 
HETATM   27  H   UNL     1      42.093 -13.325   6.704  1.00  0.00     0.279 HD
HETATM   28  C   UNL     1      40.391 -13.635   5.561  1.00  0.00     0.235 C 
HETATM   29  C   UNL     1      40.357 -13.238   4.100  1.00  0.00     0.029 C 
HETATM   30  C   UNL     1      41.644 -12.461   3.928  1.00  0.00     0.029 C 
HETATM   31  C   UNL     1      42.650 -13.299   4.689  1.00  0.00     0.235 C 
ENDBRANCH  25  26
ENDBRANCH  24  25
ENDBRANCH   7  24
TORSDOF 6
ENDMDL
MODEL 5
REMARK VINA RESULT:      -7.7      3.077      6.554
REMARK  6 active torsions:
REMARK  status: ('A' for Active; 'I' for Inactive)
REMARK    1  A    between atoms: N_7  and  C_8 
REMARK    2  A    between atoms: C_8  and  C_9 
REMARK    3  A    between atoms: C_9  and  N_10 
REMARK    4  A    between atoms: C_17  and  C_18 
REMARK    5  A    between atoms: C_18  and  N_19 
REMARK       I    between atoms: N_19  and  C_20 
REMARK    6  A    between atoms: C_20  and  C_21 
ROOT
HETATM    1  C   UNL     1      40.490 -16.859   3.057  1.00  0.00     0.001 A 
HETATM    2  C   UNL     1      41.181 -17.121   4.244  1.00  0.00     0.014 A 
HETATM    3  C   UNL     1      42.050 -16.161   4.773  1.00  0.00     0.008 A 
HETATM    4  C   UNL     1      42.215 -14.944   4.114  1.00  0.00     0.046 A 
HETATM    5  C   UNL     1      43.112 -13.921   4.684  1.00  0.00     0.274 A 
HETATM    6  O   UNL     1      43.221 -12.819   4.152  1.00  0.00    -0.266 OA
HETATM    7  N   UNL     1      43.804 -14.276   5.838  1.00  0.00    -0.232 N 
HETATM    8  N   UNL     1      43.633 -15.457   6.496  1.00  0.00    -0.172 NA
HETATM    9  C   UNL     1      42.823 -16.356   6.021  1.00  0.00     0.084 A 
HETATM   10  C   UNL     1      41.521 -14.683   2.925  1.00  0.00     0.018 A 
HETATM   11  C   UNL     1      40.661 -15.643   2.398  1.00  0.00     0.001 A 
ENDROOT
BRANCH   9  12
HETATM   12  C   UNL     1      42.670 -17.644   6.825  1.00  0.00     0.185 C 
BRANCH  12  13
HETATM   13  N   UNL     1      42.947 -18.783   5.974  1.00  0.00    -0.351 N 
HETATM   14  C   UNL     1      44.223 -19.092   5.558  1.00  0.00     0.253 C 
HETATM   15  O   UNL     1      45.218 -18.503   5.974  1.00  0.00    -0.268 OA
HETATM   16  H   UNL     1      42.172 -19.328   5.617  1.00  0.00     0.163 HD
BRANCH  14  17
HETATM   17  C   UNL     1      44.374 -20.245   4.618  1.00  0.00     0.048 A 
HETATM   18  C   UNL     1      44.249 -20.205   3.218  1.00  0.00     0.022 A 
HETATM   19  I   UNL     1      43.926 -18.466   2.076  1.00  0.00    -0.043 I 
HETATM   20  C   UNL     1      44.404 -21.383   2.469  1.00  0.00     0.019 A 
HETATM   21  C   UNL     1      44.703 -22.593   3.095  1.00  0.00     0.001 A 
HETATM   22  C   UNL     1      44.853 -22.638   4.475  1.00  0.00     0.001 A 
HETATM   23  C   UNL     1      44.692 -21.475   5.229  1.00  0.00     0.018 A 
ENDBRANCH  14  17
ENDBRANCH  12  13
ENDBRANCH   9  12
BRANCH   7  24
HETATM   24  C   UNL     1      44.591 -13.262   6.526  1.00  0.00     0.182 C 
BRANCH  24  25
HETATM   25  C   UNL     1      44.598 -13.424   8.051  1.00  0.00     0.256 C 
BRANCH  25  26
HETATM   26  N   UNL     1      44.676 -12.083   8.761  1.00  0.00    -0.070 N 
HETATM   27  H   UNL     1      45.342 -11.491   8.246  1.00  0.00     0.279 HD
HETATM   28  C   UNL     1      45.194 -12.208  10.186  1.00  0.00     0.235 C 
HETATM   29  C   UNL     1      44.007 -11.849  11.055  1.00  0.00     0.029 C 
HETATM   30  C   UNL     1      43.294 -10.792  10.239  1.00  0.00     0.029 C 
HETATM   31  C   UNL     1      43.341 -11.360   8.835  1.00  0.00     0.235 C 
ENDBRANCH  25  26
ENDBRANCH  24  25
ENDBRANCH   7  24
TORSDOF 6
ENDMDL
MODEL 6
REMARK VINA RESULT:      -7.6      2.104      5.864
REMARK  6 active torsions:
REMARK  status: ('A' for Active; 'I' for Inactive)
REMARK    1  A    between atoms: N_7  and  C_8 
REMARK    2  A    between atoms: C_8  and  C_9 
REMARK    3  A    between atoms: C_9  and  N_10 
REMARK    4  A    between atoms: C_17  and  C_18 
REMARK    5  A    between atoms: C_18  and  N_19 
REMARK       I    between atoms: N_19  and  C_20 
REMARK    6  A    between atoms: C_20  and  C_21 
ROOT
HETATM    1  C   UNL     1      39.591 -12.636   4.470  1.00  0.00     0.001 A 
HETATM    2  C   UNL     1      39.690 -13.811   3.719  1.00  0.00     0.014 A 
HETATM    3  C   UNL     1      40.757 -14.691   3.934  1.00  0.00     0.008 A 
HETATM    4  C   UNL     1      41.712 -14.389   4.904  1.00  0.00     0.046 A 
HETATM    5  C   UNL     1      42.824 -15.327   5.149  1.00  0.00     0.274 A 
HETATM    6  O   UNL     1      43.639 -15.110   6.041  1.00  0.00    -0.266 OA
HETATM    7  N   UNL     1      42.884 -16.447   4.326  1.00  0.00    -0.232 N 
HETATM    8  N   UNL     1      41.943 -16.756   3.389  1.00  0.00    -0.172 NA
HETATM    9  C   UNL     1      40.941 -15.953   3.183  1.00  0.00     0.084 A 
HETATM   10  C   UNL     1      41.611 -13.212   5.656  1.00  0.00     0.018 A 
HETATM   11  C   UNL     1      40.551 -12.336   5.435  1.00  0.00     0.001 A 
ENDROOT
BRANCH   9  12
HETATM   12  C   UNL     1      39.920 -16.377   2.132  1.00  0.00     0.185 C 
BRANCH  12  13
HETATM   13  N   UNL     1      40.062 -15.546   0.954  1.00  0.00    -0.351 N 
HETATM   14  C   UNL     1      41.080 -15.732   0.046  1.00  0.00     0.253 C 
HETATM   15  O   UNL     1      41.857 -16.682   0.106  1.00  0.00    -0.268 OA
HETATM   16  H   UNL     1      39.435 -14.759   0.831  1.00  0.00     0.163 HD
BRANCH  14  17
HETATM   17  C   UNL     1      41.169 -14.762  -1.089  1.00  0.00     0.048 A 
HETATM   18  C   UNL     1      41.409 -13.380  -0.990  1.00  0.00     0.022 A 
HETATM   19  I   UNL     1      41.821 -12.341   0.794  1.00  0.00    -0.043 I 
HETATM   20  C   UNL     1      41.449 -12.594  -2.154  1.00  0.00     0.019 A 
HETATM   21  C   UNL     1      41.273 -13.171  -3.412  1.00  0.00     0.001 A 
HETATM   22  C   UNL     1      41.060 -14.539  -3.521  1.00  0.00     0.001 A 
HETATM   23  C   UNL     1      41.010 -15.327  -2.370  1.00  0.00     0.018 A 
ENDBRANCH  14  17
ENDBRANCH  12  13
ENDBRANCH   9  12
BRANCH   7  24
HETATM   24  C   UNL     1      43.871 -17.479   4.612  1.00  0.00     0.182 C 
BRANCH  24  25
HETATM   25  C   UNL     1      43.377 -18.899   4.308  1.00  0.00     0.256 C 
BRANCH  25  26
HETATM   26  N   UNL     1      44.223 -19.574   3.241  1.00  0.00    -0.070 N 
HETATM   27  H   UNL     1      45.024 -18.960   3.038  1.00  0.00     0.279 HD
HETATM   28  C   UNL     1      43.466 -19.772   1.936  1.00  0.00     0.235 C 
HETATM   29  C   UNL     1      43.305 -21.274   1.814  1.00  0.00     0.029 C 
HETATM   30  C   UNL     1      44.581 -21.804   2.430  1.00  0.00     0.029 C 
HETATM   31  C   UNL     1      44.751 -20.937   3.660  1.00  0.00     0.235 C 
ENDBRANCH  25  26
ENDBRANCH  24  25
ENDBRANCH   7  24
TORSDOF 6
ENDMDL
MODEL 7
REMARK VINA RESULT:      -7.6      4.049      7.166
REMARK  6 active torsions:
REMARK  status: ('A' for Active; 'I' for Inactive)
REMARK    1  A    between atoms: N_7  and  C_8 
REMARK    2  A    between atoms: C_8  and  C_9 
REMARK    3  A    between atoms: C_9  and  N_10 
REMARK    4  A    between atoms: C_17  and  C_18 
REMARK    5  A    between atoms: C_18  and  N_19 
REMARK       I    between atoms: N_19  and  C_20 
REMARK    6  A    between atoms: C_20  and  C_21 
ROOT
HETATM    1  C   UNL     1      45.098 -18.523   6.433  1.00  0.00     0.001 A 
HETATM    2  C   UNL     1      44.991 -17.140   6.608  1.00  0.00     0.014 A 
HETATM    3  C   UNL     1      43.844 -16.466   6.175  1.00  0.00     0.008 A 
HETATM    4  C   UNL     1      42.810 -17.183   5.576  1.00  0.00     0.046 A 
HETATM    5  C   UNL     1      41.589 -16.478   5.141  1.00  0.00     0.274 A 
HETATM    6  O   UNL     1      40.642 -17.102   4.670  1.00  0.00    -0.266 OA
HETATM    7  N   UNL     1      41.581 -15.096   5.302  1.00  0.00    -0.232 N 
HETATM    8  N   UNL     1      42.582 -14.392   5.903  1.00  0.00    -0.172 NA
HETATM    9  C   UNL     1      43.650 -15.005   6.318  1.00  0.00     0.084 A 
HETATM   10  C   UNL     1      42.917 -18.569   5.402  1.00  0.00     0.018 A 
HETATM   11  C   UNL     1      44.063 -19.236   5.829  1.00  0.00     0.001 A 
ENDROOT
BRANCH   9  12
HETATM   12  C   UNL     1      44.717 -14.152   6.998  1.00  0.00     0.185 C 
BRANCH  12  13
HETATM   13  N   UNL     1      44.086 -13.217   7.906  1.00  0.00    -0.351 N 
HETATM   14  C   UNL     1      44.809 -12.282   8.612  1.00  0.00     0.253 C 
HETATM   15  O   UNL     1      46.010 -12.097   8.432  1.00  0.00    -0.268 OA
HETATM   16  H   UNL     1      43.091 -13.299   8.080  1.00  0.00     0.163 HD
BRANCH  14  17
HETATM   17  C   UNL     1      44.056 -11.424   9.578  1.00  0.00     0.048 A 
HETATM   18  C   UNL     1      42.867 -10.718   9.320  1.00  0.00     0.022 A 
HETATM   19  I   UNL     1      41.778 -10.789   7.520  1.00  0.00    -0.043 I 
HETATM   20  C   UNL     1      42.285  -9.937  10.332  1.00  0.00     0.019 A 
HETATM   21  C   UNL     1      42.861  -9.868  11.601  1.00  0.00     0.001 A 
HETATM   22  C   UNL     1      44.022 -10.581  11.873  1.00  0.00     0.001 A 
HETATM   23  C   UNL     1      44.612 -11.353  10.871  1.00  0.00     0.018 A 
ENDBRANCH  14  17
ENDBRANCH  12  13
ENDBRANCH   9  12
BRANCH   7  24
HETATM   24  C   UNL     1      40.352 -14.364   5.026  1.00  0.00     0.182 C 
BRANCH  24  25
HETATM   25  C   UNL     1      40.452 -13.443   3.803  1.00  0.00     0.256 C 
BRANCH  25  26
HETATM   26  N   UNL     1      41.471 -13.951   2.796  1.00  0.00    -0.070 N 
HETATM   27  H   UNL     1      42.193 -14.471   3.312  1.00  0.00     0.279 HD
HETATM   28  C   UNL     1      42.172 -12.820   2.057  1.00  0.00     0.235 C 
HETATM   29  C   UNL     1      41.686 -12.942   0.627  1.00  0.00     0.029 C 
HETATM   30  C   UNL     1      41.530 -14.436   0.446  1.00  0.00     0.029 C 
HETATM   31  C   UNL     1      40.872 -14.867   1.741  1.00  0.00     0.235 C 
ENDBRANCH  25  26
ENDBRANCH  24  25
ENDBRANCH   7  24
TORSDOF 6
ENDMDL
MODEL 8
REMARK VINA RESULT:      -7.4      2.213      3.256
REMARK  6 active torsions:
REMARK  status: ('A' for Active; 'I' for Inactive)
REMARK    1  A    between atoms: N_7  and  C_8 
REMARK    2  A    between atoms: C_8  and  C_9 
REMARK    3  A    between atoms: C_9  and  N_10 
REMARK    4  A    between atoms: C_17  and  C_18 
REMARK    5  A    between atoms: C_18  and  N_19 
REMARK       I    between atoms: N_19  and  C_20 
REMARK    6  A    between atoms: C_20  and  C_21 
ROOT
HETATM    1  C   UNL     1      43.440 -19.839   2.181  1.00  0.00     0.001 A 
HETATM    2  C   UNL     1      42.434 -18.879   2.033  1.00  0.00     0.014 A 
HETATM    3  C   UNL     1      42.327 -17.830   2.953  1.00  0.00     0.008 A 
HETATM    4  C   UNL     1      43.233 -17.747   4.010  1.00  0.00     0.046 A 
HETATM    5  C   UNL     1      43.137 -16.629   4.967  1.00  0.00     0.274 A 
HETATM    6  O   UNL     1      43.963 -16.504   5.867  1.00  0.00    -0.266 OA
HETATM    7  N   UNL     1      42.078 -15.745   4.784  1.00  0.00    -0.232 N 
HETATM    8  N   UNL     1      41.201 -15.811   3.742  1.00  0.00    -0.172 NA
HETATM    9  C   UNL     1      41.293 -16.774   2.874  1.00  0.00     0.084 A 
HETATM   10  C   UNL     1      44.240 -18.710   4.157  1.00  0.00     0.018 A 
HETATM   11  C   UNL     1      44.340 -19.755   3.242  1.00  0.00     0.001 A 
ENDROOT
BRANCH   9  12
HETATM   12  C   UNL     1      40.287 -16.769   1.726  1.00  0.00     0.185 C 
BRANCH  12  13
HETATM   13  N   UNL     1      40.812 -15.989   0.625  1.00  0.00    -0.351 N 
HETATM   14  C   UNL     1      40.180 -14.855   0.164  1.00  0.00     0.253 C 
HETATM   15  O   UNL     1      39.204 -14.365   0.727  1.00  0.00    -0.268 OA
HETATM   16  H   UNL     1      41.631 -16.325   0.133  1.00  0.00     0.163 HD
BRANCH  14  17
HETATM   17  C   UNL     1      40.774 -14.179  -1.030  1.00  0.00     0.048 A 
HETATM   18  C   UNL     1      41.404 -12.921  -1.051  1.00  0.00     0.022 A 
HETATM   19  I   UNL     1      41.772 -11.717   0.636  1.00  0.00    -0.043 I 
HETATM   20  C   UNL     1      41.901 -12.410  -2.262  1.00  0.00     0.019 A 
HETATM   21  C   UNL     1      41.796 -13.144  -3.443  1.00  0.00     0.001 A 
HETATM   22  C   UNL     1      41.198 -14.397  -3.427  1.00  0.00     0.001 A 
HETATM   23  C   UNL     1      40.693 -14.910  -2.231  1.00  0.00     0.018 A 
ENDBRANCH  14  17
ENDBRANCH  12  13
ENDBRANCH   9  12
BRANCH   7  24
HETATM   24  C   UNL     1      42.015 -14.544   5.606  1.00  0.00     0.182 C 
BRANCH  24  25
HETATM   25  C   UNL     1      42.430 -13.270   4.859  1.00  0.00     0.256 C 
BRANCH  25  26
HETATM   26  N   UNL     1      41.387 -12.173   4.992  1.00  0.00    -0.070 N 
HETATM   27  H   UNL     1      41.831 -11.282   4.729  1.00  0.00     0.279 HD
HETATM   28  C   UNL     1      40.880 -12.020   6.418  1.00  0.00     0.235 C 
HETATM   29  C   UNL     1      39.434 -12.469   6.357  1.00  0.00     0.029 C 
HETATM   30  C   UNL     1      38.992 -12.012   4.985  1.00  0.00     0.029 C 
HETATM   31  C   UNL     1      40.169 -12.387   4.107  1.00  0.00     0.235 C 
ENDBRANCH  25  26
ENDBRANCH  24  25
ENDBRANCH   7  24
TORSDOF 6
ENDMDL
MODEL 9
REMARK VINA RESULT:      -7.3      2.840      4.938
REMARK  6 active torsions:
REMARK  status: ('A' for Active; 'I' for Inactive)
REMARK    1  A    between atoms: N_7  and  C_8 
REMARK    2  A    between atoms: C_8  and  C_9 
REMARK    3  A    between atoms: C_9  and  N_10 
REMARK    4  A    between atoms: C_17  and  C_18 
REMARK    5  A    between atoms: C_18  and  N_19 
REMARK       I    between atoms: N_19  and  C_20 
REMARK    6  A    between atoms: C_20  and  C_21 
ROOT
HETATM    1  C   UNL     1      44.179 -19.123   6.386  1.00  0.00     0.001 A 
HETATM    2  C   UNL     1      43.141 -18.212   6.168  1.00  0.00     0.014 A 
HETATM    3  C   UNL     1      42.652 -18.005   4.873  1.00  0.00     0.008 A 
HETATM    4  C   UNL     1      43.202 -18.717   3.808  1.00  0.00     0.046 A 
HETATM    5  C   UNL     1      42.672 -18.518   2.446  1.00  0.00     0.274 A 
HETATM    6  O   UNL     1      43.100 -19.182   1.506  1.00  0.00    -0.266 OA
HETATM    7  N   UNL     1      41.676 -17.557   2.303  1.00  0.00    -0.232 N 
HETATM    8  N   UNL     1      41.122 -16.871   3.343  1.00  0.00    -0.172 NA
HETATM    9  C   UNL     1      41.560 -17.059   4.552  1.00  0.00     0.084 A 
HETATM   10  C   UNL     1      44.242 -19.630   4.028  1.00  0.00     0.018 A 
HETATM   11  C   UNL     1      44.730 -19.829   5.318  1.00  0.00     0.001 A 
ENDROOT
BRANCH   9  12
HETATM   12  C   UNL     1      40.877 -16.269   5.665  1.00  0.00     0.185 C 
BRANCH  12  13
HETATM   13  N   UNL     1      40.154 -15.152   5.094  1.00  0.00    -0.351 N 
HETATM   14  C   UNL     1      40.700 -13.890   5.016  1.00  0.00     0.253 C 
HETATM   15  O   UNL     1      41.869 -13.654   5.310  1.00  0.00    -0.268 OA
HETATM   16  H   UNL     1      39.192 -15.286   4.807  1.00  0.00     0.163 HD
BRANCH  14  17
HETATM   17  C   UNL     1      39.828 -12.800   4.479  1.00  0.00     0.048 A 
HETATM   18  C   UNL     1      39.382 -11.665   5.178  1.00  0.00     0.022 A 
HETATM   19  I   UNL     1      39.932 -11.154   7.145  1.00  0.00    -0.043 I 
HETATM   20  C   UNL     1      38.549 -10.732   4.537  1.00  0.00     0.019 A 
HETATM   21  C   UNL     1      38.174 -10.908   3.205  1.00  0.00     0.001 A 
HETATM   22  C   UNL     1      38.630 -12.014   2.498  1.00  0.00     0.001 A 
HETATM   23  C   UNL     1      39.451 -12.950   3.130  1.00  0.00     0.018 A 
ENDBRANCH  14  17
ENDBRANCH  12  13
ENDBRANCH   9  12
BRANCH   7  24
HETATM   24  C   UNL     1      41.013 -17.418   1.013  1.00  0.00     0.182 C 
BRANCH  24  25
HETATM   25  C   UNL     1      41.565 -16.266   0.164  1.00  0.00     0.256 C 
BRANCH  25  26
HETATM   26  N   UNL     1      41.046 -14.918   0.636  1.00  0.00    -0.070 N 
HETATM   27  H   UNL     1      40.538 -15.067   1.520  1.00  0.00     0.279 HD
HETATM   28  C   UNL     1      40.066 -14.294  -0.346  1.00  0.00     0.235 C 
HETATM   29  C   UNL     1      40.790 -13.079  -0.887  1.00  0.00     0.029 C 
HETATM   30  C   UNL     1      41.596 -12.606   0.303  1.00  0.00     0.029 C 
HETATM   31  C   UNL     1      42.146 -13.896   0.875  1.00  0.00     0.235 C 
ENDBRANCH  25  26
ENDBRANCH  24  25
ENDBRANCH   7  24
TORSDOF 6
ENDMDL
MODEL 10
REMARK VINA RESULT:      -7.2      2.601      6.235
REMARK  6 active torsions:
REMARK  status: ('A' for Active; 'I' for Inactive)
REMARK    1  A    between atoms: N_7  and  C_8 
REMARK    2  A    between atoms: C_8  and  C_9 
REMARK    3  A    between atoms: C_9  and  N_10 
REMARK    4  A    between atoms: C_17  and  C_18 
REMARK    5  A    between atoms: C_18  and  N_19 
REMARK       I    between atoms: N_19  and  C_20 
REMARK    6  A    between atoms: C_20  and  C_21 
ROOT
HETATM    1  C   UNL     1      39.510 -11.466   4.082  1.00  0.00     0.001 A 
HETATM    2  C   UNL     1      40.298 -12.229   3.215  1.00  0.00     0.014 A 
HETATM    3  C   UNL     1      40.689 -13.522   3.580  1.00  0.00     0.008 A 
HETATM    4  C   UNL     1      40.282 -14.043   4.807  1.00  0.00     0.046 A 
HETATM    5  C   UNL     1      40.673 -15.415   5.182  1.00  0.00     0.274 A 
HETATM    6  O   UNL     1      40.272 -15.914   6.230  1.00  0.00    -0.266 OA
HETATM    7  N   UNL     1      41.502 -16.090   4.291  1.00  0.00    -0.232 N 
HETATM    8  N   UNL     1      41.888 -15.592   3.082  1.00  0.00    -0.172 NA
HETATM    9  C   UNL     1      41.525 -14.396   2.725  1.00  0.00     0.084 A 
HETATM   10  C   UNL     1      39.492 -13.278   5.674  1.00  0.00     0.018 A 
HETATM   11  C   UNL     1      39.109 -11.989   5.310  1.00  0.00     0.001 A 
ENDROOT
BRANCH   9  12
HETATM   12  C   UNL     1      41.981 -13.916   1.350  1.00  0.00     0.185 C 
BRANCH  12  13
HETATM   13  N   UNL     1      41.054 -14.385   0.341  1.00  0.00    -0.351 N 
HETATM   14  C   UNL     1      41.137 -13.980  -0.973  1.00  0.00     0.253 C 
HETATM   15  O   UNL     1      42.065 -13.297  -1.399  1.00  0.00    -0.268 OA
HETATM   16  H   UNL     1      40.280 -14.973   0.623  1.00  0.00     0.163 HD
BRANCH  14  17
HETATM   17  C   UNL     1      40.076 -14.469  -1.907  1.00  0.00     0.048 A 
HETATM   18  C   UNL     1      38.752 -14.004  -1.985  1.00  0.00     0.022 A 
HETATM   19  I   UNL     1      37.956 -12.404  -0.873  1.00  0.00    -0.043 I 
HETATM   20  C   UNL     1      37.864 -14.580  -2.910  1.00  0.00     0.019 A 
HETATM   21  C   UNL     1      38.286 -15.595  -3.768  1.00  0.00     0.001 A 
HETATM   22  C   UNL     1      39.599 -16.045  -3.714  1.00  0.00     0.001 A 
HETATM   23  C   UNL     1      40.486 -15.485  -2.793  1.00  0.00     0.018 A 
ENDBRANCH  14  17
ENDBRANCH  12  13
ENDBRANCH   9  12
BRANCH   7  24
HETATM   24  C   UNL     1      41.803 -17.494   4.536  1.00  0.00     0.182 C 
BRANCH  24  25
HETATM   25  C   UNL     1      42.318 -18.234   3.296  1.00  0.00     0.256 C 
BRANCH  25  26
HETATM   26  N   UNL     1      43.787 -18.601   3.427  1.00  0.00    -0.070 N 
HETATM   27  H   UNL     1      44.335 -17.730   3.390  1.00  0.00     0.279 HD
HETATM   28  C   UNL     1      44.270 -19.486   2.287  1.00  0.00     0.235 C 
HETATM   29  C   UNL     1      44.564 -20.821   2.940  1.00  0.00     0.029 C 
HETATM   30  C   UNL     1      45.072 -20.426   4.310  1.00  0.00     0.029 C 
HETATM   31  C   UNL     1      44.115 -19.326   4.722  1.00  0.00     0.235 C 
ENDBRANCH  25  26
ENDBRANCH  24  25
ENDBRANCH   7  24
TORSDOF 6
ENDMDL
