MODEL 1
REMARK VINA RESULT:      -8.0      0.000      0.000
REMARK  8 active torsions:
REMARK  status: ('A' for Active; 'I' for Inactive)
REMARK    1  A    between atoms: N_2  and  C_3 
REMARK    2  A    between atoms: C_6  and  N_7 
REMARK       I    between atoms: N_7  and  C_8 
REMARK    3  A    between atoms: C_8  and  C_9 
REMARK    4  A    between atoms: C_9  and  O_10 
REMARK    5  A    between atoms: O_10  and  C_11 
REMARK    6  A    between atoms: C_11  and  C_12 
REMARK    7  A    between atoms: C_13  and  N_14 
REMARK       I    between atoms: N_14  and  C_15 
REMARK    8  A    between atoms: C_15  and  C_16 
ROOT
HETATM    1  C   UNL     1      44.650 -19.379   5.699  1.00  0.00     0.296 C 
HETATM    2  O   UNL     1      45.583 -18.594   5.782  1.00  0.00    -0.259 OA
ENDROOT
BRANCH   1   3
HETATM    3  O   UNL     1      43.726 -19.628   6.658  1.00  0.00    -0.308 OA
BRANCH   3   4
HETATM    4  C   UNL     1      43.928 -18.928   7.883  1.00  0.00     0.282 C 
BRANCH   4   5
HETATM    5  C   UNL     1      43.409 -17.485   7.882  1.00  0.00     0.246 C 
HETATM    6  N   UNL     1      42.873 -17.105   6.664  1.00  0.00    -0.325 N 
HETATM    7  H   UNL     1      42.982 -17.778   5.902  1.00  0.00     0.169 HD
HETATM    8  O   UNL     1      43.475 -16.794   8.896  1.00  0.00    -0.271 OA
BRANCH   6   9
HETATM    9  C   UNL     1      42.249 -15.888   6.332  1.00  0.00     0.034 A 
HETATM   10  C   UNL     1      40.878 -15.732   6.160  1.00  0.00     0.032 A 
HETATM   11  C   UNL     1      40.339 -14.483   5.804  1.00  0.00     0.031 A 
HETATM   12  C   UNL     1      41.143 -13.348   5.624  1.00  0.00     0.029 A 
HETATM   13  C   UNL     1      42.524 -13.533   5.793  1.00  0.00     0.031 A 
HETATM   14  C   UNL     1      43.071 -14.777   6.144  1.00  0.00     0.032 A 
BRANCH  12  15
HETATM   15  N   UNL     1      40.635 -12.096   5.243  1.00  0.00    -0.390 N 
HETATM   16  C   UNL     1      39.177 -11.963   5.316  1.00  0.00     0.149 C 
HETATM   17  C   UNL     1      41.243 -11.422   4.095  1.00  0.00     0.149 C 
ENDBRANCH  12  15
ENDBRANCH   6   9
ENDBRANCH   4   5
ENDBRANCH   3   4
ENDBRANCH   1   3
BRANCH   1  18
HETATM   18  C   UNL     1      44.400 -20.252   4.533  1.00  0.00     0.066 A 
HETATM   19  C   UNL     1      44.059 -19.742   3.267  1.00  0.00     0.051 A 
HETATM   20  C   UNL     1      44.118 -20.604   2.161  1.00  0.00     0.030 A 
HETATM   21  C   UNL     1      44.429 -21.958   2.316  1.00  0.00     0.002 A 
HETATM   22  C   UNL     1      44.708 -22.468   3.579  1.00  0.00     0.001 A 
HETATM   23  C   UNL     1      44.711 -21.617   4.683  1.00  0.00     0.020 A 
BRANCH  19  24
HETATM   24  N   UNL     1      43.638 -18.423   2.984  1.00  0.00    -0.320 N 
HETATM   25  C   UNL     1      42.451 -17.827   3.378  1.00  0.00     0.279 C 
HETATM   26  O   UNL     1      41.573 -18.382   4.032  1.00  0.00    -0.265 OA
HETATM   27  H   UNL     1      44.124 -17.922   2.246  1.00  0.00     0.169 HD
BRANCH  25  28
HETATM   28  C   UNL     1      42.295 -16.484   2.851  1.00  0.00     0.142 A 
HETATM   29  O   UNL     1      41.035 -16.006   2.583  1.00  0.00    -0.317 OA
HETATM   30  C   UNL     1      41.179 -14.736   2.122  1.00  0.00     0.143 A 
HETATM   31  C   UNL     1      42.507 -14.380   2.095  1.00  0.00     0.027 A 
HETATM   32  C   UNL     1      43.227 -15.505   2.563  1.00  0.00     0.045 A 
ENDBRANCH  25  28
ENDBRANCH  19  24
ENDBRANCH   1  18
TORSDOF 8
ENDMDL
MODEL 2
REMARK VINA RESULT:      -8.0      1.905      3.944
REMARK  8 active torsions:
REMARK  status: ('A' for Active; 'I' for Inactive)
REMARK    1  A    between atoms: N_2  and  C_3 
REMARK    2  A    between atoms: C_6  and  N_7 
REMARK       I    between atoms: N_7  and  C_8 
REMARK    3  A    between atoms: C_8  and  C_9 
REMARK    4  A    between atoms: C_9  and  O_10 
REMARK    5  A    between atoms: O_10  and  C_11 
REMARK    6  A    between atoms: C_11  and  C_12 
REMARK    7  A    between atoms: C_13  and  N_14 
REMARK       I    between atoms: N_14  and  C_15 
REMARK    8  A    between atoms: C_15  and  C_16 
ROOT
HETATM    1  C   UNL     1      43.065 -18.338   1.704  1.00  0.00     0.296 C 
HETATM    2  O   UNL     1      43.545 -17.716   0.768  1.00  0.00    -0.259 OA
ENDROOT
BRANCH   1   3
HETATM    3  O   UNL     1      41.860 -18.115   2.281  1.00  0.00    -0.308 OA
BRANCH   3   4
HETATM    4  C   UNL     1      40.933 -17.392   1.473  1.00  0.00     0.282 C 
BRANCH   4   5
HETATM    5  C   UNL     1      40.324 -16.160   2.155  1.00  0.00     0.246 C 
HETATM    6  N   UNL     1      41.090 -15.692   3.208  1.00  0.00    -0.325 N 
HETATM    7  H   UNL     1      41.892 -16.272   3.465  1.00  0.00     0.169 HD
HETATM    8  O   UNL     1      39.270 -15.675   1.750  1.00  0.00    -0.271 OA
BRANCH   6   9
HETATM    9  C   UNL     1      40.870 -14.551   4.002  1.00  0.00     0.034 A 
HETATM   10  C   UNL     1      41.189 -13.254   3.616  1.00  0.00     0.032 A 
HETATM   11  C   UNL     1      40.957 -12.172   4.482  1.00  0.00     0.031 A 
HETATM   12  C   UNL     1      40.387 -12.342   5.753  1.00  0.00     0.029 A 
HETATM   13  C   UNL     1      40.084 -13.662   6.124  1.00  0.00     0.031 A 
HETATM   14  C   UNL     1      40.316 -14.748   5.267  1.00  0.00     0.032 A 
BRANCH  12  15
HETATM   15  N   UNL     1      40.170 -11.284   6.649  1.00  0.00    -0.390 N 
HETATM   16  C   UNL     1      41.293 -10.354   6.804  1.00  0.00     0.149 C 
HETATM   17  C   UNL     1      39.445 -11.563   7.889  1.00  0.00     0.149 C 
ENDBRANCH  12  15
ENDBRANCH   6   9
ENDBRANCH   4   5
ENDBRANCH   3   4
ENDBRANCH   1   3
BRANCH   1  18
HETATM   18  C   UNL     1      43.761 -19.428   2.420  1.00  0.00     0.066 A 
HETATM   19  C   UNL     1      44.175 -19.308   3.758  1.00  0.00     0.051 A 
HETATM   20  C   UNL     1      44.566 -20.470   4.444  1.00  0.00     0.030 A 
HETATM   21  C   UNL     1      44.622 -21.707   3.796  1.00  0.00     0.002 A 
HETATM   22  C   UNL     1      44.266 -21.807   2.455  1.00  0.00     0.001 A 
HETATM   23  C   UNL     1      43.821 -20.676   1.772  1.00  0.00     0.020 A 
BRANCH  19  24
HETATM   24  N   UNL     1      44.257 -18.111   4.504  1.00  0.00    -0.320 N 
HETATM   25  C   UNL     1      43.267 -17.561   5.303  1.00  0.00     0.279 C 
HETATM   26  O   UNL     1      42.151 -18.043   5.465  1.00  0.00    -0.265 OA
HETATM   27  H   UNL     1      45.008 -17.466   4.277  1.00  0.00     0.169 HD
BRANCH  25  28
HETATM   28  C   UNL     1      43.650 -16.279   5.867  1.00  0.00     0.142 A 
HETATM   29  O   UNL     1      43.751 -15.183   5.045  1.00  0.00    -0.317 OA
HETATM   30  C   UNL     1      44.103 -14.129   5.826  1.00  0.00     0.143 A 
HETATM   31  C   UNL     1      44.222 -14.519   7.139  1.00  0.00     0.027 A 
HETATM   32  C   UNL     1      43.932 -15.904   7.167  1.00  0.00     0.045 A 
ENDBRANCH  25  28
ENDBRANCH  19  24
ENDBRANCH   1  18
TORSDOF 8
ENDMDL
MODEL 3
REMARK VINA RESULT:      -7.8      4.342      8.080
REMARK  8 active torsions:
REMARK  status: ('A' for Active; 'I' for Inactive)
REMARK    1  A    between atoms: N_2  and  C_3 
REMARK    2  A    between atoms: C_6  and  N_7 
REMARK       I    between atoms: N_7  and  C_8 
REMARK    3  A    between atoms: C_8  and  C_9 
REMARK    4  A    between atoms: C_9  and  O_10 
REMARK    5  A    between atoms: O_10  and  C_11 
REMARK    6  A    between atoms: C_11  and  C_12 
REMARK    7  A    between atoms: C_13  and  N_14 
REMARK       I    between atoms: N_14  and  C_15 
REMARK    8  A    between atoms: C_15  and  C_16 
ROOT
HETATM    1  C   UNL     1      44.694 -11.238   9.513  1.00  0.00     0.296 C 
HETATM    2  O   UNL     1      45.699 -10.631   9.172  1.00  0.00    -0.259 OA
ENDROOT
BRANCH   1   3
HETATM    3  O   UNL     1      44.284 -12.438   9.037  1.00  0.00    -0.308 OA
BRANCH   3   4
HETATM    4  C   UNL     1      45.183 -13.060   8.122  1.00  0.00     0.282 C 
BRANCH   4   5
HETATM    5  C   UNL     1      44.515 -14.025   7.133  1.00  0.00     0.246 C 
HETATM    6  N   UNL     1      43.361 -13.508   6.572  1.00  0.00    -0.325 N 
HETATM    7  H   UNL     1      43.044 -12.614   6.954  1.00  0.00     0.169 HD
HETATM    8  O   UNL     1      45.013 -15.123   6.895  1.00  0.00    -0.271 OA
BRANCH   6   9
HETATM    9  C   UNL     1      42.542 -14.086   5.584  1.00  0.00     0.034 A 
HETATM   10  C   UNL     1      41.578 -15.057   5.833  1.00  0.00     0.032 A 
HETATM   11  C   UNL     1      40.820 -15.598   4.781  1.00  0.00     0.031 A 
HETATM   12  C   UNL     1      40.984 -15.182   3.451  1.00  0.00     0.029 A 
HETATM   13  C   UNL     1      41.971 -14.210   3.224  1.00  0.00     0.031 A 
HETATM   14  C   UNL     1      42.735 -13.667   4.267  1.00  0.00     0.032 A 
BRANCH  12  15
HETATM   15  N   UNL     1      40.260 -15.725   2.378  1.00  0.00    -0.390 N 
HETATM   16  C   UNL     1      41.073 -16.292   1.297  1.00  0.00     0.149 C 
HETATM   17  C   UNL     1      39.063 -15.018   1.922  1.00  0.00     0.149 C 
ENDBRANCH  12  15
ENDBRANCH   6   9
ENDBRANCH   4   5
ENDBRANCH   3   4
ENDBRANCH   1   3
BRANCH   1  18
HETATM   18  C   UNL     1      43.704 -10.725  10.482  1.00  0.00     0.066 A 
HETATM   19  C   UNL     1      42.317 -10.835  10.275  1.00  0.00     0.051 A 
HETATM   20  C   UNL     1      41.457 -10.586  11.357  1.00  0.00     0.030 A 
HETATM   21  C   UNL     1      41.954 -10.160  12.591  1.00  0.00     0.002 A 
HETATM   22  C   UNL     1      43.324  -9.997  12.772  1.00  0.00     0.001 A 
HETATM   23  C   UNL     1      44.198 -10.294  11.728  1.00  0.00     0.020 A 
BRANCH  19  24
HETATM   24  N   UNL     1      41.679 -11.164   9.058  1.00  0.00    -0.320 N 
HETATM   25  C   UNL     1      41.594 -10.373   7.923  1.00  0.00     0.279 C 
HETATM   26  O   UNL     1      42.063  -9.243   7.822  1.00  0.00    -0.265 OA
HETATM   27  H   UNL     1      41.029 -11.945   9.064  1.00  0.00     0.169 HD
BRANCH  25  28
HETATM   28  C   UNL     1      40.798 -10.981   6.873  1.00  0.00     0.142 A 
HETATM   29  O   UNL     1      39.860 -11.931   7.201  1.00  0.00    -0.317 OA
HETATM   30  C   UNL     1      39.258 -12.313   6.045  1.00  0.00     0.143 A 
HETATM   31  C   UNL     1      39.780 -11.623   4.977  1.00  0.00     0.027 A 
HETATM   32  C   UNL     1      40.773 -10.765   5.508  1.00  0.00     0.045 A 
ENDBRANCH  25  28
ENDBRANCH  19  24
ENDBRANCH   1  18
TORSDOF 8
ENDMDL
MODEL 4
REMARK VINA RESULT:      -7.6      5.256      7.550
REMARK  8 active torsions:
REMARK  status: ('A' for Active; 'I' for Inactive)
REMARK    1  A    between atoms: N_2  and  C_3 
REMARK    2  A    between atoms: C_6  and  N_7 
REMARK       I    between atoms: N_7  and  C_8 
REMARK    3  A    between atoms: C_8  and  C_9 
REMARK    4  A    between atoms: C_9  and  O_10 
REMARK    5  A    between atoms: O_10  and  C_11 
REMARK    6  A    between atoms: C_11  and  C_12 
REMARK    7  A    between atoms: C_13  and  N_14 
REMARK       I    between atoms: N_14  and  C_15 
REMARK    8  A    between atoms: C_15  and  C_16 
ROOT
HETATM    1  C   UNL     1      42.253 -13.191   5.075  1.00  0.00     0.296 C 
HETATM    2  O   UNL     1      42.388 -12.466   4.100  1.00  0.00    -0.259 OA
ENDROOT
BRANCH   1   3
HETATM    3  O   UNL     1      41.476 -12.941   6.156  1.00  0.00    -0.308 OA
BRANCH   3   4
HETATM    4  C   UNL     1      40.823 -11.673   6.147  1.00  0.00     0.282 C 
BRANCH   4   5
HETATM    5  C   UNL     1      40.347 -11.194   7.524  1.00  0.00     0.246 C 
HETATM    6  N   UNL     1      41.371 -11.114   8.451  1.00  0.00    -0.325 N 
HETATM    7  H   UNL     1      42.277 -11.476   8.143  1.00  0.00     0.169 HD
HETATM    8  O   UNL     1      39.167 -10.910   7.716  1.00  0.00    -0.271 OA
BRANCH   6   9
HETATM    9  C   UNL     1      41.307 -10.649   9.778  1.00  0.00     0.034 A 
HETATM   10  C   UNL     1      40.583 -11.268  10.791  1.00  0.00     0.032 A 
HETATM   11  C   UNL     1      40.554 -10.721  12.085  1.00  0.00     0.031 A 
HETATM   12  C   UNL     1      41.256  -9.553  12.418  1.00  0.00     0.029 A 
HETATM   13  C   UNL     1      41.970  -8.942  11.376  1.00  0.00     0.031 A 
HETATM   14  C   UNL     1      42.001  -9.477  10.080  1.00  0.00     0.032 A 
BRANCH  12  15
HETATM   15  N   UNL     1      41.223  -8.971  13.695  1.00  0.00    -0.390 N 
HETATM   16  C   UNL     1      41.575  -9.867  14.801  1.00  0.00     0.149 C 
HETATM   17  C   UNL     1      40.141  -8.035  14.002  1.00  0.00     0.149 C 
ENDBRANCH  12  15
ENDBRANCH   6   9
ENDBRANCH   4   5
ENDBRANCH   3   4
ENDBRANCH   1   3
BRANCH   1  18
HETATM   18  C   UNL     1      42.976 -14.464   5.269  1.00  0.00     0.066 A 
HETATM   19  C   UNL     1      43.583 -14.809   6.490  1.00  0.00     0.051 A 
HETATM   20  C   UNL     1      43.996 -16.138   6.679  1.00  0.00     0.030 A 
HETATM   21  C   UNL     1      43.885 -17.082   5.655  1.00  0.00     0.002 A 
HETATM   22  C   UNL     1      43.336 -16.718   4.430  1.00  0.00     0.001 A 
HETATM   23  C   UNL     1      42.868 -15.420   4.241  1.00  0.00     0.020 A 
BRANCH  19  24
HETATM   24  N   UNL     1      43.842 -13.936   7.570  1.00  0.00    -0.320 N 
HETATM   25  C   UNL     1      45.008 -13.225   7.803  1.00  0.00     0.279 C 
HETATM   26  O   UNL     1      46.008 -13.269   7.092  1.00  0.00    -0.265 OA
HETATM   27  H   UNL     1      43.225 -13.987   8.375  1.00  0.00     0.169 HD
BRANCH  25  28
HETATM   28  C   UNL     1      44.973 -12.480   9.048  1.00  0.00     0.142 A 
HETATM   29  O   UNL     1      44.342 -13.023  10.141  1.00  0.00    -0.317 OA
HETATM   30  C   UNL     1      44.473 -12.133  11.160  1.00  0.00     0.143 A 
HETATM   31  C   UNL     1      45.184 -11.030  10.750  1.00  0.00     0.027 A 
HETATM   32  C   UNL     1      45.505 -11.251   9.390  1.00  0.00     0.045 A 
ENDBRANCH  25  28
ENDBRANCH  19  24
ENDBRANCH   1  18
TORSDOF 8
ENDMDL
MODEL 5
REMARK VINA RESULT:      -7.5      4.604      8.713
REMARK  8 active torsions:
REMARK  status: ('A' for Active; 'I' for Inactive)
REMARK    1  A    between atoms: N_2  and  C_3 
REMARK    2  A    between atoms: C_6  and  N_7 
REMARK       I    between atoms: N_7  and  C_8 
REMARK    3  A    between atoms: C_8  and  C_9 
REMARK    4  A    between atoms: C_9  and  O_10 
REMARK    5  A    between atoms: O_10  and  C_11 
REMARK    6  A    between atoms: C_11  and  C_12 
REMARK    7  A    between atoms: C_13  and  N_14 
REMARK       I    between atoms: N_14  and  C_15 
REMARK    8  A    between atoms: C_15  and  C_16 
ROOT
HETATM    1  C   UNL     1      41.701 -12.287   0.293  1.00  0.00     0.296 C 
HETATM    2  O   UNL     1      40.693 -12.980   0.289  1.00  0.00    -0.259 OA
ENDROOT
BRANCH   1   3
HETATM    3  O   UNL     1      42.515 -12.065   1.353  1.00  0.00    -0.308 OA
BRANCH   3   4
HETATM    4  C   UNL     1      42.153 -12.758   2.544  1.00  0.00     0.282 C 
BRANCH   4   5
HETATM    5  C   UNL     1      43.046 -13.961   2.876  1.00  0.00     0.246 C 
HETATM    6  N   UNL     1      42.498 -15.166   2.476  1.00  0.00    -0.325 N 
HETATM    7  H   UNL     1      41.543 -15.121   2.114  1.00  0.00     0.169 HD
HETATM    8  O   UNL     1      44.134 -13.802   3.426  1.00  0.00    -0.271 OA
BRANCH   6   9
HETATM    9  C   UNL     1      43.070 -16.450   2.557  1.00  0.00     0.034 A 
HETATM   10  C   UNL     1      43.636 -17.126   1.481  1.00  0.00     0.032 A 
HETATM   11  C   UNL     1      44.165 -18.417   1.646  1.00  0.00     0.031 A 
HETATM   12  C   UNL     1      44.163 -19.072   2.887  1.00  0.00     0.029 A 
HETATM   13  C   UNL     1      43.576 -18.373   3.955  1.00  0.00     0.031 A 
HETATM   14  C   UNL     1      43.042 -17.086   3.798  1.00  0.00     0.032 A 
BRANCH  12  15
HETATM   15  N   UNL     1      44.659 -20.371   3.074  1.00  0.00    -0.390 N 
HETATM   16  C   UNL     1      44.025 -21.408   2.254  1.00  0.00     0.149 C 
HETATM   17  C   UNL     1      44.987 -20.798   4.434  1.00  0.00     0.149 C 
ENDBRANCH  12  15
ENDBRANCH   6   9
ENDBRANCH   4   5
ENDBRANCH   3   4
ENDBRANCH   1   3
BRANCH   1  18
HETATM   18  C   UNL     1      42.179 -11.512  -0.870  1.00  0.00     0.066 A 
HETATM   19  C   UNL     1      41.571 -11.594  -2.135  1.00  0.00     0.051 A 
HETATM   20  C   UNL     1      41.898 -10.627  -3.099  1.00  0.00     0.030 A 
HETATM   21  C   UNL     1      42.865  -9.651  -2.844  1.00  0.00     0.002 A 
HETATM   22  C   UNL     1      43.505  -9.611  -1.609  1.00  0.00     0.001 A 
HETATM   23  C   UNL     1      43.153 -10.526  -0.619  1.00  0.00     0.020 A 
BRANCH  19  24
HETATM   24  N   UNL     1      40.652 -12.581  -2.557  1.00  0.00    -0.320 N 
HETATM   25  C   UNL     1      40.949 -13.775  -3.194  1.00  0.00     0.279 C 
HETATM   26  O   UNL     1      42.079 -14.142  -3.500  1.00  0.00    -0.265 OA
HETATM   27  H   UNL     1      39.672 -12.319  -2.611  1.00  0.00     0.169 HD
BRANCH  25  28
HETATM   28  C   UNL     1      39.762 -14.526  -3.561  1.00  0.00     0.142 A 
HETATM   29  O   UNL     1      39.897 -15.712  -4.241  1.00  0.00    -0.317 OA
HETATM   30  C   UNL     1      38.646 -16.204  -4.438  1.00  0.00     0.143 A 
HETATM   31  C   UNL     1      37.705 -15.364  -3.892  1.00  0.00     0.027 A 
HETATM   32  C   UNL     1      38.422 -14.282  -3.328  1.00  0.00     0.045 A 
ENDBRANCH  25  28
ENDBRANCH  19  24
ENDBRANCH   1  18
TORSDOF 8
ENDMDL
MODEL 6
REMARK VINA RESULT:      -7.5      2.871      4.850
REMARK  8 active torsions:
REMARK  status: ('A' for Active; 'I' for Inactive)
REMARK    1  A    between atoms: N_2  and  C_3 
REMARK    2  A    between atoms: C_6  and  N_7 
REMARK       I    between atoms: N_7  and  C_8 
REMARK    3  A    between atoms: C_8  and  C_9 
REMARK    4  A    between atoms: C_9  and  O_10 
REMARK    5  A    between atoms: O_10  and  C_11 
REMARK    6  A    between atoms: C_11  and  C_12 
REMARK    7  A    between atoms: C_13  and  N_14 
REMARK       I    between atoms: N_14  and  C_15 
REMARK    8  A    between atoms: C_15  and  C_16 
ROOT
HETATM    1  C   UNL     1      43.141 -18.440   1.691  1.00  0.00     0.296 C 
HETATM    2  O   UNL     1      43.687 -17.771   0.825  1.00  0.00    -0.259 OA
ENDROOT
BRANCH   1   3
HETATM    3  O   UNL     1      41.869 -18.290   2.134  1.00  0.00    -0.308 OA
BRANCH   3   4
HETATM    4  C   UNL     1      41.013 -17.553   1.264  1.00  0.00     0.282 C 
BRANCH   4   5
HETATM    5  C   UNL     1      40.464 -16.253   1.866  1.00  0.00     0.246 C 
HETATM    6  N   UNL     1      39.810 -15.463   0.938  1.00  0.00    -0.325 N 
HETATM    7  H   UNL     1      39.863 -15.782  -0.032  1.00  0.00     0.169 HD
HETATM    8  O   UNL     1      40.609 -16.005   3.061  1.00  0.00    -0.271 OA
BRANCH   6   9
HETATM    9  C   UNL     1      39.131 -14.249   1.155  1.00  0.00     0.034 A 
HETATM   10  C   UNL     1      39.565 -13.253   2.023  1.00  0.00     0.032 A 
HETATM   11  C   UNL     1      38.811 -12.080   2.199  1.00  0.00     0.031 A 
HETATM   12  C   UNL     1      37.612 -11.853   1.507  1.00  0.00     0.029 A 
HETATM   13  C   UNL     1      37.190 -12.878   0.646  1.00  0.00     0.031 A 
HETATM   14  C   UNL     1      37.933 -14.054   0.468  1.00  0.00     0.032 A 
BRANCH  12  15
HETATM   15  N   UNL     1      36.825 -10.703   1.683  1.00  0.00    -0.390 N 
HETATM   16  C   UNL     1      35.511 -10.738   1.034  1.00  0.00     0.149 C 
HETATM   17  C   UNL     1      37.485  -9.398   1.634  1.00  0.00     0.149 C 
ENDBRANCH  12  15
ENDBRANCH   6   9
ENDBRANCH   4   5
ENDBRANCH   3   4
ENDBRANCH   1   3
BRANCH   1  18
HETATM   18  C   UNL     1      43.809 -19.510   2.458  1.00  0.00     0.066 A 
HETATM   19  C   UNL     1      44.184 -19.353   3.805  1.00  0.00     0.051 A 
HETATM   20  C   UNL     1      44.549 -20.496   4.535  1.00  0.00     0.030 A 
HETATM   21  C   UNL     1      44.618 -21.751   3.925  1.00  0.00     0.002 A 
HETATM   22  C   UNL     1      44.302 -21.889   2.578  1.00  0.00     0.001 A 
HETATM   23  C   UNL     1      43.883 -20.778   1.849  1.00  0.00     0.020 A 
BRANCH  19  24
HETATM   24  N   UNL     1      44.249 -18.134   4.516  1.00  0.00    -0.320 N 
HETATM   25  C   UNL     1      43.236 -17.551   5.260  1.00  0.00     0.279 C 
HETATM   26  O   UNL     1      42.109 -18.018   5.393  1.00  0.00    -0.265 OA
HETATM   27  H   UNL     1      45.016 -17.503   4.300  1.00  0.00     0.169 HD
BRANCH  25  28
HETATM   28  C   UNL     1      43.609 -16.257   5.800  1.00  0.00     0.142 A 
HETATM   29  O   UNL     1      43.197 -15.113   5.159  1.00  0.00    -0.317 OA
HETATM   30  C   UNL     1      43.666 -14.061   5.878  1.00  0.00     0.143 A 
HETATM   31  C   UNL     1      44.367 -14.500   6.976  1.00  0.00     0.027 A 
HETATM   32  C   UNL     1      44.332 -15.914   6.927  1.00  0.00     0.045 A 
ENDBRANCH  25  28
ENDBRANCH  19  24
ENDBRANCH   1  18
TORSDOF 8
ENDMDL
MODEL 7
REMARK VINA RESULT:      -7.4      2.028      7.715
REMARK  8 active torsions:
REMARK  status: ('A' for Active; 'I' for Inactive)
REMARK    1  A    between atoms: N_2  and  C_3 
REMARK    2  A    between atoms: C_6  and  N_7 
REMARK       I    between atoms: N_7  and  C_8 
REMARK    3  A    between atoms: C_8  and  C_9 
REMARK    4  A    between atoms: C_9  and  O_10 
REMARK    5  A    between atoms: O_10  and  C_11 
REMARK    6  A    between atoms: C_11  and  C_12 
REMARK    7  A    between atoms: C_13  and  N_14 
REMARK       I    between atoms: N_14  and  C_15 
REMARK    8  A    between atoms: C_15  and  C_16 
ROOT
HETATM    1  C   UNL     1      41.344 -13.565   1.426  1.00  0.00     0.296 C 
HETATM    2  O   UNL     1      42.533 -13.291   1.513  1.00  0.00    -0.259 OA
ENDROOT
BRANCH   1   3
HETATM    3  O   UNL     1      40.780 -14.400   0.521  1.00  0.00    -0.308 OA
BRANCH   3   4
HETATM    4  C   UNL     1      41.620 -15.465   0.080  1.00  0.00     0.282 C 
BRANCH   4   5
HETATM    5  C   UNL     1      41.700 -16.652   1.049  1.00  0.00     0.246 C 
HETATM    6  N   UNL     1      43.000 -16.996   1.374  1.00  0.00    -0.325 N 
HETATM    7  H   UNL     1      43.732 -16.499   0.861  1.00  0.00     0.169 HD
HETATM    8  O   UNL     1      40.677 -17.189   1.469  1.00  0.00    -0.271 OA
BRANCH   6   9
HETATM    9  C   UNL     1      43.437 -17.980   2.280  1.00  0.00     0.034 A 
HETATM   10  C   UNL     1      43.704 -19.301   1.936  1.00  0.00     0.032 A 
HETATM   11  C   UNL     1      44.114 -20.226   2.911  1.00  0.00     0.031 A 
HETATM   12  C   UNL     1      44.286 -19.865   4.256  1.00  0.00     0.029 A 
HETATM   13  C   UNL     1      44.000 -18.530   4.581  1.00  0.00     0.031 A 
HETATM   14  C   UNL     1      43.586 -17.601   3.614  1.00  0.00     0.032 A 
BRANCH  12  15
HETATM   15  N   UNL     1      44.668 -20.774   5.255  1.00  0.00    -0.390 N 
HETATM   16  C   UNL     1      44.965 -22.132   4.786  1.00  0.00     0.149 C 
HETATM   17  C   UNL     1      43.974 -20.721   6.542  1.00  0.00     0.149 C 
ENDBRANCH  12  15
ENDBRANCH   6   9
ENDBRANCH   4   5
ENDBRANCH   3   4
ENDBRANCH   1   3
BRANCH   1  18
HETATM   18  C   UNL     1      40.291 -12.972   2.276  1.00  0.00     0.066 A 
HETATM   19  C   UNL     1      40.452 -12.792   3.661  1.00  0.00     0.051 A 
HETATM   20  C   UNL     1      39.534 -11.973   4.340  1.00  0.00     0.030 A 
HETATM   21  C   UNL     1      38.439 -11.412   3.677  1.00  0.00     0.002 A 
HETATM   22  C   UNL     1      38.255 -11.642   2.318  1.00  0.00     0.001 A 
HETATM   23  C   UNL     1      39.185 -12.405   1.615  1.00  0.00     0.020 A 
BRANCH  19  24
HETATM   24  N   UNL     1      41.454 -13.374   4.468  1.00  0.00    -0.320 N 
HETATM   25  C   UNL     1      41.537 -14.699   4.865  1.00  0.00     0.279 C 
HETATM   26  O   UNL     1      40.721 -15.568   4.575  1.00  0.00    -0.265 OA
HETATM   27  H   UNL     1      42.053 -12.748   4.999  1.00  0.00     0.169 HD
BRANCH  25  28
HETATM   28  C   UNL     1      42.653 -14.949   5.759  1.00  0.00     0.142 A 
HETATM   29  O   UNL     1      42.568 -15.968   6.677  1.00  0.00    -0.317 OA
HETATM   30  C   UNL     1      43.742 -15.988   7.361  1.00  0.00     0.143 A 
HETATM   31  C   UNL     1      44.588 -15.008   6.898  1.00  0.00     0.027 A 
HETATM   32  C   UNL     1      43.888 -14.337   5.867  1.00  0.00     0.045 A 
ENDBRANCH  25  28
ENDBRANCH  19  24
ENDBRANCH   1  18
TORSDOF 8
ENDMDL
MODEL 8
REMARK VINA RESULT:      -7.3      3.586      5.985
REMARK  8 active torsions:
REMARK  status: ('A' for Active; 'I' for Inactive)
REMARK    1  A    between atoms: N_2  and  C_3 
REMARK    2  A    between atoms: C_6  and  N_7 
REMARK       I    between atoms: N_7  and  C_8 
REMARK    3  A    between atoms: C_8  and  C_9 
REMARK    4  A    between atoms: C_9  and  O_10 
REMARK    5  A    between atoms: O_10  and  C_11 
REMARK    6  A    between atoms: C_11  and  C_12 
REMARK    7  A    between atoms: C_13  and  N_14 
REMARK       I    between atoms: N_14  and  C_15 
REMARK    8  A    between atoms: C_15  and  C_16 
ROOT
HETATM    1  C   UNL     1      43.511 -18.247   1.613  1.00  0.00     0.296 C 
HETATM    2  O   UNL     1      44.163 -17.242   1.367  1.00  0.00    -0.259 OA
ENDROOT
BRANCH   1   3
HETATM    3  O   UNL     1      42.221 -18.468   1.266  1.00  0.00    -0.308 OA
BRANCH   3   4
HETATM    4  C   UNL     1      41.269 -17.637   1.928  1.00  0.00     0.282 C 
BRANCH   4   5
HETATM    5  C   UNL     1      40.974 -16.314   1.210  1.00  0.00     0.246 C 
HETATM    6  N   UNL     1      41.591 -16.221  -0.025  1.00  0.00    -0.325 N 
HETATM    7  H   UNL     1      42.237 -16.979  -0.257  1.00  0.00     0.169 HD
HETATM    8  O   UNL     1      40.244 -15.471   1.725  1.00  0.00    -0.271 OA
BRANCH   6   9
HETATM    9  C   UNL     1      41.482 -15.188  -0.974  1.00  0.00     0.034 A 
HETATM   10  C   UNL     1      41.852 -13.867  -0.742  1.00  0.00     0.032 A 
HETATM   11  C   UNL     1      41.686 -12.892  -1.740  1.00  0.00     0.031 A 
HETATM   12  C   UNL     1      41.163 -13.200  -3.004  1.00  0.00     0.029 A 
HETATM   13  C   UNL     1      40.787 -14.536  -3.211  1.00  0.00     0.031 A 
HETATM   14  C   UNL     1      40.945 -15.515  -2.219  1.00  0.00     0.032 A 
BRANCH  12  15
HETATM   15  N   UNL     1      40.962 -12.241  -4.010  1.00  0.00    -0.390 N 
HETATM   16  C   UNL     1      42.151 -11.471  -4.388  1.00  0.00     0.149 C 
HETATM   17  C   UNL     1      39.725 -11.460  -3.985  1.00  0.00     0.149 C 
ENDBRANCH  12  15
ENDBRANCH   6   9
ENDBRANCH   4   5
ENDBRANCH   3   4
ENDBRANCH   1   3
BRANCH   1  18
HETATM   18  C   UNL     1      44.015 -19.392   2.400  1.00  0.00     0.066 A 
HETATM   19  C   UNL     1      44.242 -19.314   3.785  1.00  0.00     0.051 A 
HETATM   20  C   UNL     1      44.444 -20.508   4.497  1.00  0.00     0.030 A 
HETATM   21  C   UNL     1      44.500 -21.740   3.841  1.00  0.00     0.002 A 
HETATM   22  C   UNL     1      44.332 -21.802   2.461  1.00  0.00     0.001 A 
HETATM   23  C   UNL     1      44.074 -20.636   1.744  1.00  0.00     0.020 A 
BRANCH  19  24
HETATM   24  N   UNL     1      44.305 -18.133   4.557  1.00  0.00    -0.320 N 
HETATM   25  C   UNL     1      43.260 -17.526   5.235  1.00  0.00     0.279 C 
HETATM   26  O   UNL     1      42.103 -17.936   5.247  1.00  0.00    -0.265 OA
HETATM   27  H   UNL     1      45.119 -17.536   4.438  1.00  0.00     0.169 HD
BRANCH  25  28
HETATM   28  C   UNL     1      43.650 -16.279   5.866  1.00  0.00     0.142 A 
HETATM   29  O   UNL     1      43.433 -15.092   5.207  1.00  0.00    -0.317 OA
HETATM   30  C   UNL     1      43.870 -14.098   6.022  1.00  0.00     0.143 A 
HETATM   31  C   UNL     1      44.357 -14.615   7.199  1.00  0.00     0.027 A 
HETATM   32  C   UNL     1      44.217 -16.020   7.100  1.00  0.00     0.045 A 
ENDBRANCH  25  28
ENDBRANCH  19  24
ENDBRANCH   1  18
TORSDOF 8
ENDMDL
MODEL 9
REMARK VINA RESULT:      -7.3      4.734      5.730
REMARK  8 active torsions:
REMARK  status: ('A' for Active; 'I' for Inactive)
REMARK    1  A    between atoms: N_2  and  C_3 
REMARK    2  A    between atoms: C_6  and  N_7 
REMARK       I    between atoms: N_7  and  C_8 
REMARK    3  A    between atoms: C_8  and  C_9 
REMARK    4  A    between atoms: C_9  and  O_10 
REMARK    5  A    between atoms: O_10  and  C_11 
REMARK    6  A    between atoms: C_11  and  C_12 
REMARK    7  A    between atoms: C_13  and  N_14 
REMARK       I    between atoms: N_14  and  C_15 
REMARK    8  A    between atoms: C_15  and  C_16 
ROOT
HETATM    1  C   UNL     1      44.009 -14.432   6.425  1.00  0.00     0.296 C 
HETATM    2  O   UNL     1      43.767 -13.582   5.580  1.00  0.00    -0.259 OA
ENDROOT
BRANCH   1   3
HETATM    3  O   UNL     1      44.460 -14.206   7.682  1.00  0.00    -0.308 OA
BRANCH   3   4
HETATM    4  C   UNL     1      45.511 -13.248   7.780  1.00  0.00     0.282 C 
BRANCH   4   5
HETATM    5  C   UNL     1      45.205 -12.060   8.701  1.00  0.00     0.246 C 
HETATM    6  N   UNL     1      44.009 -12.200   9.382  1.00  0.00    -0.325 N 
HETATM    7  H   UNL     1      43.439 -13.006   9.116  1.00  0.00     0.169 HD
HETATM    8  O   UNL     1      45.989 -11.119   8.792  1.00  0.00    -0.271 OA
BRANCH   6   9
HETATM    9  C   UNL     1      43.457 -11.343  10.352  1.00  0.00     0.034 A 
HETATM   10  C   UNL     1      43.942 -11.210  11.649  1.00  0.00     0.032 A 
HETATM   11  C   UNL     1      43.314 -10.347  12.562  1.00  0.00     0.031 A 
HETATM   12  C   UNL     1      42.195  -9.577  12.213  1.00  0.00     0.029 A 
HETATM   13  C   UNL     1      41.717  -9.737  10.903  1.00  0.00     0.031 A 
HETATM   14  C   UNL     1      42.335 -10.599   9.986  1.00  0.00     0.032 A 
BRANCH  12  15
HETATM   15  N   UNL     1      41.532  -8.727  13.113  1.00  0.00    -0.390 N 
HETATM   16  C   UNL     1      40.081  -8.629  12.928  1.00  0.00     0.149 C 
HETATM   17  C   UNL     1      42.178  -7.467  13.479  1.00  0.00     0.149 C 
ENDBRANCH  12  15
ENDBRANCH   6   9
ENDBRANCH   4   5
ENDBRANCH   3   4
ENDBRANCH   1   3
BRANCH   1  18
HETATM   18  C   UNL     1      43.903 -15.888   6.192  1.00  0.00     0.066 A 
HETATM   19  C   UNL     1      43.158 -16.430   5.130  1.00  0.00     0.051 A 
HETATM   20  C   UNL     1      43.338 -17.786   4.812  1.00  0.00     0.030 A 
HETATM   21  C   UNL     1      44.174 -18.603   5.577  1.00  0.00     0.002 A 
HETATM   22  C   UNL     1      44.864 -18.072   6.662  1.00  0.00     0.001 A 
HETATM   23  C   UNL     1      44.743 -16.717   6.960  1.00  0.00     0.020 A 
BRANCH  19  24
HETATM   24  N   UNL     1      42.211 -15.744   4.338  1.00  0.00    -0.320 N 
HETATM   25  C   UNL     1      40.917 -15.402   4.698  1.00  0.00     0.279 C 
HETATM   26  O   UNL     1      40.398 -15.669   5.777  1.00  0.00    -0.265 OA
HETATM   27  H   UNL     1      42.390 -15.680   3.340  1.00  0.00     0.169 HD
BRANCH  25  28
HETATM   28  C   UNL     1      40.183 -14.769   3.618  1.00  0.00     0.142 A 
HETATM   29  O   UNL     1      39.706 -15.538   2.584  1.00  0.00    -0.317 OA
HETATM   30  C   UNL     1      39.053 -14.703   1.734  1.00  0.00     0.143 A 
HETATM   31  C   UNL     1      39.090 -13.411   2.202  1.00  0.00     0.027 A 
HETATM   32  C   UNL     1      39.818 -13.451   3.415  1.00  0.00     0.045 A 
ENDBRANCH  25  28
ENDBRANCH  19  24
ENDBRANCH   1  18
TORSDOF 8
ENDMDL
MODEL 10
REMARK VINA RESULT:      -7.3      4.285      8.649
REMARK  8 active torsions:
REMARK  status: ('A' for Active; 'I' for Inactive)
REMARK    1  A    between atoms: N_2  and  C_3 
REMARK    2  A    between atoms: C_6  and  N_7 
REMARK       I    between atoms: N_7  and  C_8 
REMARK    3  A    between atoms: C_8  and  C_9 
REMARK    4  A    between atoms: C_9  and  O_10 
REMARK    5  A    between atoms: O_10  and  C_11 
REMARK    6  A    between atoms: C_11  and  C_12 
REMARK    7  A    between atoms: C_13  and  N_14 
REMARK       I    between atoms: N_14  and  C_15 
REMARK    8  A    between atoms: C_15  and  C_16 
ROOT
HETATM    1  C   UNL     1      41.523  -9.917   8.833  1.00  0.00     0.296 C 
HETATM    2  O   UNL     1      41.589  -8.912   8.139  1.00  0.00    -0.259 OA
ENDROOT
BRANCH   1   3
HETATM    3  O   UNL     1      40.771 -11.015   8.581  1.00  0.00    -0.308 OA
BRANCH   3   4
HETATM    4  C   UNL     1      39.751 -10.833   7.601  1.00  0.00     0.282 C 
BRANCH   4   5
HETATM    5  C   UNL     1      39.753 -11.882   6.482  1.00  0.00     0.246 C 
HETATM    6  N   UNL     1      40.958 -12.552   6.372  1.00  0.00    -0.325 N 
HETATM    7  H   UNL     1      41.715 -12.204   6.964  1.00  0.00     0.169 HD
HETATM    8  O   UNL     1      38.749 -12.071   5.798  1.00  0.00    -0.271 OA
BRANCH   6   9
HETATM    9  C   UNL     1      41.285 -13.616   5.510  1.00  0.00     0.034 A 
HETATM   10  C   UNL     1      41.999 -13.473   4.325  1.00  0.00     0.032 A 
HETATM   11  C   UNL     1      42.261 -14.588   3.509  1.00  0.00     0.031 A 
HETATM   12  C   UNL     1      41.836 -15.880   3.852  1.00  0.00     0.029 A 
HETATM   13  C   UNL     1      41.107 -15.996   5.046  1.00  0.00     0.031 A 
HETATM   14  C   UNL     1      40.837 -14.888   5.864  1.00  0.00     0.032 A 
BRANCH  12  15
HETATM   15  N   UNL     1      42.060 -17.005   3.043  1.00  0.00    -0.390 N 
HETATM   16  C   UNL     1      41.089 -17.203   1.962  1.00  0.00     0.149 C 
HETATM   17  C   UNL     1      42.504 -18.242   3.686  1.00  0.00     0.149 C 
ENDBRANCH  12  15
ENDBRANCH   6   9
ENDBRANCH   4   5
ENDBRANCH   3   4
ENDBRANCH   1   3
BRANCH   1  18
HETATM   18  C   UNL     1      42.223 -10.082  10.124  1.00  0.00     0.066 A 
HETATM   19  C   UNL     1      43.236 -11.038  10.316  1.00  0.00     0.051 A 
HETATM   20  C   UNL     1      44.038 -10.941  11.464  1.00  0.00     0.030 A 
HETATM   21  C   UNL     1      43.790  -9.971  12.439  1.00  0.00     0.002 A 
HETATM   22  C   UNL     1      42.748  -9.065  12.269  1.00  0.00     0.001 A 
HETATM   23  C   UNL     1      41.977  -9.108  11.110  1.00  0.00     0.020 A 
BRANCH  19  24
HETATM   24  N   UNL     1      43.533 -12.123   9.461  1.00  0.00    -0.320 N 
HETATM   25  C   UNL     1      44.678 -12.292   8.699  1.00  0.00     0.279 C 
HETATM   26  O   UNL     1      45.609 -11.494   8.650  1.00  0.00    -0.265 OA
HETATM   27  H   UNL     1      42.767 -12.734   9.192  1.00  0.00     0.169 HD
BRANCH  25  28
HETATM   28  C   UNL     1      44.631 -13.482   7.870  1.00  0.00     0.142 A 
HETATM   29  O   UNL     1      44.081 -14.636   8.376  1.00  0.00    -0.317 OA
HETATM   30  C   UNL     1      44.151 -15.574   7.396  1.00  0.00     0.143 A 
HETATM   31  C   UNL     1      44.725 -15.049   6.264  1.00  0.00     0.027 A 
HETATM   32  C   UNL     1      45.037 -13.702   6.567  1.00  0.00     0.045 A 
ENDBRANCH  25  28
ENDBRANCH  19  24
ENDBRANCH   1  18
TORSDOF 8
ENDMDL
