MODEL 1
REMARK VINA RESULT:      -7.4      0.000      0.000
REMARK  5 active torsions:
REMARK  status: ('A' for Active; 'I' for Inactive)
REMARK    1  A    between atoms: C_2  and  C_3 
REMARK    2  A    between atoms: C_3  and  C_4 
REMARK    3  A    between atoms: C_10  and  C_11 
REMARK    4  A    between atoms: C_12  and  O_13 
REMARK    5  A    between atoms: C_22  and  N_23 
ROOT
HETATM    1  C   UNL     1      43.964 -16.497   6.320  1.00  0.00     0.066 A 
HETATM    2  N   UNL     1      44.545 -15.612   7.148  1.00  0.00    -0.177 NA
HETATM    3  N   UNL     1      43.815 -14.490   7.011  1.00  0.00    -0.256 N 
HETATM    4  H   UNL     1      44.067 -13.672   7.553  1.00  0.00     0.191 HD
HETATM    5  C   UNL     1      42.809 -14.629   6.113  1.00  0.00     0.175 A 
HETATM    6  C   UNL     1      42.866 -15.914   5.633  1.00  0.00     0.035 A 
HETATM    7  C   UNL     1      41.857 -16.367   4.628  1.00  0.00     0.107 A 
HETATM    8  C   UNL     1      40.964 -15.195   4.209  1.00  0.00     0.067 A 
HETATM    9  C   UNL     1      40.013 -15.436   3.047  1.00  0.00     0.020 C 
HETATM   10  N   UNL     1      39.224 -15.636   2.085  1.00  0.00    -0.096 N 
HETATM   11  C   UNL     1      41.033 -13.959   4.772  1.00  0.00     0.139 A 
HETATM   12  O   UNL     1      41.959 -13.662   5.787  1.00  0.00    -0.279 OA
ENDROOT
BRANCH   7  13
HETATM   13  C   UNL     1      42.629 -16.980   3.470  1.00  0.00    -0.010 A 
HETATM   14  C   UNL     1      43.431 -16.192   2.629  1.00  0.00     0.073 A 
HETATM   15  C   UNL     1      44.225 -16.759   1.633  1.00  0.00     0.038 A 
HETATM   16  C   UNL     1      44.215 -18.137   1.436  1.00  0.00     0.022 A 
HETATM   17  C   UNL     1      43.416 -18.939   2.244  1.00  0.00     0.011 A 
HETATM   18 BR   UNL     1      43.401 -20.811   1.986  1.00  0.00    -0.051 Br
HETATM   19  C   UNL     1      42.634 -18.375   3.255  1.00  0.00     0.030 A 
BRANCH  14  20
HETATM   20  O   UNL     1      43.494 -14.833   2.740  1.00  0.00    -0.360 OA
HETATM   21  H   UNL     1      44.129 -14.496   2.086  1.00  0.00     0.217 HD
ENDBRANCH  14  20
ENDBRANCH   7  13
BRANCH  11  22
HETATM   22  N   UNL     1      40.260 -12.876   4.425  1.00  0.00    -0.282 NA
HETATM   23  H   UNL     1      39.258 -12.978   4.571  1.00  0.00     0.126 HD
HETATM   24  H   UNL     1      40.493 -12.516   3.503  1.00  0.00     0.126 HD
ENDBRANCH  11  22
BRANCH   1  25
HETATM   25  C   UNL     1      44.531 -17.877   6.215  1.00  0.00     0.061 C 
BRANCH  25  26
HETATM   26  C   UNL     1      43.668 -18.959   6.870  1.00  0.00     0.002 C 
HETATM   27  C   UNL     1      43.945 -20.352   6.323  1.00  0.00     0.005 C 
ENDBRANCH  25  26
ENDBRANCH   1  25
TORSDOF 5
ENDMDL
MODEL 2
REMARK VINA RESULT:      -7.3      2.419      4.549
REMARK  5 active torsions:
REMARK  status: ('A' for Active; 'I' for Inactive)
REMARK    1  A    between atoms: C_2  and  C_3 
REMARK    2  A    between atoms: C_3  and  C_4 
REMARK    3  A    between atoms: C_10  and  C_11 
REMARK    4  A    between atoms: C_12  and  O_13 
REMARK    5  A    between atoms: C_22  and  N_23 
ROOT
HETATM    1  C   UNL     1      42.470 -16.554   0.854  1.00  0.00     0.066 A 
HETATM    2  N   UNL     1      41.724 -16.598  -0.264  1.00  0.00    -0.177 NA
HETATM    3  N   UNL     1      40.958 -15.494  -0.204  1.00  0.00    -0.256 N 
HETATM    4  H   UNL     1      40.306 -15.307  -0.958  1.00  0.00     0.191 HD
HETATM    5  C   UNL     1      41.178 -14.766   0.918  1.00  0.00     0.175 A 
HETATM    6  C   UNL     1      42.149 -15.416   1.641  1.00  0.00     0.035 A 
HETATM    7  C   UNL     1      42.615 -14.832   2.934  1.00  0.00     0.107 A 
HETATM    8  C   UNL     1      41.780 -13.597   3.289  1.00  0.00     0.067 A 
HETATM    9  C   UNL     1      41.991 -12.998   4.671  1.00  0.00     0.020 C 
HETATM   10  N   UNL     1      42.167 -12.500   5.815  1.00  0.00    -0.096 N 
HETATM   11  C   UNL     1      40.832 -13.070   2.468  1.00  0.00     0.139 A 
HETATM   12  O   UNL     1      40.536 -13.644   1.220  1.00  0.00    -0.279 OA
ENDROOT
BRANCH   7  13
HETATM   13  C   UNL     1      42.530 -15.936   3.977  1.00  0.00    -0.010 A 
HETATM   14  C   UNL     1      41.321 -16.600   4.239  1.00  0.00     0.073 A 
HETATM   15  C   UNL     1      41.256 -17.685   5.114  1.00  0.00     0.038 A 
HETATM   16  C   UNL     1      42.405 -18.116   5.773  1.00  0.00     0.022 A 
HETATM   17  C   UNL     1      43.611 -17.464   5.544  1.00  0.00     0.011 A 
HETATM   18 BR   UNL     1      45.176 -18.048   6.430  1.00  0.00    -0.051 Br
HETATM   19  C   UNL     1      43.682 -16.390   4.653  1.00  0.00     0.030 A 
BRANCH  14  20
HETATM   20  O   UNL     1      40.144 -16.239   3.650  1.00  0.00    -0.360 OA
HETATM   21  H   UNL     1      39.787 -15.464   4.115  1.00  0.00     0.217 HD
ENDBRANCH  14  20
ENDBRANCH   7  13
BRANCH  11  22
HETATM   22  N   UNL     1      40.054 -11.972   2.746  1.00  0.00    -0.282 NA
HETATM   23  H   UNL     1      39.061 -12.151   2.882  1.00  0.00     0.126 HD
HETATM   24  H   UNL     1      40.235 -11.199   2.111  1.00  0.00     0.126 HD
ENDBRANCH  11  22
BRANCH   1  25
HETATM   25  C   UNL     1      43.450 -17.652   1.119  1.00  0.00     0.061 C 
BRANCH  25  26
HETATM   26  C   UNL     1      42.849 -18.867   1.831  1.00  0.00     0.002 C 
HETATM   27  C   UNL     1      43.888 -19.690   2.580  1.00  0.00     0.005 C 
ENDBRANCH  25  26
ENDBRANCH   1  25
TORSDOF 5
ENDMDL
MODEL 3
REMARK VINA RESULT:      -7.0      3.317      5.029
REMARK  5 active torsions:
REMARK  status: ('A' for Active; 'I' for Inactive)
REMARK    1  A    between atoms: C_2  and  C_3 
REMARK    2  A    between atoms: C_3  and  C_4 
REMARK    3  A    between atoms: C_10  and  C_11 
REMARK    4  A    between atoms: C_12  and  O_13 
REMARK    5  A    between atoms: C_22  and  N_23 
ROOT
HETATM    1  C   UNL     1      43.723 -16.320   7.379  1.00  0.00     0.066 A 
HETATM    2  N   UNL     1      43.604 -16.702   8.662  1.00  0.00    -0.177 NA
HETATM    3  N   UNL     1      43.766 -18.038   8.635  1.00  0.00    -0.256 N 
HETATM    4  H   UNL     1      43.722 -18.556   9.506  1.00  0.00     0.191 HD
HETATM    5  C   UNL     1      43.961 -18.514   7.381  1.00  0.00     0.175 A 
HETATM    6  C   UNL     1      43.938 -17.437   6.529  1.00  0.00     0.035 A 
HETATM    7  C   UNL     1      44.146 -17.656   5.065  1.00  0.00     0.107 A 
HETATM    8  C   UNL     1      44.234 -19.155   4.761  1.00  0.00     0.067 A 
HETATM    9  C   UNL     1      44.247 -19.560   3.295  1.00  0.00     0.020 C 
HETATM   10  N   UNL     1      44.259 -19.896   2.080  1.00  0.00    -0.096 N 
HETATM   11  C   UNL     1      44.232 -20.118   5.722  1.00  0.00     0.139 A 
HETATM   12  O   UNL     1      44.129 -19.798   7.086  1.00  0.00    -0.279 OA
ENDROOT
BRANCH   7  13
HETATM   13  C   UNL     1      43.000 -16.962   4.345  1.00  0.00    -0.010 A 
HETATM   14  C   UNL     1      41.675 -17.403   4.489  1.00  0.00     0.073 A 
HETATM   15  C   UNL     1      40.607 -16.709   3.920  1.00  0.00     0.038 A 
HETATM   16  C   UNL     1      40.845 -15.563   3.165  1.00  0.00     0.022 A 
HETATM   17  C   UNL     1      42.151 -15.116   2.993  1.00  0.00     0.011 A 
HETATM   18 BR   UNL     1      42.482 -13.558   1.975  1.00  0.00    -0.051 Br
HETATM   19  C   UNL     1      43.220 -15.798   3.579  1.00  0.00     0.030 A 
BRANCH  14  20
HETATM   20  O   UNL     1      41.348 -18.521   5.199  1.00  0.00    -0.360 OA
HETATM   21  H   UNL     1      42.158 -19.030   5.370  1.00  0.00     0.217 HD
ENDBRANCH  14  20
ENDBRANCH   7  13
BRANCH  11  22
HETATM   22  N   UNL     1      44.300 -21.473   5.497  1.00  0.00    -0.282 NA
HETATM   23  H   UNL     1      44.470 -22.052   6.316  1.00  0.00     0.126 HD
HETATM   24  H   UNL     1      44.905 -21.704   4.714  1.00  0.00     0.126 HD
ENDBRANCH  11  22
BRANCH   1  25
HETATM   25  C   UNL     1      43.590 -14.871   7.035  1.00  0.00     0.061 C 
BRANCH  25  26
HETATM   26  C   UNL     1      44.927 -14.136   6.903  1.00  0.00     0.002 C 
HETATM   27  C   UNL     1      45.164 -13.129   8.020  1.00  0.00     0.005 C 
ENDBRANCH  25  26
ENDBRANCH   1  25
TORSDOF 5
ENDMDL
MODEL 4
REMARK VINA RESULT:      -6.9      3.107      6.058
REMARK  5 active torsions:
REMARK  status: ('A' for Active; 'I' for Inactive)
REMARK    1  A    between atoms: C_2  and  C_3 
REMARK    2  A    between atoms: C_3  and  C_4 
REMARK    3  A    between atoms: C_10  and  C_11 
REMARK    4  A    between atoms: C_12  and  O_13 
REMARK    5  A    between atoms: C_22  and  N_23 
ROOT
HETATM    1  C   UNL     1      40.625 -16.631   2.183  1.00  0.00     0.066 A 
HETATM    2  N   UNL     1      41.004 -17.209   1.030  1.00  0.00    -0.177 NA
HETATM    3  N   UNL     1      41.946 -18.099   1.390  1.00  0.00    -0.256 N 
HETATM    4  H   UNL     1      42.382 -18.670   0.675  1.00  0.00     0.191 HD
HETATM    5  C   UNL     1      42.190 -18.090   2.724  1.00  0.00     0.175 A 
HETATM    6  C   UNL     1      41.360 -17.149   3.282  1.00  0.00     0.035 A 
HETATM    7  C   UNL     1      41.393 -16.926   4.759  1.00  0.00     0.107 A 
HETATM    8  C   UNL     1      42.507 -17.763   5.396  1.00  0.00     0.067 A 
HETATM    9  C   UNL     1      42.808 -17.504   6.864  1.00  0.00     0.020 C 
HETATM   10  N   UNL     1      43.057 -17.291   8.081  1.00  0.00    -0.096 N 
HETATM   11  C   UNL     1      43.266 -18.655   4.704  1.00  0.00     0.139 A 
HETATM   12  O   UNL     1      43.086 -18.863   3.326  1.00  0.00    -0.279 OA
ENDROOT
BRANCH   7  13
HETATM   13  C   UNL     1      41.563 -15.431   4.979  1.00  0.00    -0.010 A 
HETATM   14  C   UNL     1      42.644 -14.730   4.421  1.00  0.00     0.073 A 
HETATM   15  C   UNL     1      42.749 -13.343   4.526  1.00  0.00     0.038 A 
HETATM   16  C   UNL     1      41.781 -12.623   5.222  1.00  0.00     0.022 A 
HETATM   17  C   UNL     1      40.710 -13.296   5.799  1.00  0.00     0.011 A 
HETATM   18 BR   UNL     1      39.389 -12.324   6.740  1.00  0.00    -0.051 Br
HETATM   19  C   UNL     1      40.592 -14.683   5.678  1.00  0.00     0.030 A 
BRANCH  14  20
HETATM   20  O   UNL     1      43.645 -15.353   3.734  1.00  0.00    -0.360 OA
HETATM   21  H   UNL     1      43.606 -16.306   3.922  1.00  0.00     0.217 HD
ENDBRANCH  14  20
ENDBRANCH   7  13
BRANCH  11  22
HETATM   22  N   UNL     1      44.280 -19.420   5.229  1.00  0.00    -0.282 NA
HETATM   23  H   UNL     1      45.095 -18.911   5.566  1.00  0.00     0.126 HD
HETATM   24  H   UNL     1      44.522 -20.205   4.629  1.00  0.00     0.126 HD
ENDBRANCH  11  22
BRANCH   1  25
HETATM   25  C   UNL     1      39.574 -15.568   2.153  1.00  0.00     0.061 C 
BRANCH  25  26
HETATM   26  C   UNL     1      40.100 -14.180   1.776  1.00  0.00     0.002 C 
HETATM   27  C   UNL     1      39.311 -13.051   2.423  1.00  0.00     0.005 C 
ENDBRANCH  25  26
ENDBRANCH   1  25
TORSDOF 5
ENDMDL
MODEL 5
REMARK VINA RESULT:      -6.8      2.207      4.743
REMARK  5 active torsions:
REMARK  status: ('A' for Active; 'I' for Inactive)
REMARK    1  A    between atoms: C_2  and  C_3 
REMARK    2  A    between atoms: C_3  and  C_4 
REMARK    3  A    between atoms: C_10  and  C_11 
REMARK    4  A    between atoms: C_12  and  O_13 
REMARK    5  A    between atoms: C_22  and  N_23 
ROOT
HETATM    1  C   UNL     1      40.362 -13.771   2.768  1.00  0.00     0.066 A 
HETATM    2  N   UNL     1      39.266 -13.002   2.659  1.00  0.00    -0.177 NA
HETATM    3  N   UNL     1      39.336 -12.162   3.708  1.00  0.00    -0.256 N 
HETATM    4  H   UNL     1      38.606 -11.470   3.833  1.00  0.00     0.191 HD
HETATM    5  C   UNL     1      40.425 -12.387   4.484  1.00  0.00     0.175 A 
HETATM    6  C   UNL     1      41.121 -13.426   3.917  1.00  0.00     0.035 A 
HETATM    7  C   UNL     1      42.392 -13.890   4.552  1.00  0.00     0.107 A 
HETATM    8  C   UNL     1      42.628 -13.144   5.869  1.00  0.00     0.067 A 
HETATM    9  C   UNL     1      43.773 -13.636   6.741  1.00  0.00     0.020 C 
HETATM   10  N   UNL     1      44.723 -14.042   7.464  1.00  0.00    -0.096 N 
HETATM   11  C   UNL     1      41.836 -12.133   6.313  1.00  0.00     0.139 A 
HETATM   12  O   UNL     1      40.712 -11.703   5.586  1.00  0.00    -0.279 OA
ENDROOT
BRANCH   7  13
HETATM   13  C   UNL     1      42.277 -15.396   4.725  1.00  0.00    -0.010 A 
HETATM   14  C   UNL     1      41.302 -15.963   5.561  1.00  0.00     0.073 A 
HETATM   15  C   UNL     1      41.119 -17.343   5.643  1.00  0.00     0.038 A 
HETATM   16  C   UNL     1      41.934 -18.197   4.904  1.00  0.00     0.022 A 
HETATM   17  C   UNL     1      42.919 -17.662   4.081  1.00  0.00     0.011 A 
HETATM   18 BR   UNL     1      44.024 -18.815   3.070  1.00  0.00    -0.051 Br
HETATM   19  C   UNL     1      43.090 -16.279   3.983  1.00  0.00     0.030 A 
BRANCH  14  20
HETATM   20  O   UNL     1      40.468 -15.205   6.331  1.00  0.00    -0.360 OA
HETATM   21  H   UNL     1      40.475 -14.293   5.995  1.00  0.00     0.217 HD
ENDBRANCH  14  20
ENDBRANCH   7  13
BRANCH  11  22
HETATM   22  N   UNL     1      42.003 -11.441   7.490  1.00  0.00    -0.282 NA
HETATM   23  H   UNL     1      41.356 -10.672   7.651  1.00  0.00     0.126 HD
HETATM   24  H   UNL     1      42.973 -11.185   7.652  1.00  0.00     0.126 HD
ENDBRANCH  11  22
BRANCH   1  25
HETATM   25  C   UNL     1      40.605 -14.840   1.750  1.00  0.00     0.061 C 
BRANCH  25  26
HETATM   26  C   UNL     1      39.915 -16.170   2.064  1.00  0.00     0.002 C 
HETATM   27  C   UNL     1      40.608 -17.364   1.421  1.00  0.00     0.005 C 
ENDBRANCH  25  26
ENDBRANCH   1  25
TORSDOF 5
ENDMDL
MODEL 6
REMARK VINA RESULT:      -6.8      2.848      4.789
REMARK  5 active torsions:
REMARK  status: ('A' for Active; 'I' for Inactive)
REMARK    1  A    between atoms: C_2  and  C_3 
REMARK    2  A    between atoms: C_3  and  C_4 
REMARK    3  A    between atoms: C_10  and  C_11 
REMARK    4  A    between atoms: C_12  and  O_13 
REMARK    5  A    between atoms: C_22  and  N_23 
ROOT
HETATM    1  C   UNL     1      43.211 -14.368   4.963  1.00  0.00     0.066 A 
HETATM    2  N   UNL     1      43.228 -14.108   6.282  1.00  0.00    -0.177 NA
HETATM    3  N   UNL     1      43.451 -15.303   6.860  1.00  0.00    -0.256 N 
HETATM    4  H   UNL     1      43.513 -15.355   7.870  1.00  0.00     0.191 HD
HETATM    5  C   UNL     1      43.554 -16.308   5.957  1.00  0.00     0.175 A 
HETATM    6  C   UNL     1      43.400 -15.753   4.710  1.00  0.00     0.035 A 
HETATM    7  C   UNL     1      43.483 -16.628   3.502  1.00  0.00     0.107 A 
HETATM    8  C   UNL     1      43.615 -18.096   3.920  1.00  0.00     0.067 A 
HETATM    9  C   UNL     1      43.513 -19.137   2.816  1.00  0.00     0.020 C 
HETATM   10  N   UNL     1      43.430 -20.001   1.901  1.00  0.00    -0.096 N 
HETATM   11  C   UNL     1      43.747 -18.501   5.211  1.00  0.00     0.139 A 
HETATM   12  O   UNL     1      43.756 -17.582   6.275  1.00  0.00    -0.279 OA
ENDROOT
BRANCH   7  13
HETATM   13  C   UNL     1      42.244 -16.350   2.666  1.00  0.00    -0.010 A 
HETATM   14  C   UNL     1      40.956 -16.598   3.165  1.00  0.00     0.073 A 
HETATM   15  C   UNL     1      39.812 -16.246   2.448  1.00  0.00     0.038 A 
HETATM   16  C   UNL     1      39.933 -15.656   1.193  1.00  0.00     0.022 A 
HETATM   17  C   UNL     1      41.198 -15.416   0.668  1.00  0.00     0.011 A 
HETATM   18 BR   UNL     1      41.369 -14.610  -1.034  1.00  0.00    -0.051 Br
HETATM   19  C   UNL     1      42.344 -15.749   1.392  1.00  0.00     0.030 A 
BRANCH  14  20
HETATM   20  O   UNL     1      40.741 -17.183   4.379  1.00  0.00    -0.360 OA
HETATM   21  H   UNL     1      41.258 -16.707   5.051  1.00  0.00     0.217 HD
ENDBRANCH  14  20
ENDBRANCH   7  13
BRANCH  11  22
HETATM   22  N   UNL     1      43.860 -19.804   5.635  1.00  0.00    -0.282 NA
HETATM   23  H   UNL     1      44.331 -19.944   6.526  1.00  0.00     0.126 HD
HETATM   24  H   UNL     1      44.205 -20.419   4.902  1.00  0.00     0.126 HD
ENDBRANCH  11  22
BRANCH   1  25
HETATM   25  C   UNL     1      42.977 -13.246   4.003  1.00  0.00     0.061 C 
BRANCH  25  26
HETATM   26  C   UNL     1      41.500 -12.898   3.797  1.00  0.00     0.002 C 
HETATM   27  C   UNL     1      41.233 -12.212   2.464  1.00  0.00     0.005 C 
ENDBRANCH  25  26
ENDBRANCH   1  25
TORSDOF 5
ENDMDL
MODEL 7
REMARK VINA RESULT:      -6.7      3.086      5.922
REMARK  5 active torsions:
REMARK  status: ('A' for Active; 'I' for Inactive)
REMARK    1  A    between atoms: C_2  and  C_3 
REMARK    2  A    between atoms: C_3  and  C_4 
REMARK    3  A    between atoms: C_10  and  C_11 
REMARK    4  A    between atoms: C_12  and  O_13 
REMARK    5  A    between atoms: C_22  and  N_23 
ROOT
HETATM    1  C   UNL     1      41.721 -17.781   2.169  1.00  0.00     0.066 A 
HETATM    2  N   UNL     1      42.513 -18.130   1.140  1.00  0.00    -0.177 NA
HETATM    3  N   UNL     1      43.676 -18.487   1.714  1.00  0.00    -0.256 N 
HETATM    4  H   UNL     1      44.439 -18.799   1.123  1.00  0.00     0.191 HD
HETATM    5  C   UNL     1      43.654 -18.358   3.063  1.00  0.00     0.175 A 
HETATM    6  C   UNL     1      42.407 -17.898   3.408  1.00  0.00     0.035 A 
HETATM    7  C   UNL     1      42.080 -17.674   4.848  1.00  0.00     0.107 A 
HETATM    8  C   UNL     1      43.323 -17.903   5.715  1.00  0.00     0.067 A 
HETATM    9  C   UNL     1      43.216 -17.525   7.184  1.00  0.00     0.020 C 
HETATM   10  N   UNL     1      43.127 -17.213   8.402  1.00  0.00    -0.096 N 
HETATM   11  C   UNL     1      44.508 -18.353   5.224  1.00  0.00     0.139 A 
HETATM   12  O   UNL     1      44.684 -18.630   3.857  1.00  0.00    -0.279 OA
ENDROOT
BRANCH   7  13
HETATM   13  C   UNL     1      41.518 -16.266   4.962  1.00  0.00    -0.010 A 
HETATM   14  C   UNL     1      40.483 -15.963   5.862  1.00  0.00     0.073 A 
HETATM   15  C   UNL     1      40.037 -14.655   6.050  1.00  0.00     0.038 A 
HETATM   16  C   UNL     1      40.602 -13.615   5.318  1.00  0.00     0.022 A 
HETATM   17  C   UNL     1      41.617 -13.890   4.408  1.00  0.00     0.011 A 
HETATM   18 BR   UNL     1      42.393 -12.482   3.414  1.00  0.00    -0.051 Br
HETATM   19  C   UNL     1      42.079 -15.196   4.232  1.00  0.00     0.030 A 
BRANCH  14  20
HETATM   20  O   UNL     1      39.862 -16.919   6.612  1.00  0.00    -0.360 OA
HETATM   21  H   UNL     1      39.435 -17.556   6.015  1.00  0.00     0.217 HD
ENDBRANCH  14  20
ENDBRANCH   7  13
BRANCH  11  22
HETATM   22  N   UNL     1      45.651 -18.565   5.959  1.00  0.00    -0.282 NA
HETATM   23  H   UNL     1      45.531 -18.600   6.969  1.00  0.00     0.126 HD
HETATM   24  H   UNL     1      46.414 -17.959   5.670  1.00  0.00     0.126 HD
ENDBRANCH  11  22
BRANCH   1  25
HETATM   25  C   UNL     1      40.327 -17.317   1.891  1.00  0.00     0.061 C 
BRANCH  25  26
HETATM   26  C   UNL     1      40.239 -15.879   1.375  1.00  0.00     0.002 C 
HETATM   27  C   UNL     1      39.060 -15.111   1.955  1.00  0.00     0.005 C 
ENDBRANCH  25  26
ENDBRANCH   1  25
TORSDOF 5
ENDMDL
MODEL 8
REMARK VINA RESULT:      -6.7      2.870      4.782
REMARK  5 active torsions:
REMARK  status: ('A' for Active; 'I' for Inactive)
REMARK    1  A    between atoms: C_2  and  C_3 
REMARK    2  A    between atoms: C_3  and  C_4 
REMARK    3  A    between atoms: C_10  and  C_11 
REMARK    4  A    between atoms: C_12  and  O_13 
REMARK    5  A    between atoms: C_22  and  N_23 
ROOT
HETATM    1  C   UNL     1      42.608 -16.374   1.068  1.00  0.00     0.066 A 
HETATM    2  N   UNL     1      41.907 -17.066   0.154  1.00  0.00    -0.177 NA
HETATM    3  N   UNL     1      40.823 -16.307  -0.089  1.00  0.00    -0.256 N 
HETATM    4  H   UNL     1      40.139 -16.630  -0.765  1.00  0.00     0.191 HD
HETATM    5  C   UNL     1      40.804 -15.173   0.652  1.00  0.00     0.175 A 
HETATM    6  C   UNL     1      41.940 -15.172   1.424  1.00  0.00     0.035 A 
HETATM    7  C   UNL     1      42.202 -14.022   2.342  1.00  0.00     0.107 A 
HETATM    8  C   UNL     1      41.013 -13.056   2.333  1.00  0.00     0.067 A 
HETATM    9  C   UNL     1      41.030 -11.936   3.361  1.00  0.00     0.020 C 
HETATM   10  N   UNL     1      41.043 -11.006   4.212  1.00  0.00    -0.096 N 
HETATM   11  C   UNL     1      39.938 -13.196   1.512  1.00  0.00     0.139 A 
HETATM   12  O   UNL     1      39.834 -14.267   0.608  1.00  0.00    -0.279 OA
ENDROOT
BRANCH   7  13
HETATM   13  C   UNL     1      42.491 -14.608   3.715  1.00  0.00    -0.010 A 
HETATM   14  C   UNL     1      43.661 -14.279   4.418  1.00  0.00     0.073 A 
HETATM   15  C   UNL     1      43.883 -14.725   5.721  1.00  0.00     0.038 A 
HETATM   16  C   UNL     1      42.943 -15.540   6.346  1.00  0.00     0.022 A 
HETATM   17  C   UNL     1      41.783 -15.895   5.665  1.00  0.00     0.011 A 
HETATM   18 BR   UNL     1      40.500 -16.996   6.510  1.00  0.00    -0.051 Br
HETATM   19  C   UNL     1      41.550 -15.433   4.368  1.00  0.00     0.030 A 
BRANCH  14  20
HETATM   20  O   UNL     1      44.642 -13.497   3.881  1.00  0.00    -0.360 OA
HETATM   21  H   UNL     1      45.261 -13.244   4.586  1.00  0.00     0.217 HD
ENDBRANCH  14  20
ENDBRANCH   7  13
BRANCH  11  22
HETATM   22  N   UNL     1      38.845 -12.361   1.474  1.00  0.00    -0.282 NA
HETATM   23  H   UNL     1      38.098 -12.633   0.840  1.00  0.00     0.126 HD
HETATM   24  H   UNL     1      39.110 -11.384   1.381  1.00  0.00     0.126 HD
ENDBRANCH  11  22
BRANCH   1  25
HETATM   25  C   UNL     1      43.895 -16.938   1.579  1.00  0.00     0.061 C 
BRANCH  25  26
HETATM   26  C   UNL     1      43.788 -18.380   2.082  1.00  0.00     0.002 C 
HETATM   27  C   UNL     1      43.537 -18.469   3.581  1.00  0.00     0.005 C 
ENDBRANCH  25  26
ENDBRANCH   1  25
TORSDOF 5
ENDMDL
MODEL 9
REMARK VINA RESULT:      -6.7      3.313      5.158
REMARK  5 active torsions:
REMARK  status: ('A' for Active; 'I' for Inactive)
REMARK    1  A    between atoms: C_2  and  C_3 
REMARK    2  A    between atoms: C_3  and  C_4 
REMARK    3  A    between atoms: C_10  and  C_11 
REMARK    4  A    between atoms: C_12  and  O_13 
REMARK    5  A    between atoms: C_22  and  N_23 
ROOT
HETATM    1  C   UNL     1      43.594 -16.483   5.596  1.00  0.00     0.066 A 
HETATM    2  N   UNL     1      43.768 -17.815   5.614  1.00  0.00    -0.177 NA
HETATM    3  N   UNL     1      43.575 -18.200   4.339  1.00  0.00    -0.256 N 
HETATM    4  H   UNL     1      43.663 -19.182   4.104  1.00  0.00     0.191 HD
HETATM    5  C   UNL     1      43.266 -17.163   3.523  1.00  0.00     0.175 A 
HETATM    6  C   UNL     1      43.261 -16.026   4.293  1.00  0.00     0.035 A 
HETATM    7  C   UNL     1      42.966 -14.708   3.653  1.00  0.00     0.107 A 
HETATM    8  C   UNL     1      42.583 -14.907   2.183  1.00  0.00     0.067 A 
HETATM    9  C   UNL     1      42.060 -13.689   1.438  1.00  0.00     0.020 C 
HETATM   10  N   UNL     1      41.628 -12.679   0.819  1.00  0.00    -0.096 N 
HETATM   11  C   UNL     1      42.624 -16.111   1.553  1.00  0.00     0.139 A 
HETATM   12  O   UNL     1      43.013 -17.283   2.225  1.00  0.00    -0.279 OA
ENDROOT
BRANCH   7  13
HETATM   13  C   UNL     1      41.871 -14.050   4.477  1.00  0.00    -0.010 A 
HETATM   14  C   UNL     1      40.609 -14.649   4.625  1.00  0.00     0.073 A 
HETATM   15  C   UNL     1      39.636 -14.108   5.465  1.00  0.00     0.038 A 
HETATM   16  C   UNL     1      39.895 -12.930   6.161  1.00  0.00     0.022 A 
HETATM   17  C   UNL     1      41.130 -12.308   6.018  1.00  0.00     0.011 A 
HETATM   18 BR   UNL     1      41.491 -10.712   6.965  1.00  0.00    -0.051 Br
HETATM   19  C   UNL     1      42.114 -12.859   5.193  1.00  0.00     0.030 A 
BRANCH  14  20
HETATM   20  O   UNL     1      40.263 -15.796   3.972  1.00  0.00    -0.360 OA
HETATM   21  H   UNL     1      40.355 -16.545   4.586  1.00  0.00     0.217 HD
ENDBRANCH  14  20
ENDBRANCH   7  13
BRANCH  11  22
HETATM   22  N   UNL     1      42.282 -16.340   0.241  1.00  0.00    -0.282 NA
HETATM   23  H   UNL     1      41.495 -15.802  -0.116  1.00  0.00     0.126 HD
HETATM   24  H   UNL     1      42.215 -17.332   0.027  1.00  0.00     0.126 HD
ENDBRANCH  11  22
BRANCH   1  25
HETATM   25  C   UNL     1      43.732 -15.713   6.870  1.00  0.00     0.061 C 
BRANCH  25  26
HETATM   26  C   UNL     1      44.849 -14.665   6.849  1.00  0.00     0.002 C 
HETATM   27  C   UNL     1      44.609 -13.523   7.826  1.00  0.00     0.005 C 
ENDBRANCH  25  26
ENDBRANCH   1  25
TORSDOF 5
ENDMDL
MODEL 10
REMARK VINA RESULT:      -6.7      3.150      4.981
REMARK  5 active torsions:
REMARK  status: ('A' for Active; 'I' for Inactive)
REMARK    1  A    between atoms: C_2  and  C_3 
REMARK    2  A    between atoms: C_3  and  C_4 
REMARK    3  A    between atoms: C_10  and  C_11 
REMARK    4  A    between atoms: C_12  and  O_13 
REMARK    5  A    between atoms: C_22  and  N_23 
ROOT
HETATM    1  C   UNL     1      43.968 -16.812   6.695  1.00  0.00     0.066 A 
HETATM    2  N   UNL     1      44.218 -17.943   7.377  1.00  0.00    -0.177 NA
HETATM    3  N   UNL     1      44.127 -18.920   6.458  1.00  0.00    -0.256 N 
HETATM    4  H   UNL     1      44.286 -19.880   6.744  1.00  0.00     0.191 HD
HETATM    5  C   UNL     1      43.810 -18.450   5.226  1.00  0.00     0.175 A 
HETATM    6  C   UNL     1      43.691 -17.086   5.330  1.00  0.00     0.035 A 
HETATM    7  C   UNL     1      43.360 -16.284   4.113  1.00  0.00     0.107 A 
HETATM    8  C   UNL     1      43.081 -17.213   2.927  1.00  0.00     0.067 A 
HETATM    9  C   UNL     1      42.536 -16.569   1.662  1.00  0.00     0.020 C 
HETATM   10  N   UNL     1      42.085 -16.035   0.613  1.00  0.00    -0.096 N 
HETATM   11  C   UNL     1      43.231 -18.564   2.979  1.00  0.00     0.139 A 
HETATM   12  O   UNL     1      43.645 -19.215   4.154  1.00  0.00    -0.279 OA
ENDROOT
BRANCH   7  13
HETATM   13  C   UNL     1      42.179 -15.397   4.473  1.00  0.00    -0.010 A 
HETATM   14  C   UNL     1      40.980 -15.941   4.961  1.00  0.00     0.073 A 
HETATM   15  C   UNL     1      39.932 -15.129   5.395  1.00  0.00     0.038 A 
HETATM   16  C   UNL     1      40.050 -13.744   5.326  1.00  0.00     0.022 A 
HETATM   17  C   UNL     1      41.221 -13.180   4.831  1.00  0.00     0.011 A 
HETATM   18 BR   UNL     1      41.391 -11.300   4.739  1.00  0.00    -0.051 Br
HETATM   19  C   UNL     1      42.280 -13.991   4.414  1.00  0.00     0.030 A 
BRANCH  14  20
HETATM   20  O   UNL     1      40.770 -17.286   5.052  1.00  0.00    -0.360 OA
HETATM   21  H   UNL     1      40.632 -17.517   5.986  1.00  0.00     0.217 HD
ENDBRANCH  14  20
ENDBRANCH   7  13
BRANCH  11  22
HETATM   22  N   UNL     1      42.985 -19.437   1.946  1.00  0.00    -0.282 NA
HETATM   23  H   UNL     1      43.634 -20.216   1.855  1.00  0.00     0.126 HD
HETATM   24  H   UNL     1      42.815 -18.956   1.066  1.00  0.00     0.126 HD
ENDBRANCH  11  22
BRANCH   1  25
HETATM   25  C   UNL     1      43.982 -15.505   7.422  1.00  0.00     0.061 C 
BRANCH  25  26
HETATM   26  C   UNL     1      44.965 -14.481   6.847  1.00  0.00     0.002 C 
HETATM   27  C   UNL     1      45.144 -13.263   7.742  1.00  0.00     0.005 C 
ENDBRANCH  25  26
ENDBRANCH   1  25
TORSDOF 5
ENDMDL
