MODEL 1
REMARK VINA RESULT:      -8.1      0.000      0.000
REMARK  7 active torsions:
REMARK  status: ('A' for Active; 'I' for Inactive)
REMARK    1  A    between atoms: O_2  and  C_3 
REMARK    2  A    between atoms: C_5  and  C_6 
REMARK    3  A    between atoms: C_6  and  O_7 
REMARK    4  A    between atoms: C_6  and  C_8 
REMARK    5  A    between atoms: C_8  and  N_9 
REMARK       I    between atoms: N_9  and  C_10 
REMARK    6  A    between atoms: C_10  and  C_11 
REMARK    7  A    between atoms: C_12  and  C_13 
ROOT
HETATM    1  C   UNL     1      41.699 -14.893   0.808  1.00  0.00     0.089 C 
HETATM    2  C   UNL     1      40.863 -16.098   1.301  1.00  0.00     0.068 C 
HETATM    3  C   UNL     1      39.707 -15.635   2.196  1.00  0.00     0.013 C 
HETATM    4  C   UNL     1      38.786 -14.686   1.428  1.00  0.00     0.001 C 
HETATM    5  C   UNL     1      39.539 -13.531   0.770  1.00  0.00     0.001 C 
HETATM    6  C   UNL     1      40.758 -14.000  -0.035  1.00  0.00     0.015 C 
ENDROOT
BRANCH   1   7
HETATM    7  C   UNL     1      42.398 -14.008   1.865  1.00  0.00     0.222 C 
HETATM    8  N   UNL     1      43.052 -14.649   2.883  1.00  0.00    -0.358 N 
HETATM    9  H   UNL     1      43.299 -15.625   2.706  1.00  0.00     0.162 HD
HETATM   10  O   UNL     1      42.419 -12.780   1.777  1.00  0.00    -0.273 OA
BRANCH   8  11
HETATM   11  C   UNL     1      43.914 -13.941   3.825  1.00  0.00     0.159 C 
BRANCH  11  12
HETATM   12  C   UNL     1      43.221 -13.568   5.156  1.00  0.00     0.169 C 
BRANCH  12  13
HETATM   13  C   UNL     1      42.425 -14.736   5.710  1.00  0.00    -0.025 A 
HETATM   14  C   UNL     1      43.082 -15.725   6.471  1.00  0.00     0.046 A 
HETATM   15  C   UNL     1      42.385 -16.825   6.975  1.00  0.00     0.068 A 
HETATM   16  C   UNL     1      41.015 -16.934   6.735  1.00  0.00     0.037 A 
HETATM   17  C   UNL     1      40.346 -15.960   5.996  1.00  0.00     0.003 A 
HETATM   18  C   UNL     1      41.048 -14.870   5.484  1.00  0.00     0.010 A 
BRANCH  15  19
HETATM   19  O   UNL     1      42.919 -17.850   7.708  1.00  0.00    -0.356 OA
HETATM   20  C   UNL     1      44.318 -18.070   7.583  1.00  0.00     0.210 C 
ENDBRANCH  15  19
ENDBRANCH  12  13
BRANCH  12  21
HETATM   21  O   UNL     1      42.374 -12.432   4.931  1.00  0.00    -0.389 OA
HETATM   22  H   UNL     1      42.884 -11.868   4.323  1.00  0.00     0.210 HD
ENDBRANCH  12  21
ENDBRANCH  11  12
ENDBRANCH   8  11
ENDBRANCH   1   7
BRANCH   2  23
HETATM   23  C   UNL     1      41.661 -17.224   1.895  1.00  0.00     0.110 A 
HETATM   24  N   UNL     1      42.000 -17.377   3.161  1.00  0.00    -0.233 NA
HETATM   25  C   UNL     1      42.793 -18.499   3.207  1.00  0.00     0.087 A 
HETATM   26  C   UNL     1      42.936 -19.053   1.942  1.00  0.00     0.062 A 
HETATM   27  C   UNL     1      43.430 -19.096   4.302  1.00  0.00     0.057 A 
HETATM   28  N   UNL     1      42.207 -18.226   1.125  1.00  0.00    -0.342 N 
HETATM   29  C   UNL     1      43.692 -20.198   1.686  1.00  0.00     0.034 A 
HETATM   30  H   UNL     1      42.104 -18.326   0.126  1.00  0.00     0.167 HD
HETATM   31  C   UNL     1      44.325 -20.786   2.789  1.00  0.00     0.026 A 
HETATM   32  C   UNL     1      44.196 -20.243   4.069  1.00  0.00     0.036 A 
HETATM   33 CL   UNL     1      45.000 -21.000   5.392  1.00  0.00    -0.084 Cl
ENDBRANCH   2  23
TORSDOF 7
ENDMDL
MODEL 2
REMARK VINA RESULT:      -8.0      3.274      6.841
REMARK  7 active torsions:
REMARK  status: ('A' for Active; 'I' for Inactive)
REMARK    1  A    between atoms: O_2  and  C_3 
REMARK    2  A    between atoms: C_5  and  C_6 
REMARK    3  A    between atoms: C_6  and  O_7 
REMARK    4  A    between atoms: C_6  and  C_8 
REMARK    5  A    between atoms: C_8  and  N_9 
REMARK       I    between atoms: N_9  and  C_10 
REMARK    6  A    between atoms: C_10  and  C_11 
REMARK    7  A    between atoms: C_12  and  C_13 
ROOT
HETATM    1  C   UNL     1      40.209 -15.541   1.480  1.00  0.00     0.089 C 
HETATM    2  C   UNL     1      40.651 -15.990   2.893  1.00  0.00     0.068 C 
HETATM    3  C   UNL     1      41.069 -14.787   3.747  1.00  0.00     0.013 C 
HETATM    4  C   UNL     1      39.904 -13.806   3.890  1.00  0.00     0.001 C 
HETATM    5  C   UNL     1      39.292 -13.409   2.548  1.00  0.00     0.001 C 
HETATM    6  C   UNL     1      38.979 -14.620   1.659  1.00  0.00     0.015 C 
ENDROOT
BRANCH   1   7
HETATM    7  C   UNL     1      41.241 -14.813   0.590  1.00  0.00     0.222 C 
HETATM    8  N   UNL     1      40.900 -14.604  -0.721  1.00  0.00    -0.358 N 
HETATM    9  H   UNL     1      39.901 -14.653  -0.932  1.00  0.00     0.162 HD
HETATM   10  O   UNL     1      42.304 -14.384   1.039  1.00  0.00    -0.273 OA
BRANCH   8  11
HETATM   11  C   UNL     1      41.692 -13.759  -1.608  1.00  0.00     0.159 C 
BRANCH  11  12
HETATM   12  C   UNL     1      41.449 -14.021  -3.113  1.00  0.00     0.169 C 
BRANCH  12  13
HETATM   13  C   UNL     1      39.983 -14.297  -3.395  1.00  0.00    -0.025 A 
HETATM   14  C   UNL     1      39.047 -13.248  -3.289  1.00  0.00     0.046 A 
HETATM   15  C   UNL     1      37.687 -13.471  -3.519  1.00  0.00     0.068 A 
HETATM   16  C   UNL     1      37.256 -14.749  -3.875  1.00  0.00     0.037 A 
HETATM   17  C   UNL     1      38.168 -15.796  -3.999  1.00  0.00     0.003 A 
HETATM   18  C   UNL     1      39.523 -15.571  -3.756  1.00  0.00     0.010 A 
BRANCH  15  19
HETATM   19  O   UNL     1      36.691 -12.537  -3.428  1.00  0.00    -0.356 OA
HETATM   20  C   UNL     1      35.845 -12.385  -4.560  1.00  0.00     0.210 C 
ENDBRANCH  15  19
ENDBRANCH  12  13
BRANCH  12  21
HETATM   21  O   UNL     1      42.266 -15.127  -3.524  1.00  0.00    -0.389 OA
HETATM   22  H   UNL     1      41.688 -15.904  -3.426  1.00  0.00     0.210 HD
ENDBRANCH  12  21
ENDBRANCH  11  12
ENDBRANCH   8  11
ENDBRANCH   1   7
BRANCH   2  23
HETATM   23  C   UNL     1      41.649 -17.113   2.919  1.00  0.00     0.110 A 
HETATM   24  N   UNL     1      41.830 -18.038   1.996  1.00  0.00    -0.233 NA
HETATM   25  C   UNL     1      42.785 -18.891   2.497  1.00  0.00     0.087 A 
HETATM   26  C   UNL     1      43.208 -18.473   3.752  1.00  0.00     0.062 A 
HETATM   27  C   UNL     1      43.332 -20.049   1.930  1.00  0.00     0.057 A 
HETATM   28  N   UNL     1      42.474 -17.341   3.998  1.00  0.00    -0.342 N 
HETATM   29  C   UNL     1      44.172 -19.150   4.502  1.00  0.00     0.034 A 
HETATM   30  H   UNL     1      42.518 -16.781   4.837  1.00  0.00     0.167 HD
HETATM   31  C   UNL     1      44.711 -20.307   3.925  1.00  0.00     0.026 A 
HETATM   32  C   UNL     1      44.296 -20.745   2.665  1.00  0.00     0.036 A 
HETATM   33 CL   UNL     1      44.986 -22.179   2.001  1.00  0.00    -0.084 Cl
ENDBRANCH   2  23
TORSDOF 7
ENDMDL
MODEL 3
REMARK VINA RESULT:      -7.8      1.583      2.260
REMARK  7 active torsions:
REMARK  status: ('A' for Active; 'I' for Inactive)
REMARK    1  A    between atoms: O_2  and  C_3 
REMARK    2  A    between atoms: C_5  and  C_6 
REMARK    3  A    between atoms: C_6  and  O_7 
REMARK    4  A    between atoms: C_6  and  C_8 
REMARK    5  A    between atoms: C_8  and  N_9 
REMARK       I    between atoms: N_9  and  C_10 
REMARK    6  A    between atoms: C_10  and  C_11 
REMARK    7  A    between atoms: C_12  and  C_13 
ROOT
HETATM    1  C   UNL     1      40.383 -13.168   0.989  1.00  0.00     0.089 C 
HETATM    2  C   UNL     1      39.853 -14.616   0.851  1.00  0.00     0.068 C 
HETATM    3  C   UNL     1      38.448 -14.746   1.449  1.00  0.00     0.013 C 
HETATM    4  C   UNL     1      37.476 -13.802   0.737  1.00  0.00     0.001 C 
HETATM    5  C   UNL     1      37.979 -12.361   0.686  1.00  0.00     0.001 C 
HETATM    6  C   UNL     1      39.426 -12.254   0.187  1.00  0.00     0.015 C 
ENDROOT
BRANCH   1   7
HETATM    7  C   UNL     1      40.543 -12.582   2.410  1.00  0.00     0.222 C 
HETATM    8  N   UNL     1      40.407 -13.449   3.463  1.00  0.00    -0.358 N 
HETATM    9  H   UNL     1      40.526 -14.439   3.239  1.00  0.00     0.162 HD
HETATM   10  O   UNL     1      40.834 -11.401   2.601  1.00  0.00    -0.273 OA
BRANCH   8  11
HETATM   11  C   UNL     1      40.731 -13.068   4.834  1.00  0.00     0.159 C 
BRANCH  11  12
HETATM   12  C   UNL     1      40.527 -14.200   5.868  1.00  0.00     0.169 C 
BRANCH  12  13
HETATM   13  C   UNL     1      41.827 -14.931   6.150  1.00  0.00    -0.025 A 
HETATM   14  C   UNL     1      41.787 -16.261   6.617  1.00  0.00     0.046 A 
HETATM   15  C   UNL     1      42.963 -16.956   6.910  1.00  0.00     0.068 A 
HETATM   16  C   UNL     1      44.193 -16.326   6.719  1.00  0.00     0.037 A 
HETATM   17  C   UNL     1      44.253 -15.017   6.245  1.00  0.00     0.003 A 
HETATM   18  C   UNL     1      43.076 -14.323   5.966  1.00  0.00     0.010 A 
BRANCH  15  19
HETATM   19  O   UNL     1      43.045 -18.237   7.383  1.00  0.00    -0.356 OA
HETATM   20  C   UNL     1      44.239 -18.597   8.065  1.00  0.00     0.210 C 
ENDBRANCH  15  19
ENDBRANCH  12  13
BRANCH  12  21
HETATM   21  O   UNL     1      39.529 -15.103   5.369  1.00  0.00    -0.389 OA
HETATM   22  H   UNL     1      38.705 -14.586   5.388  1.00  0.00     0.210 HD
ENDBRANCH  12  21
ENDBRANCH  11  12
ENDBRANCH   8  11
ENDBRANCH   1   7
BRANCH   2  23
HETATM   23  C   UNL     1      40.800 -15.685   1.317  1.00  0.00     0.110 A 
HETATM   24  N   UNL     1      40.831 -16.256   2.506  1.00  0.00    -0.233 NA
HETATM   25  C   UNL     1      41.914 -17.104   2.491  1.00  0.00     0.087 A 
HETATM   26  C   UNL     1      42.556 -17.059   1.260  1.00  0.00     0.062 A 
HETATM   27  C   UNL     1      42.408 -17.937   3.502  1.00  0.00     0.057 A 
HETATM   28  N   UNL     1      41.829 -16.152   0.531  1.00  0.00    -0.342 N 
HETATM   29  C   UNL     1      43.690 -17.815   0.958  1.00  0.00     0.034 A 
HETATM   30  H   UNL     1      42.028 -15.863  -0.416  1.00  0.00     0.167 HD
HETATM   31  C   UNL     1      44.175 -18.644   1.978  1.00  0.00     0.026 A 
HETATM   32  C   UNL     1      43.546 -18.701   3.223  1.00  0.00     0.036 A 
HETATM   33 CL   UNL     1      44.186 -19.733   4.446  1.00  0.00    -0.084 Cl
ENDBRANCH   2  23
TORSDOF 7
ENDMDL
MODEL 4
REMARK VINA RESULT:      -7.8      2.240      4.732
REMARK  7 active torsions:
REMARK  status: ('A' for Active; 'I' for Inactive)
REMARK    1  A    between atoms: O_2  and  C_3 
REMARK    2  A    between atoms: C_5  and  C_6 
REMARK    3  A    between atoms: C_6  and  O_7 
REMARK    4  A    between atoms: C_6  and  C_8 
REMARK    5  A    between atoms: C_8  and  N_9 
REMARK       I    between atoms: N_9  and  C_10 
REMARK    6  A    between atoms: C_10  and  C_11 
REMARK    7  A    between atoms: C_12  and  C_13 
ROOT
HETATM    1  C   UNL     1      39.909 -14.011   5.163  1.00  0.00     0.089 C 
HETATM    2  C   UNL     1      41.343 -13.883   5.731  1.00  0.00     0.068 C 
HETATM    3  C   UNL     1      42.086 -12.707   5.087  1.00  0.00     0.013 C 
HETATM    4  C   UNL     1      41.341 -11.397   5.351  1.00  0.00     0.001 C 
HETATM    5  C   UNL     1      39.865 -11.465   4.960  1.00  0.00     0.001 C 
HETATM    6  C   UNL     1      39.160 -12.706   5.523  1.00  0.00     0.015 C 
ENDROOT
BRANCH   1   7
HETATM    7  C   UNL     1      39.744 -14.269   3.648  1.00  0.00     0.222 C 
HETATM    8  N   UNL     1      39.963 -15.546   3.204  1.00  0.00    -0.358 N 
HETATM    9  H   UNL     1      39.906 -16.278   3.915  1.00  0.00     0.162 HD
HETATM   10  O   UNL     1      39.379 -13.386   2.871  1.00  0.00    -0.273 OA
BRANCH   8  11
HETATM   11  C   UNL     1      39.648 -15.963   1.842  1.00  0.00     0.159 C 
BRANCH  11  12
HETATM   12  C   UNL     1      40.849 -15.906   0.870  1.00  0.00     0.169 C 
BRANCH  12  13
HETATM   13  C   UNL     1      41.995 -16.775   1.358  1.00  0.00    -0.025 A 
HETATM   14  C   UNL     1      41.842 -18.177   1.380  1.00  0.00     0.046 A 
HETATM   15  C   UNL     1      42.867 -19.004   1.845  1.00  0.00     0.068 A 
HETATM   16  C   UNL     1      44.064 -18.433   2.276  1.00  0.00     0.037 A 
HETATM   17  C   UNL     1      44.239 -17.050   2.248  1.00  0.00     0.003 A 
HETATM   18  C   UNL     1      43.209 -16.227   1.795  1.00  0.00     0.010 A 
BRANCH  15  19
HETATM   19  O   UNL     1      42.824 -20.370   1.928  1.00  0.00    -0.356 OA
HETATM   20  C   UNL     1      44.064 -21.044   2.095  1.00  0.00     0.210 C 
ENDBRANCH  15  19
ENDBRANCH  12  13
BRANCH  12  21
HETATM   21  O   UNL     1      41.265 -14.540   0.733  1.00  0.00    -0.389 OA
HETATM   22  H   UNL     1      41.560 -14.469  -0.192  1.00  0.00     0.210 HD
ENDBRANCH  12  21
ENDBRANCH  11  12
ENDBRANCH   8  11
ENDBRANCH   1   7
BRANCH   2  23
HETATM   23  C   UNL     1      42.138 -15.158   5.737  1.00  0.00     0.110 A 
HETATM   24  N   UNL     1      41.695 -16.374   5.482  1.00  0.00    -0.233 NA
HETATM   25  C   UNL     1      42.760 -17.218   5.693  1.00  0.00     0.087 A 
HETATM   26  C   UNL     1      43.886 -16.501   6.076  1.00  0.00     0.062 A 
HETATM   27  C   UNL     1      42.828 -18.612   5.580  1.00  0.00     0.057 A 
HETATM   28  N   UNL     1      43.467 -15.195   6.095  1.00  0.00    -0.342 N 
HETATM   29  C   UNL     1      45.115 -17.098   6.359  1.00  0.00     0.034 A 
HETATM   30  H   UNL     1      44.034 -14.399   6.348  1.00  0.00     0.167 HD
HETATM   31  C   UNL     1      45.172 -18.494   6.244  1.00  0.00     0.026 A 
HETATM   32  C   UNL     1      44.049 -19.232   5.863  1.00  0.00     0.036 A 
HETATM   33 CL   UNL     1      44.169 -20.947   5.742  1.00  0.00    -0.084 Cl
ENDBRANCH   2  23
TORSDOF 7
ENDMDL
MODEL 5
REMARK VINA RESULT:      -7.8      2.406      6.078
REMARK  7 active torsions:
REMARK  status: ('A' for Active; 'I' for Inactive)
REMARK    1  A    between atoms: O_2  and  C_3 
REMARK    2  A    between atoms: C_5  and  C_6 
REMARK    3  A    between atoms: C_6  and  O_7 
REMARK    4  A    between atoms: C_6  and  C_8 
REMARK    5  A    between atoms: C_8  and  N_9 
REMARK       I    between atoms: N_9  and  C_10 
REMARK    6  A    between atoms: C_10  and  C_11 
REMARK    7  A    between atoms: C_12  and  C_13 
ROOT
HETATM    1  C   UNL     1      40.969 -15.385   4.881  1.00  0.00     0.089 C 
HETATM    2  C   UNL     1      42.421 -15.722   5.301  1.00  0.00     0.068 C 
HETATM    3  C   UNL     1      43.340 -14.507   5.122  1.00  0.00     0.013 C 
HETATM    4  C   UNL     1      42.846 -13.336   5.975  1.00  0.00     0.001 C 
HETATM    5  C   UNL     1      41.371 -13.014   5.744  1.00  0.00     0.001 C 
HETATM    6  C   UNL     1      40.475 -14.257   5.818  1.00  0.00     0.015 C 
ENDROOT
BRANCH   1   7
HETATM    7  C   UNL     1      40.714 -14.954   3.419  1.00  0.00     0.222 C 
HETATM    8  N   UNL     1      41.813 -14.730   2.632  1.00  0.00    -0.358 N 
HETATM    9  H   UNL     1      42.684 -15.157   2.955  1.00  0.00     0.162 HD
HETATM   10  O   UNL     1      39.578 -14.866   2.953  1.00  0.00    -0.273 OA
BRANCH   8  11
HETATM   11  C   UNL     1      41.711 -14.517   1.192  1.00  0.00     0.159 C 
BRANCH  11  12
HETATM   12  C   UNL     1      41.668 -13.028   0.776  1.00  0.00     0.169 C 
BRANCH  12  13
HETATM   13  C   UNL     1      41.829 -12.870  -0.725  1.00  0.00    -0.025 A 
HETATM   14  C   UNL     1      41.306 -13.855  -1.587  1.00  0.00     0.046 A 
HETATM   15  C   UNL     1      41.458 -13.753  -2.972  1.00  0.00     0.068 A 
HETATM   16  C   UNL     1      42.122 -12.649  -3.507  1.00  0.00     0.037 A 
HETATM   17  C   UNL     1      42.634 -11.658  -2.671  1.00  0.00     0.003 A 
HETATM   18  C   UNL     1      42.491 -11.770  -1.289  1.00  0.00     0.010 A 
BRANCH  15  19
HETATM   19  O   UNL     1      41.009 -14.654  -3.900  1.00  0.00    -0.356 OA
HETATM   20  C   UNL     1      39.992 -15.556  -3.483  1.00  0.00     0.210 C 
ENDBRANCH  15  19
ENDBRANCH  12  13
BRANCH  12  21
HETATM   21  O   UNL     1      42.701 -12.324   1.479  1.00  0.00    -0.389 OA
HETATM   22  H   UNL     1      43.451 -12.945   1.491  1.00  0.00     0.210 HD
ENDBRANCH  12  21
ENDBRANCH  11  12
ENDBRANCH   8  11
ENDBRANCH   1   7
BRANCH   2  23
HETATM   23  C   UNL     1      42.978 -16.983   4.703  1.00  0.00     0.110 A 
HETATM   24  N   UNL     1      42.690 -17.498   3.523  1.00  0.00    -0.233 NA
HETATM   25  C   UNL     1      43.373 -18.690   3.454  1.00  0.00     0.087 A 
HETATM   26  C   UNL     1      44.104 -18.905   4.615  1.00  0.00     0.062 A 
HETATM   27  C   UNL     1      43.405 -19.640   2.426  1.00  0.00     0.057 A 
HETATM   28  N   UNL     1      43.839 -17.807   5.392  1.00  0.00    -0.342 N 
HETATM   29  C   UNL     1      44.892 -20.038   4.826  1.00  0.00     0.034 A 
HETATM   30  H   UNL     1      44.199 -17.641   6.320  1.00  0.00     0.167 HD
HETATM   31  C   UNL     1      44.916 -20.983   3.791  1.00  0.00     0.026 A 
HETATM   32  C   UNL     1      44.184 -20.785   2.617  1.00  0.00     0.036 A 
HETATM   33 CL   UNL     1      44.242 -21.980   1.377  1.00  0.00    -0.084 Cl
ENDBRANCH   2  23
TORSDOF 7
ENDMDL
MODEL 6
REMARK VINA RESULT:      -7.7      3.296      5.759
REMARK  7 active torsions:
REMARK  status: ('A' for Active; 'I' for Inactive)
REMARK    1  A    between atoms: O_2  and  C_3 
REMARK    2  A    between atoms: C_5  and  C_6 
REMARK    3  A    between atoms: C_6  and  O_7 
REMARK    4  A    between atoms: C_6  and  C_8 
REMARK    5  A    between atoms: C_8  and  N_9 
REMARK       I    between atoms: N_9  and  C_10 
REMARK    6  A    between atoms: C_10  and  C_11 
REMARK    7  A    between atoms: C_12  and  C_13 
ROOT
HETATM    1  C   UNL     1      41.781 -16.583   3.133  1.00  0.00     0.089 C 
HETATM    2  C   UNL     1      41.512 -16.678   1.612  1.00  0.00     0.068 C 
HETATM    3  C   UNL     1      42.824 -16.807   0.828  1.00  0.00     0.013 C 
HETATM    4  C   UNL     1      43.584 -18.061   1.267  1.00  0.00     0.001 C 
HETATM    5  C   UNL     1      43.776 -18.140   2.780  1.00  0.00     0.001 C 
HETATM    6  C   UNL     1      42.473 -17.901   3.556  1.00  0.00     0.015 C 
ENDROOT
BRANCH   1   7
HETATM    7  C   UNL     1      42.627 -15.398   3.652  1.00  0.00     0.222 C 
HETATM    8  N   UNL     1      42.706 -15.233   5.009  1.00  0.00    -0.358 N 
HETATM    9  H   UNL     1      42.479 -16.057   5.570  1.00  0.00     0.162 HD
HETATM   10  O   UNL     1      43.250 -14.658   2.890  1.00  0.00    -0.273 OA
BRANCH   8  11
HETATM   11  C   UNL     1      43.626 -14.284   5.628  1.00  0.00     0.159 C 
BRANCH  11  12
HETATM   12  C   UNL     1      44.518 -14.898   6.732  1.00  0.00     0.169 C 
BRANCH  12  13
HETATM   13  C   UNL     1      44.266 -16.387   6.880  1.00  0.00    -0.025 A 
HETATM   14  C   UNL     1      44.988 -17.296   6.080  1.00  0.00     0.046 A 
HETATM   15  C   UNL     1      44.764 -18.672   6.174  1.00  0.00     0.068 A 
HETATM   16  C   UNL     1      43.824 -19.150   7.087  1.00  0.00     0.037 A 
HETATM   17  C   UNL     1      43.110 -18.267   7.896  1.00  0.00     0.003 A 
HETATM   18  C   UNL     1      43.328 -16.895   7.791  1.00  0.00     0.010 A 
BRANCH  15  19
HETATM   19  O   UNL     1      45.390 -19.642   5.438  1.00  0.00    -0.356 OA
HETATM   20  C   UNL     1      44.663 -20.839   5.200  1.00  0.00     0.210 C 
ENDBRANCH  15  19
ENDBRANCH  12  13
BRANCH  12  21
HETATM   21  O   UNL     1      44.262 -14.209   7.964  1.00  0.00    -0.389 OA
HETATM   22  H   UNL     1      45.124 -14.195   8.417  1.00  0.00     0.210 HD
ENDBRANCH  12  21
ENDBRANCH  11  12
ENDBRANCH   8  11
ENDBRANCH   1   7
BRANCH   2  23
HETATM   23  C   UNL     1      40.593 -15.624   1.063  1.00  0.00     0.110 A 
HETATM   24  N   UNL     1      40.888 -14.696   0.174  1.00  0.00    -0.233 NA
HETATM   25  C   UNL     1      39.762 -13.916   0.051  1.00  0.00     0.087 A 
HETATM   26  C   UNL     1      38.749 -14.383   0.878  1.00  0.00     0.062 A 
HETATM   27  C   UNL     1      39.542 -12.786  -0.747  1.00  0.00     0.057 A 
HETATM   28  N   UNL     1      39.299 -15.469   1.509  1.00  0.00    -0.342 N 
HETATM   29  C   UNL     1      37.491 -13.784   0.964  1.00  0.00     0.034 A 
HETATM   30  H   UNL     1      38.839 -16.045   2.199  1.00  0.00     0.167 HD
HETATM   31  C   UNL     1      37.283 -12.654   0.162  1.00  0.00     0.026 A 
HETATM   32  C   UNL     1      38.291 -12.167  -0.674  1.00  0.00     0.036 A 
HETATM   33 CL   UNL     1      37.987 -10.770  -1.637  1.00  0.00    -0.084 Cl
ENDBRANCH   2  23
TORSDOF 7
ENDMDL
MODEL 7
REMARK VINA RESULT:      -7.6      4.876      7.710
REMARK  7 active torsions:
REMARK  status: ('A' for Active; 'I' for Inactive)
REMARK    1  A    between atoms: O_2  and  C_3 
REMARK    2  A    between atoms: C_5  and  C_6 
REMARK    3  A    between atoms: C_6  and  O_7 
REMARK    4  A    between atoms: C_6  and  C_8 
REMARK    5  A    between atoms: C_8  and  N_9 
REMARK       I    between atoms: N_9  and  C_10 
REMARK    6  A    between atoms: C_10  and  C_11 
REMARK    7  A    between atoms: C_12  and  C_13 
ROOT
HETATM    1  C   UNL     1      40.225 -12.476   6.293  1.00  0.00     0.089 C 
HETATM    2  C   UNL     1      40.615 -11.026   6.667  1.00  0.00     0.068 C 
HETATM    3  C   UNL     1      41.276 -10.312   5.481  1.00  0.00     0.013 C 
HETATM    4  C   UNL     1      40.321 -10.267   4.287  1.00  0.00     0.001 C 
HETATM    5  C   UNL     1      39.758 -11.640   3.925  1.00  0.00     0.001 C 
HETATM    6  C   UNL     1      39.196 -12.389   5.141  1.00  0.00     0.015 C 
ENDROOT
BRANCH   1   7
HETATM    7  C   UNL     1      41.350 -13.449   5.872  1.00  0.00     0.222 C 
HETATM    8  N   UNL     1      41.086 -14.790   5.966  1.00  0.00    -0.358 N 
HETATM    9  H   UNL     1      40.096 -15.045   5.997  1.00  0.00     0.162 HD
HETATM   10  O   UNL     1      42.423 -13.049   5.419  1.00  0.00    -0.273 OA
BRANCH   8  11
HETATM   11  C   UNL     1      41.981 -15.802   5.415  1.00  0.00     0.159 C 
BRANCH  11  12
HETATM   12  C   UNL     1      41.265 -16.892   4.583  1.00  0.00     0.169 C 
BRANCH  12  13
HETATM   13  C   UNL     1      42.263 -17.819   3.913  1.00  0.00    -0.025 A 
HETATM   14  C   UNL     1      43.204 -18.513   4.702  1.00  0.00     0.046 A 
HETATM   15  C   UNL     1      44.151 -19.355   4.116  1.00  0.00     0.068 A 
HETATM   16  C   UNL     1      44.152 -19.523   2.732  1.00  0.00     0.037 A 
HETATM   17  C   UNL     1      43.221 -18.856   1.936  1.00  0.00     0.003 A 
HETATM   18  C   UNL     1      42.285 -18.007   2.524  1.00  0.00     0.010 A 
BRANCH  15  19
HETATM   19  O   UNL     1      45.119 -20.061   4.778  1.00  0.00    -0.356 OA
HETATM   20  C   UNL     1      44.901 -21.457   4.939  1.00  0.00     0.210 C 
ENDBRANCH  15  19
ENDBRANCH  12  13
BRANCH  12  21
HETATM   21  O   UNL     1      40.428 -16.251   3.610  1.00  0.00    -0.389 OA
HETATM   22  H   UNL     1      39.827 -15.695   4.137  1.00  0.00     0.210 HD
ENDBRANCH  12  21
ENDBRANCH  11  12
ENDBRANCH   8  11
ENDBRANCH   1   7
BRANCH   2  23
HETATM   23  C   UNL     1      41.384 -10.886   7.950  1.00  0.00     0.110 A 
HETATM   24  N   UNL     1      40.970 -10.320   9.068  1.00  0.00    -0.233 NA
HETATM   25  C   UNL     1      42.041 -10.355   9.929  1.00  0.00     0.087 A 
HETATM   26  C   UNL     1      43.135 -10.965   9.328  1.00  0.00     0.062 A 
HETATM   27  C   UNL     1      42.147  -9.874  11.239  1.00  0.00     0.057 A 
HETATM   28  N   UNL     1      42.692 -11.295   8.073  1.00  0.00    -0.342 N 
HETATM   29  C   UNL     1      44.364 -11.136   9.967  1.00  0.00     0.034 A 
HETATM   30  H   UNL     1      43.241 -11.745   7.354  1.00  0.00     0.167 HD
HETATM   31  C   UNL     1      44.459 -10.650  11.278  1.00  0.00     0.026 A 
HETATM   32  C   UNL     1      43.371 -10.031  11.898  1.00  0.00     0.036 A 
HETATM   33 CL   UNL     1      43.540  -9.445  13.510  1.00  0.00    -0.084 Cl
ENDBRANCH   2  23
TORSDOF 7
ENDMDL
MODEL 8
REMARK VINA RESULT:      -7.6      4.141      5.286
REMARK  7 active torsions:
REMARK  status: ('A' for Active; 'I' for Inactive)
REMARK    1  A    between atoms: O_2  and  C_3 
REMARK    2  A    between atoms: C_5  and  C_6 
REMARK    3  A    between atoms: C_6  and  O_7 
REMARK    4  A    between atoms: C_6  and  C_8 
REMARK    5  A    between atoms: C_8  and  N_9 
REMARK       I    between atoms: N_9  and  C_10 
REMARK    6  A    between atoms: C_10  and  C_11 
REMARK    7  A    between atoms: C_12  and  C_13 
ROOT
HETATM    1  C   UNL     1      43.193 -14.228   5.054  1.00  0.00     0.089 C 
HETATM    2  C   UNL     1      42.223 -15.245   4.406  1.00  0.00     0.068 C 
HETATM    3  C   UNL     1      40.933 -15.373   5.226  1.00  0.00     0.013 C 
HETATM    4  C   UNL     1      40.226 -14.019   5.322  1.00  0.00     0.001 C 
HETATM    5  C   UNL     1      41.146 -12.904   5.815  1.00  0.00     0.001 C 
HETATM    6  C   UNL     1      42.479 -12.856   5.057  1.00  0.00     0.015 C 
ENDROOT
BRANCH   1   7
HETATM    7  C   UNL     1      43.705 -14.517   6.483  1.00  0.00     0.222 C 
HETATM    8  N   UNL     1      44.404 -13.520   7.111  1.00  0.00    -0.358 N 
HETATM    9  H   UNL     1      44.267 -12.579   6.735  1.00  0.00     0.162 HD
HETATM   10  O   UNL     1      43.456 -15.573   7.065  1.00  0.00    -0.273 OA
BRANCH   8  11
HETATM   11  C   UNL     1      44.764 -13.590   8.523  1.00  0.00     0.159 C 
BRANCH  11  12
HETATM   12  C   UNL     1      45.417 -12.300   9.072  1.00  0.00     0.169 C 
BRANCH  12  13
HETATM   13  C   UNL     1      44.387 -11.393   9.722  1.00  0.00    -0.025 A 
HETATM   14  C   UNL     1      44.585 -10.960  11.049  1.00  0.00     0.046 A 
HETATM   15  C   UNL     1      43.645 -10.146  11.687  1.00  0.00     0.068 A 
HETATM   16  C   UNL     1      42.506  -9.743  10.990  1.00  0.00     0.037 A 
HETATM   17  C   UNL     1      42.301 -10.150   9.672  1.00  0.00     0.003 A 
HETATM   18  C   UNL     1      43.234 -10.973   9.044  1.00  0.00     0.010 A 
BRANCH  15  19
HETATM   19  O   UNL     1      43.723  -9.681  12.972  1.00  0.00    -0.356 OA
HETATM   20  C   UNL     1      42.706 -10.103  13.871  1.00  0.00     0.210 C 
ENDBRANCH  15  19
ENDBRANCH  12  13
BRANCH  12  21
HETATM   21  O   UNL     1      46.082 -11.627   7.993  1.00  0.00    -0.389 OA
HETATM   22  H   UNL     1      45.378 -11.458   7.343  1.00  0.00     0.210 HD
ENDBRANCH  12  21
ENDBRANCH  11  12
ENDBRANCH   8  11
ENDBRANCH   1   7
BRANCH   2  23
HETATM   23  C   UNL     1      42.836 -16.570   4.050  1.00  0.00     0.110 A 
HETATM   24  N   UNL     1      42.665 -17.252   2.934  1.00  0.00    -0.233 NA
HETATM   25  C   UNL     1      43.352 -18.431   3.102  1.00  0.00     0.087 A 
HETATM   26  C   UNL     1      43.967 -18.469   4.347  1.00  0.00     0.062 A 
HETATM   27  C   UNL     1      43.484 -19.518   2.229  1.00  0.00     0.057 A 
HETATM   28  N   UNL     1      43.627 -17.275   4.930  1.00  0.00    -0.342 N 
HETATM   29  C   UNL     1      44.732 -19.548   4.792  1.00  0.00     0.034 A 
HETATM   30  H   UNL     1      43.895 -16.974   5.855  1.00  0.00     0.167 HD
HETATM   31  C   UNL     1      44.856 -20.630   3.911  1.00  0.00     0.026 A 
HETATM   32  C   UNL     1      44.242 -20.613   2.656  1.00  0.00     0.036 A 
HETATM   33 CL   UNL     1      44.421 -21.971   1.611  1.00  0.00    -0.084 Cl
ENDBRANCH   2  23
TORSDOF 7
ENDMDL
MODEL 9
REMARK VINA RESULT:      -7.5      2.672      5.953
REMARK  7 active torsions:
REMARK  status: ('A' for Active; 'I' for Inactive)
REMARK    1  A    between atoms: O_2  and  C_3 
REMARK    2  A    between atoms: C_5  and  C_6 
REMARK    3  A    between atoms: C_6  and  O_7 
REMARK    4  A    between atoms: C_6  and  C_8 
REMARK    5  A    between atoms: C_8  and  N_9 
REMARK       I    between atoms: N_9  and  C_10 
REMARK    6  A    between atoms: C_10  and  C_11 
REMARK    7  A    between atoms: C_12  and  C_13 
ROOT
HETATM    1  C   UNL     1      42.636 -18.316   4.712  1.00  0.00     0.089 C 
HETATM    2  C   UNL     1      42.624 -18.352   3.164  1.00  0.00     0.068 C 
HETATM    3  C   UNL     1      44.050 -18.421   2.605  1.00  0.00     0.013 C 
HETATM    4  C   UNL     1      44.762 -19.675   3.115  1.00  0.00     0.001 C 
HETATM    5  C   UNL     1      44.703 -19.814   4.636  1.00  0.00     0.001 C 
HETATM    6  C   UNL     1      43.285 -19.636   5.192  1.00  0.00     0.015 C 
ENDROOT
BRANCH   1   7
HETATM    7  C   UNL     1      43.350 -17.136   5.408  1.00  0.00     0.222 C 
HETATM    8  N   UNL     1      43.156 -15.887   4.880  1.00  0.00    -0.358 N 
HETATM    9  H   UNL     1      42.331 -15.781   4.285  1.00  0.00     0.162 HD
HETATM   10  O   UNL     1      44.024 -17.291   6.427  1.00  0.00    -0.273 OA
BRANCH   8  11
HETATM   11  C   UNL     1      43.606 -14.675   5.556  1.00  0.00     0.159 C 
BRANCH  11  12
HETATM   12  C   UNL     1      42.462 -13.719   5.965  1.00  0.00     0.169 C 
BRANCH  12  13
HETATM   13  C   UNL     1      41.829 -13.064   4.750  1.00  0.00    -0.025 A 
HETATM   14  C   UNL     1      42.508 -13.092   3.515  1.00  0.00     0.046 A 
HETATM   15  C   UNL     1      41.966 -12.479   2.383  1.00  0.00     0.068 A 
HETATM   16  C   UNL     1      40.727 -11.845   2.477  1.00  0.00     0.037 A 
HETATM   17  C   UNL     1      40.035 -11.818   3.687  1.00  0.00     0.003 A 
HETATM   18  C   UNL     1      40.585 -12.421   4.817  1.00  0.00     0.010 A 
BRANCH  15  19
HETATM   19  O   UNL     1      42.541 -12.428   1.142  1.00  0.00    -0.356 OA
HETATM   20  C   UNL     1      42.059 -11.433   0.249  1.00  0.00     0.210 C 
ENDBRANCH  15  19
ENDBRANCH  12  13
BRANCH  12  21
HETATM   21  O   UNL     1      42.987 -12.732   6.864  1.00  0.00    -0.389 OA
HETATM   22  H   UNL     1      42.296 -12.631   7.543  1.00  0.00     0.210 HD
ENDBRANCH  12  21
ENDBRANCH  11  12
ENDBRANCH   8  11
ENDBRANCH   1   7
BRANCH   2  23
HETATM   23  C   UNL     1      41.779 -17.295   2.512  1.00  0.00     0.110 A 
HETATM   24  N   UNL     1      40.653 -16.781   2.970  1.00  0.00    -0.233 NA
HETATM   25  C   UNL     1      40.206 -15.920   1.995  1.00  0.00     0.087 A 
HETATM   26  C   UNL     1      41.083 -15.898   0.919  1.00  0.00     0.062 A 
HETATM   27  C   UNL     1      39.050 -15.130   1.966  1.00  0.00     0.057 A 
HETATM   28  N   UNL     1      42.075 -16.778   1.271  1.00  0.00    -0.342 N 
HETATM   29  C   UNL     1      40.882 -15.115  -0.219  1.00  0.00     0.034 A 
HETATM   30  H   UNL     1      42.876 -17.019   0.706  1.00  0.00     0.167 HD
HETATM   31  C   UNL     1      39.722 -14.329  -0.238  1.00  0.00     0.026 A 
HETATM   32  C   UNL     1      38.826 -14.340   0.834  1.00  0.00     0.036 A 
HETATM   33 CL   UNL     1      37.410 -13.360   0.760  1.00  0.00    -0.084 Cl
ENDBRANCH   2  23
TORSDOF 7
ENDMDL
MODEL 10
REMARK VINA RESULT:      -7.4      3.555      6.159
REMARK  7 active torsions:
REMARK  status: ('A' for Active; 'I' for Inactive)
REMARK    1  A    between atoms: O_2  and  C_3 
REMARK    2  A    between atoms: C_5  and  C_6 
REMARK    3  A    between atoms: C_6  and  O_7 
REMARK    4  A    between atoms: C_6  and  C_8 
REMARK    5  A    between atoms: C_8  and  N_9 
REMARK       I    between atoms: N_9  and  C_10 
REMARK    6  A    between atoms: C_10  and  C_11 
REMARK    7  A    between atoms: C_12  and  C_13 
ROOT
HETATM    1  C   UNL     1      42.652 -14.259   2.379  1.00  0.00     0.089 C 
HETATM    2  C   UNL     1      41.707 -13.223   1.724  1.00  0.00     0.068 C 
HETATM    3  C   UNL     1      40.690 -12.688   2.739  1.00  0.00     0.013 C 
HETATM    4  C   UNL     1      41.410 -12.016   3.910  1.00  0.00     0.001 C 
HETATM    5  C   UNL     1      42.479 -12.908   4.540  1.00  0.00     0.001 C 
HETATM    6  C   UNL     1      43.424 -13.524   3.501  1.00  0.00     0.015 C 
ENDROOT
BRANCH   1   7
HETATM    7  C   UNL     1      42.030 -15.543   2.973  1.00  0.00     0.222 C 
HETATM    8  N   UNL     1      42.813 -16.286   3.816  1.00  0.00    -0.358 N 
HETATM    9  H   UNL     1      43.606 -15.793   4.232  1.00  0.00     0.162 HD
HETATM   10  O   UNL     1      40.863 -15.866   2.749  1.00  0.00    -0.273 OA
BRANCH   8  11
HETATM   11  C   UNL     1      42.283 -17.400   4.594  1.00  0.00     0.159 C 
BRANCH  11  12
HETATM   12  C   UNL     1      43.239 -17.911   5.697  1.00  0.00     0.169 C 
BRANCH  12  13
HETATM   13  C   UNL     1      43.789 -19.285   5.358  1.00  0.00    -0.025 A 
HETATM   14  C   UNL     1      44.156 -19.576   4.028  1.00  0.00     0.046 A 
HETATM   15  C   UNL     1      44.642 -20.838   3.677  1.00  0.00     0.068 A 
HETATM   16  C   UNL     1      44.783 -21.814   4.662  1.00  0.00     0.037 A 
HETATM   17  C   UNL     1      44.438 -21.541   5.985  1.00  0.00     0.003 A 
HETATM   18  C   UNL     1      43.941 -20.284   6.329  1.00  0.00     0.010 A 
BRANCH  15  19
HETATM   19  O   UNL     1      45.011 -21.237   2.420  1.00  0.00    -0.356 OA
HETATM   20  C   UNL     1      44.014 -21.867   1.627  1.00  0.00     0.210 C 
ENDBRANCH  15  19
ENDBRANCH  12  13
BRANCH  12  21
HETATM   21  O   UNL     1      42.530 -17.937   6.944  1.00  0.00    -0.389 OA
HETATM   22  H   UNL     1      42.842 -18.748   7.382  1.00  0.00     0.210 HD
ENDBRANCH  12  21
ENDBRANCH  11  12
ENDBRANCH   8  11
ENDBRANCH   1   7
BRANCH   2  23
HETATM   23  C   UNL     1      41.081 -13.665   0.431  1.00  0.00     0.110 A 
HETATM   24  N   UNL     1      39.877 -13.361  -0.014  1.00  0.00    -0.233 NA
HETATM   25  C   UNL     1      39.719 -14.060  -1.188  1.00  0.00     0.087 A 
HETATM   26  C   UNL     1      40.858 -14.801  -1.474  1.00  0.00     0.062 A 
HETATM   27  C   UNL     1      38.622 -14.109  -2.056  1.00  0.00     0.057 A 
HETATM   28  N   UNL     1      41.709 -14.533  -0.433  1.00  0.00    -0.342 N 
HETATM   29  C   UNL     1      40.982 -15.611  -2.604  1.00  0.00     0.034 A 
HETATM   30  H   UNL     1      42.633 -14.922  -0.312  1.00  0.00     0.167 HD
HETATM   31  C   UNL     1      39.877 -15.654  -3.465  1.00  0.00     0.026 A 
HETATM   32  C   UNL     1      38.722 -14.917  -3.193  1.00  0.00     0.036 A 
HETATM   33 CL   UNL     1      37.387 -15.007  -4.280  1.00  0.00    -0.084 Cl
ENDBRANCH   2  23
TORSDOF 7
ENDMDL
