MODEL 1
REMARK VINA RESULT:      -9.1      0.000      0.000
REMARK  5 active torsions:
REMARK  status: ('A' for Active; 'I' for Inactive)
REMARK    1  A    between atoms: C_9  and  N_10 
REMARK       I    between atoms: N_10  and  C_11 
REMARK    2  A    between atoms: C_11  and  C_12 
REMARK    3  A    between atoms: C_14  and  C_15 
REMARK    4  A    between atoms: C_15  and  O_16 
REMARK    5  A    between atoms: O_16  and  C_17 
ROOT
HETATM    1  N   UNL     1      44.273 -14.600   7.454  1.00  0.00    -0.321 N 
HETATM    2  C   UNL     1      45.170 -13.548   7.309  1.00  0.00     0.279 C 
HETATM    3  O   UNL     1      45.975 -13.458   6.384  1.00  0.00    -0.265 OA
HETATM    4  H   UNL     1      43.551 -14.471   8.151  1.00  0.00     0.169 HD
ENDROOT
BRANCH   2   5
HETATM    5  C   UNL     1      45.026 -12.520   8.325  1.00  0.00     0.143 A 
HETATM    6  O   UNL     1      43.764 -12.071   8.602  1.00  0.00    -0.307 OA
HETATM    7  C   UNL     1      43.859 -11.145   9.598  1.00  0.00     0.078 A 
HETATM    8  C   UNL     1      45.180 -10.973   9.952  1.00  0.00     0.038 A 
HETATM    9  C   UNL     1      45.931 -11.860   9.141  1.00  0.00     0.045 A 
BRANCH   7  10
HETATM   10  C   UNL     1      42.581 -10.566  10.087  1.00  0.00     0.240 C 
BRANCH  10  11
HETATM   11  O   UNL     1      42.224 -11.282  11.266  1.00  0.00    -0.345 OA
BRANCH  11  12
HETATM   12  C   UNL     1      42.372 -10.615  12.453  1.00  0.00     0.069 A 
HETATM   13  C   UNL     1      43.431  -9.765  12.789  1.00  0.00     0.040 A 
HETATM   14  C   UNL     1      43.461  -9.148  14.043  1.00  0.00     0.045 A 
HETATM   15  C   UNL     1      42.435  -9.379  14.951  1.00  0.00     0.116 A 
HETATM   16  F   UNL     1      42.472  -8.788  16.152  1.00  0.00    -0.206 F 
HETATM   17  C   UNL     1      41.373 -10.214  14.629  1.00  0.00     0.045 A 
HETATM   18  C   UNL     1      41.343 -10.830  13.376  1.00  0.00     0.040 A 
ENDBRANCH  11  12
ENDBRANCH  10  11
ENDBRANCH   7  10
ENDBRANCH   2   5
BRANCH   1  19
HETATM   19  C   UNL     1      44.149 -15.727   6.616  1.00  0.00     0.035 A 
HETATM   20  C   UNL     1      43.427 -15.723   5.419  1.00  0.00     0.039 A 
HETATM   21  C   UNL     1      43.347 -16.893   4.678  1.00  0.00    -0.022 A 
HETATM   22  C   UNL     1      42.663 -17.101   3.371  1.00  0.00     0.274 C 
HETATM   23  C   UNL     1      43.977 -18.064   5.101  1.00  0.00    -0.025 A 
HETATM   24  N   UNL     1      42.713 -18.608   3.147  1.00  0.00    -0.067 N 
HETATM   25  C   UNL     1      42.919 -19.010   1.731  1.00  0.00     0.270 C 
HETATM   26  H   UNL     1      41.804 -18.966   3.462  1.00  0.00     0.280 HD
HETATM   27  C   UNL     1      43.748 -19.162   4.119  1.00  0.00     0.273 C 
HETATM   28  C   UNL     1      44.714 -18.086   6.271  1.00  0.00     0.012 A 
HETATM   29  C   UNL     1      44.802 -16.908   7.024  1.00  0.00     0.030 A 
ENDBRANCH   1  19
TORSDOF 5
ENDMDL
MODEL 2
REMARK VINA RESULT:      -8.7      6.710     10.205
REMARK  5 active torsions:
REMARK  status: ('A' for Active; 'I' for Inactive)
REMARK    1  A    between atoms: C_9  and  N_10 
REMARK       I    between atoms: N_10  and  C_11 
REMARK    2  A    between atoms: C_11  and  C_12 
REMARK    3  A    between atoms: C_14  and  C_15 
REMARK    4  A    between atoms: C_15  and  O_16 
REMARK    5  A    between atoms: O_16  and  C_17 
ROOT
HETATM    1  N   UNL     1      41.590 -15.731   3.399  1.00  0.00    -0.321 N 
HETATM    2  C   UNL     1      42.431 -14.986   4.219  1.00  0.00     0.279 C 
HETATM    3  O   UNL     1      42.629 -13.781   4.080  1.00  0.00    -0.265 OA
HETATM    4  H   UNL     1      41.376 -16.666   3.721  1.00  0.00     0.169 HD
ENDROOT
BRANCH   2   5
HETATM    5  C   UNL     1      43.011 -15.755   5.306  1.00  0.00     0.143 A 
HETATM    6  O   UNL     1      43.095 -17.111   5.152  1.00  0.00    -0.307 OA
HETATM    7  C   UNL     1      43.695 -17.622   6.264  1.00  0.00     0.078 A 
HETATM    8  C   UNL     1      43.979 -16.605   7.151  1.00  0.00     0.038 A 
HETATM    9  C   UNL     1      43.548 -15.404   6.534  1.00  0.00     0.045 A 
BRANCH   7  10
HETATM   10  C   UNL     1      43.930 -19.089   6.274  1.00  0.00     0.240 C 
BRANCH  10  11
HETATM   11  O   UNL     1      44.992 -19.347   5.360  1.00  0.00    -0.345 OA
BRANCH  11  12
HETATM   12  C   UNL     1      44.714 -20.201   4.327  1.00  0.00     0.069 A 
HETATM   13  C   UNL     1      44.833 -21.595   4.360  1.00  0.00     0.040 A 
HETATM   14  C   UNL     1      44.519 -22.351   3.227  1.00  0.00     0.045 A 
HETATM   15  C   UNL     1      44.086 -21.714   2.071  1.00  0.00     0.116 A 
HETATM   16  F   UNL     1      43.790 -22.444   0.988  1.00  0.00    -0.206 F 
HETATM   17  C   UNL     1      43.954 -20.332   2.025  1.00  0.00     0.045 A 
HETATM   18  C   UNL     1      44.268 -19.578   3.157  1.00  0.00     0.040 A 
ENDBRANCH  11  12
ENDBRANCH  10  11
ENDBRANCH   7  10
ENDBRANCH   2   5
BRANCH   1  19
HETATM   19  C   UNL     1      40.865 -15.264   2.284  1.00  0.00     0.035 A 
HETATM   20  C   UNL     1      41.387 -15.222   0.988  1.00  0.00     0.039 A 
HETATM   21  C   UNL     1      40.599 -14.723  -0.039  1.00  0.00    -0.022 A 
HETATM   22  C   UNL     1      40.942 -14.618  -1.485  1.00  0.00     0.274 C 
HETATM   23  C   UNL     1      39.300 -14.270   0.198  1.00  0.00    -0.025 A 
HETATM   24  N   UNL     1      39.805 -13.803  -2.091  1.00  0.00    -0.067 N 
HETATM   25  C   UNL     1      39.404 -14.231  -3.457  1.00  0.00     0.270 C 
HETATM   26  H   UNL     1      40.149 -12.837  -2.136  1.00  0.00     0.280 HD
HETATM   27  C   UNL     1      38.672 -13.803  -1.070  1.00  0.00     0.273 C 
HETATM   28  C   UNL     1      38.756 -14.321   1.469  1.00  0.00     0.012 A 
HETATM   29  C   UNL     1      39.544 -14.827   2.510  1.00  0.00     0.030 A 
ENDBRANCH   1  19
TORSDOF 5
ENDMDL
MODEL 3
REMARK VINA RESULT:      -8.6      2.555      3.833
REMARK  5 active torsions:
REMARK  status: ('A' for Active; 'I' for Inactive)
REMARK    1  A    between atoms: C_9  and  N_10 
REMARK       I    between atoms: N_10  and  C_11 
REMARK    2  A    between atoms: C_11  and  C_12 
REMARK    3  A    between atoms: C_14  and  C_15 
REMARK    4  A    between atoms: C_15  and  O_16 
REMARK    5  A    between atoms: O_16  and  C_17 
ROOT
HETATM    1  N   UNL     1      42.434 -15.181   4.449  1.00  0.00    -0.321 N 
HETATM    2  C   UNL     1      43.017 -13.957   4.135  1.00  0.00     0.279 C 
HETATM    3  O   UNL     1      44.052 -13.841   3.482  1.00  0.00    -0.265 OA
HETATM    4  H   UNL     1      41.500 -15.138   4.835  1.00  0.00     0.169 HD
ENDROOT
BRANCH   2   5
HETATM    5  C   UNL     1      42.249 -12.815   4.597  1.00  0.00     0.143 A 
HETATM    6  O   UNL     1      42.297 -12.512   5.930  1.00  0.00    -0.307 OA
HETATM    7  C   UNL     1      41.540 -11.397   6.133  1.00  0.00     0.078 A 
HETATM    8  C   UNL     1      40.980 -10.988   4.942  1.00  0.00     0.038 A 
HETATM    9  C   UNL     1      41.440 -11.893   3.952  1.00  0.00     0.045 A 
BRANCH   7  10
HETATM   10  C   UNL     1      41.502 -10.868   7.521  1.00  0.00     0.240 C 
BRANCH  10  11
HETATM   11  O   UNL     1      42.821 -10.986   8.048  1.00  0.00    -0.345 OA
BRANCH  11  12
HETATM   12  C   UNL     1      42.991 -10.614   9.355  1.00  0.00     0.069 A 
HETATM   13  C   UNL     1      42.080  -9.884  10.125  1.00  0.00     0.040 A 
HETATM   14  C   UNL     1      42.383  -9.566  11.453  1.00  0.00     0.045 A 
HETATM   15  C   UNL     1      43.589  -9.982  12.003  1.00  0.00     0.116 A 
HETATM   16  F   UNL     1      43.875  -9.672  13.275  1.00  0.00    -0.206 F 
HETATM   17  C   UNL     1      44.500 -10.715  11.254  1.00  0.00     0.045 A 
HETATM   18  C   UNL     1      44.196 -11.032   9.929  1.00  0.00     0.040 A 
ENDBRANCH  11  12
ENDBRANCH  10  11
ENDBRANCH   7  10
ENDBRANCH   2   5
BRANCH   1  19
HETATM   19  C   UNL     1      42.923 -16.460   4.116  1.00  0.00     0.035 A 
HETATM   20  C   UNL     1      43.515 -17.324   5.042  1.00  0.00     0.039 A 
HETATM   21  C   UNL     1      43.986 -18.555   4.608  1.00  0.00    -0.022 A 
HETATM   22  C   UNL     1      44.617 -19.630   5.424  1.00  0.00     0.274 C 
HETATM   23  C   UNL     1      43.874 -18.945   3.273  1.00  0.00    -0.025 A 
HETATM   24  N   UNL     1      45.127 -20.639   4.401  1.00  0.00    -0.067 N 
HETATM   25  C   UNL     1      45.002 -22.058   4.824  1.00  0.00     0.270 C 
HETATM   26  H   UNL     1      46.122 -20.421   4.268  1.00  0.00     0.280 HD
HETATM   27  C   UNL     1      44.441 -20.309   3.080  1.00  0.00     0.273 C 
HETATM   28  C   UNL     1      43.273 -18.115   2.343  1.00  0.00     0.012 A 
HETATM   29  C   UNL     1      42.792 -16.872   2.774  1.00  0.00     0.030 A 
ENDBRANCH   1  19
TORSDOF 5
ENDMDL
MODEL 4
REMARK VINA RESULT:      -8.4      7.383     10.581
REMARK  5 active torsions:
REMARK  status: ('A' for Active; 'I' for Inactive)
REMARK    1  A    between atoms: C_9  and  N_10 
REMARK       I    between atoms: N_10  and  C_11 
REMARK    2  A    between atoms: C_11  and  C_12 
REMARK    3  A    between atoms: C_14  and  C_15 
REMARK    4  A    between atoms: C_15  and  O_16 
REMARK    5  A    between atoms: O_16  and  C_17 
ROOT
HETATM    1  N   UNL     1      41.521 -15.227   1.906  1.00  0.00    -0.321 N 
HETATM    2  C   UNL     1      40.546 -15.016   2.875  1.00  0.00     0.279 C 
HETATM    3  O   UNL     1      39.475 -14.455   2.655  1.00  0.00    -0.265 OA
HETATM    4  H   UNL     1      42.275 -15.850   2.168  1.00  0.00     0.169 HD
ENDROOT
BRANCH   2   5
HETATM    5  C   UNL     1      40.884 -15.581   4.170  1.00  0.00     0.143 A 
HETATM    6  O   UNL     1      41.732 -16.653   4.195  1.00  0.00    -0.307 OA
HETATM    7  C   UNL     1      41.936 -16.995   5.499  1.00  0.00     0.078 A 
HETATM    8  C   UNL     1      41.204 -16.163   6.320  1.00  0.00     0.038 A 
HETATM    9  C   UNL     1      40.534 -15.249   5.469  1.00  0.00     0.045 A 
BRANCH   7  10
HETATM   10  C   UNL     1      42.878 -18.116   5.749  1.00  0.00     0.240 C 
BRANCH  10  11
HETATM   11  O   UNL     1      43.870 -18.063   4.727  1.00  0.00    -0.345 OA
BRANCH  11  12
HETATM   12  C   UNL     1      43.992 -19.175   3.938  1.00  0.00     0.069 A 
HETATM   13  C   UNL     1      44.620 -20.371   4.299  1.00  0.00     0.040 A 
HETATM   14  C   UNL     1      44.678 -21.432   3.389  1.00  0.00     0.045 A 
HETATM   15  C   UNL     1      44.109 -21.293   2.130  1.00  0.00     0.116 A 
HETATM   16  F   UNL     1      44.171 -22.312   1.262  1.00  0.00    -0.206 F 
HETATM   17  C   UNL     1      43.475 -20.114   1.760  1.00  0.00     0.045 A 
HETATM   18  C   UNL     1      43.416 -19.056   2.668  1.00  0.00     0.040 A 
ENDBRANCH  11  12
ENDBRANCH  10  11
ENDBRANCH   7  10
ENDBRANCH   2   5
BRANCH   1  19
HETATM   19  C   UNL     1      41.474 -14.824   0.556  1.00  0.00     0.035 A 
HETATM   20  C   UNL     1      41.726 -13.516   0.133  1.00  0.00     0.039 A 
HETATM   21  C   UNL     1      41.631 -13.217  -1.218  1.00  0.00    -0.022 A 
HETATM   22  C   UNL     1      41.886 -11.909  -1.883  1.00  0.00     0.274 C 
HETATM   23  C   UNL     1      41.295 -14.194  -2.156  1.00  0.00    -0.025 A 
HETATM   24  N   UNL     1      41.418 -12.110  -3.320  1.00  0.00    -0.067 N 
HETATM   25  C   UNL     1      42.252 -11.421  -4.339  1.00  0.00     0.270 C 
HETATM   26  H   UNL     1      40.466 -11.727  -3.358  1.00  0.00     0.280 HD
HETATM   27  C   UNL     1      41.278 -13.614  -3.529  1.00  0.00     0.273 C 
HETATM   28  C   UNL     1      41.062 -15.499  -1.763  1.00  0.00     0.012 A 
HETATM   29  C   UNL     1      41.159 -15.811  -0.400  1.00  0.00     0.030 A 
ENDBRANCH   1  19
TORSDOF 5
ENDMDL
MODEL 5
REMARK VINA RESULT:      -8.2      6.786     10.263
REMARK  5 active torsions:
REMARK  status: ('A' for Active; 'I' for Inactive)
REMARK    1  A    between atoms: C_9  and  N_10 
REMARK       I    between atoms: N_10  and  C_11 
REMARK    2  A    between atoms: C_11  and  C_12 
REMARK    3  A    between atoms: C_14  and  C_15 
REMARK    4  A    between atoms: C_15  and  O_16 
REMARK    5  A    between atoms: O_16  and  C_17 
ROOT
HETATM    1  N   UNL     1      42.701 -15.449   3.497  1.00  0.00    -0.321 N 
HETATM    2  C   UNL     1      41.977 -15.486   4.683  1.00  0.00     0.279 C 
HETATM    3  O   UNL     1      40.872 -14.966   4.826  1.00  0.00    -0.265 OA
HETATM    4  H   UNL     1      43.508 -16.058   3.454  1.00  0.00     0.169 HD
ENDROOT
BRANCH   2   5
HETATM    5  C   UNL     1      42.620 -16.258   5.732  1.00  0.00     0.143 A 
HETATM    6  O   UNL     1      42.781 -17.601   5.526  1.00  0.00    -0.307 OA
HETATM    7  C   UNL     1      43.430 -18.115   6.608  1.00  0.00     0.078 A 
HETATM    8  C   UNL     1      43.670 -17.116   7.528  1.00  0.00     0.038 A 
HETATM    9  C   UNL     1      43.157 -15.921   6.963  1.00  0.00     0.045 A 
BRANCH   7  10
HETATM   10  C   UNL     1      43.752 -19.565   6.560  1.00  0.00     0.240 C 
BRANCH  10  11
HETATM   11  O   UNL     1      44.867 -19.715   5.685  1.00  0.00    -0.345 OA
BRANCH  11  12
HETATM   12  C   UNL     1      44.665 -20.477   4.566  1.00  0.00     0.069 A 
HETATM   13  C   UNL     1      44.799 -21.867   4.484  1.00  0.00     0.040 A 
HETATM   14  C   UNL     1      44.567 -22.521   3.271  1.00  0.00     0.045 A 
HETATM   15  C   UNL     1      44.200 -21.788   2.150  1.00  0.00     0.116 A 
HETATM   16  F   UNL     1      43.982 -22.421   0.990  1.00  0.00    -0.206 F 
HETATM   17  C   UNL     1      44.055 -20.408   2.217  1.00  0.00     0.045 A 
HETATM   18  C   UNL     1      44.286 -19.755   3.429  1.00  0.00     0.040 A 
ENDBRANCH  11  12
ENDBRANCH  10  11
ENDBRANCH   7  10
ENDBRANCH   2   5
BRANCH   1  19
HETATM   19  C   UNL     1      42.330 -14.806   2.299  1.00  0.00     0.035 A 
HETATM   20  C   UNL     1      42.372 -13.420   2.123  1.00  0.00     0.039 A 
HETATM   21  C   UNL     1      41.963 -12.884   0.910  1.00  0.00    -0.022 A 
HETATM   22  C   UNL     1      41.955 -11.451   0.502  1.00  0.00     0.274 C 
HETATM   23  C   UNL     1      41.518 -13.699  -0.131  1.00  0.00    -0.025 A 
HETATM   24  N   UNL     1      41.208 -11.434  -0.826  1.00  0.00    -0.067 N 
HETATM   25  C   UNL     1      41.741 -10.462  -1.817  1.00  0.00     0.270 C 
HETATM   26  H   UNL     1      40.241 -11.175  -0.598  1.00  0.00     0.280 HD
HETATM   27  C   UNL     1      41.156 -12.876  -1.319  1.00  0.00     0.273 C 
HETATM   28  C   UNL     1      41.488 -15.075   0.013  1.00  0.00     0.012 A 
HETATM   29  C   UNL     1      41.902 -15.624   1.233  1.00  0.00     0.030 A 
ENDBRANCH   1  19
TORSDOF 5
ENDMDL
MODEL 6
REMARK VINA RESULT:      -8.2      8.232     11.175
REMARK  5 active torsions:
REMARK  status: ('A' for Active; 'I' for Inactive)
REMARK    1  A    between atoms: C_9  and  N_10 
REMARK       I    between atoms: N_10  and  C_11 
REMARK    2  A    between atoms: C_11  and  C_12 
REMARK    3  A    between atoms: C_14  and  C_15 
REMARK    4  A    between atoms: C_15  and  O_16 
REMARK    5  A    between atoms: O_16  and  C_17 
ROOT
HETATM    1  N   UNL     1      41.358 -16.335   2.596  1.00  0.00    -0.321 N 
HETATM    2  C   UNL     1      41.601 -15.023   2.987  1.00  0.00     0.279 C 
HETATM    3  O   UNL     1      42.648 -14.649   3.511  1.00  0.00    -0.265 OA
HETATM    4  H   UNL     1      40.538 -16.479   2.022  1.00  0.00     0.169 HD
ENDROOT
BRANCH   2   5
HETATM    5  C   UNL     1      40.520 -14.111   2.658  1.00  0.00     0.143 A 
HETATM    6  O   UNL     1      39.918 -14.251   1.438  1.00  0.00    -0.307 OA
HETATM    7  C   UNL     1      38.920 -13.326   1.355  1.00  0.00     0.078 A 
HETATM    8  C   UNL     1      38.888 -12.568   2.506  1.00  0.00     0.038 A 
HETATM    9  C   UNL     1      39.910 -13.076   3.348  1.00  0.00     0.045 A 
BRANCH   7  10
HETATM   10  C   UNL     1      38.101 -13.346   0.116  1.00  0.00     0.240 C 
BRANCH  10  11
HETATM   11  O   UNL     1      38.972 -13.021  -0.964  1.00  0.00    -0.345 OA
BRANCH  11  12
HETATM   12  C   UNL     1      39.061 -13.941  -1.974  1.00  0.00     0.069 A 
HETATM   13  C   UNL     1      40.218 -14.626  -2.359  1.00  0.00     0.040 A 
HETATM   14  C   UNL     1      40.170 -15.540  -3.416  1.00  0.00     0.045 A 
HETATM   15  C   UNL     1      38.971 -15.766  -4.079  1.00  0.00     0.116 A 
HETATM   16  F   UNL     1      38.933 -16.640  -5.093  1.00  0.00    -0.206 F 
HETATM   17  C   UNL     1      37.812 -15.099  -3.704  1.00  0.00     0.045 A 
HETATM   18  C   UNL     1      37.860 -14.187  -2.648  1.00  0.00     0.040 A 
ENDBRANCH  11  12
ENDBRANCH  10  11
ENDBRANCH   7  10
ENDBRANCH   2   5
BRANCH   1  19
HETATM   19  C   UNL     1      42.222 -17.438   2.753  1.00  0.00     0.035 A 
HETATM   20  C   UNL     1      42.541 -17.996   3.994  1.00  0.00     0.039 A 
HETATM   21  C   UNL     1      43.421 -19.068   4.043  1.00  0.00    -0.022 A 
HETATM   22  C   UNL     1      43.870 -19.826   5.244  1.00  0.00     0.274 C 
HETATM   23  C   UNL     1      43.984 -19.598   2.881  1.00  0.00    -0.025 A 
HETATM   24  N   UNL     1      44.986 -20.731   4.732  1.00  0.00    -0.067 N 
HETATM   25  C   UNL     1      45.021 -22.077   5.361  1.00  0.00     0.270 C 
HETATM   26  H   UNL     1      45.862 -20.242   4.950  1.00  0.00     0.280 HD
HETATM   27  C   UNL     1      44.876 -20.746   3.211  1.00  0.00     0.273 C 
HETATM   28  C   UNL     1      43.666 -19.075   1.640  1.00  0.00     0.012 A 
HETATM   29  C   UNL     1      42.776 -17.995   1.583  1.00  0.00     0.030 A 
ENDBRANCH   1  19
TORSDOF 5
ENDMDL
MODEL 7
REMARK VINA RESULT:      -8.2      8.528     11.064
REMARK  5 active torsions:
REMARK  status: ('A' for Active; 'I' for Inactive)
REMARK    1  A    between atoms: C_9  and  N_10 
REMARK       I    between atoms: N_10  and  C_11 
REMARK    2  A    between atoms: C_11  and  C_12 
REMARK    3  A    between atoms: C_14  and  C_15 
REMARK    4  A    between atoms: C_15  and  O_16 
REMARK    5  A    between atoms: O_16  and  C_17 
ROOT
HETATM    1  N   UNL     1      42.216 -16.575   1.462  1.00  0.00    -0.321 N 
HETATM    2  C   UNL     1      40.862 -16.290   1.322  1.00  0.00     0.279 C 
HETATM    3  O   UNL     1      39.974 -16.870   1.942  1.00  0.00    -0.265 OA
HETATM    4  H   UNL     1      42.853 -15.916   1.033  1.00  0.00     0.169 HD
ENDROOT
BRANCH   2   5
HETATM    5  C   UNL     1      40.594 -15.188   0.414  1.00  0.00     0.143 A 
HETATM    6  O   UNL     1      41.232 -15.190  -0.795  1.00  0.00    -0.307 OA
HETATM    7  C   UNL     1      40.811 -14.096  -1.492  1.00  0.00     0.078 A 
HETATM    8  C   UNL     1      39.921 -13.371  -0.730  1.00  0.00     0.038 A 
HETATM    9  C   UNL     1      39.773 -14.075   0.492  1.00  0.00     0.045 A 
BRANCH   7  10
HETATM   10  C   UNL     1      41.352 -13.939  -2.866  1.00  0.00     0.240 C 
BRANCH  10  11
HETATM   11  O   UNL     1      42.654 -13.374  -2.739  1.00  0.00    -0.345 OA
BRANCH  11  12
HETATM   12  C   UNL     1      42.722 -12.008  -2.668  1.00  0.00     0.069 A 
HETATM   13  C   UNL     1      43.143 -11.265  -1.560  1.00  0.00     0.040 A 
HETATM   14  C   UNL     1      43.159  -9.868  -1.621  1.00  0.00     0.045 A 
HETATM   15  C   UNL     1      42.759  -9.223  -2.784  1.00  0.00     0.116 A 
HETATM   16  F   UNL     1      42.774  -7.885  -2.834  1.00  0.00    -0.206 F 
HETATM   17  C   UNL     1      42.346  -9.948  -3.894  1.00  0.00     0.045 A 
HETATM   18  C   UNL     1      42.331 -11.342  -3.834  1.00  0.00     0.040 A 
ENDBRANCH  11  12
ENDBRANCH  10  11
ENDBRANCH   7  10
ENDBRANCH   2   5
BRANCH   1  19
HETATM   19  C   UNL     1      42.791 -17.565   2.285  1.00  0.00     0.035 A 
HETATM   20  C   UNL     1      42.602 -17.621   3.669  1.00  0.00     0.039 A 
HETATM   21  C   UNL     1      43.232 -18.623   4.393  1.00  0.00    -0.022 A 
HETATM   22  C   UNL     1      43.144 -18.884   5.857  1.00  0.00     0.274 C 
HETATM   23  C   UNL     1      44.040 -19.573   3.767  1.00  0.00    -0.025 A 
HETATM   24  N   UNL     1      44.199 -19.952   6.121  1.00  0.00    -0.067 N 
HETATM   25  C   UNL     1      43.810 -20.960   7.142  1.00  0.00     0.270 C 
HETATM   26  H   UNL     1      45.028 -19.447   6.456  1.00  0.00     0.280 HD
HETATM   27  C   UNL     1      44.578 -20.539   4.766  1.00  0.00     0.273 C 
HETATM   28  C   UNL     1      44.224 -19.549   2.396  1.00  0.00     0.012 A 
HETATM   29  C   UNL     1      43.590 -18.542   1.658  1.00  0.00     0.030 A 
ENDBRANCH   1  19
TORSDOF 5
ENDMDL
MODEL 8
REMARK VINA RESULT:      -8.1      2.292      3.014
REMARK  5 active torsions:
REMARK  status: ('A' for Active; 'I' for Inactive)
REMARK    1  A    between atoms: C_9  and  N_10 
REMARK       I    between atoms: N_10  and  C_11 
REMARK    2  A    between atoms: C_11  and  C_12 
REMARK    3  A    between atoms: C_14  and  C_15 
REMARK    4  A    between atoms: C_15  and  O_16 
REMARK    5  A    between atoms: O_16  and  C_17 
ROOT
HETATM    1  N   UNL     1      42.206 -14.636   6.234  1.00  0.00    -0.321 N 
HETATM    2  C   UNL     1      42.326 -13.415   5.578  1.00  0.00     0.279 C 
HETATM    3  O   UNL     1      43.061 -13.228   4.612  1.00  0.00    -0.265 OA
HETATM    4  H   UNL     1      41.445 -14.708   6.896  1.00  0.00     0.169 HD
ENDROOT
BRANCH   2   5
HETATM    5  C   UNL     1      41.444 -12.387   6.103  1.00  0.00     0.143 A 
HETATM    6  O   UNL     1      41.975 -11.479   6.976  1.00  0.00    -0.307 OA
HETATM    7  C   UNL     1      40.992 -10.596   7.311  1.00  0.00     0.078 A 
HETATM    8  C   UNL     1      39.817 -10.943   6.678  1.00  0.00     0.038 A 
HETATM    9  C   UNL     1      40.107 -12.089   5.896  1.00  0.00     0.045 A 
BRANCH   7  10
HETATM   10  C   UNL     1      41.380  -9.486   8.219  1.00  0.00     0.240 C 
BRANCH  10  11
HETATM   11  O   UNL     1      42.577  -9.889   8.880  1.00  0.00    -0.345 OA
BRANCH  11  12
HETATM   12  C   UNL     1      42.497 -10.060  10.236  1.00  0.00     0.069 A 
HETATM   13  C   UNL     1      41.325 -10.020  11.000  1.00  0.00     0.040 A 
HETATM   14  C   UNL     1      41.387 -10.207  12.384  1.00  0.00     0.045 A 
HETATM   15  C   UNL     1      42.613 -10.434  12.996  1.00  0.00     0.116 A 
HETATM   16  F   UNL     1      42.665 -10.608  14.323  1.00  0.00    -0.206 F 
HETATM   17  C   UNL     1      43.783 -10.484  12.251  1.00  0.00     0.045 A 
HETATM   18  C   UNL     1      43.722 -10.298  10.868  1.00  0.00     0.040 A 
ENDBRANCH  11  12
ENDBRANCH  10  11
ENDBRANCH   7  10
ENDBRANCH   2   5
BRANCH   1  19
HETATM   19  C   UNL     1      42.905 -15.825   5.941  1.00  0.00     0.035 A 
HETATM   20  C   UNL     1      42.613 -16.640   4.843  1.00  0.00     0.039 A 
HETATM   21  C   UNL     1      43.345 -17.803   4.656  1.00  0.00    -0.022 A 
HETATM   22  C   UNL     1      43.223 -18.790   3.546  1.00  0.00     0.274 C 
HETATM   23  C   UNL     1      44.365 -18.168   5.536  1.00  0.00    -0.025 A 
HETATM   24  N   UNL     1      44.108 -19.957   3.971  1.00  0.00    -0.067 N 
HETATM   25  C   UNL     1      44.840 -20.609   2.854  1.00  0.00     0.270 C 
HETATM   26  H   UNL     1      43.475 -20.645   4.396  1.00  0.00     0.280 HD
HETATM   27  C   UNL     1      44.998 -19.445   5.098  1.00  0.00     0.273 C 
HETATM   28  C   UNL     1      44.685 -17.367   6.616  1.00  0.00     0.012 A 
HETATM   29  C   UNL     1      43.952 -16.189   6.811  1.00  0.00     0.030 A 
ENDBRANCH   1  19
TORSDOF 5
ENDMDL
MODEL 9
REMARK VINA RESULT:      -8.0      8.760     11.747
REMARK  5 active torsions:
REMARK  status: ('A' for Active; 'I' for Inactive)
REMARK    1  A    between atoms: C_9  and  N_10 
REMARK       I    between atoms: N_10  and  C_11 
REMARK    2  A    between atoms: C_11  and  C_12 
REMARK    3  A    between atoms: C_14  and  C_15 
REMARK    4  A    between atoms: C_15  and  O_16 
REMARK    5  A    between atoms: O_16  and  C_17 
ROOT
HETATM    1  N   UNL     1      42.693 -16.201   1.806  1.00  0.00    -0.321 N 
HETATM    2  C   UNL     1      41.384 -15.922   1.427  1.00  0.00     0.279 C 
HETATM    3  O   UNL     1      40.423 -16.631   1.718  1.00  0.00    -0.265 OA
HETATM    4  H   UNL     1      43.363 -15.458   1.658  1.00  0.00     0.169 HD
ENDROOT
BRANCH   2   5
HETATM    5  C   UNL     1      41.245 -14.670   0.705  1.00  0.00     0.143 A 
HETATM    6  O   UNL     1      41.751 -14.607  -0.564  1.00  0.00    -0.307 OA
HETATM    7  C   UNL     1      41.481 -13.367  -1.061  1.00  0.00     0.078 A 
HETATM    8  C   UNL     1      40.824 -12.615  -0.110  1.00  0.00     0.038 A 
HETATM    9  C   UNL     1      40.665 -13.453   1.022  1.00  0.00     0.045 A 
BRANCH   7  10
HETATM   10  C   UNL     1      41.906 -13.108  -2.460  1.00  0.00     0.240 C 
BRANCH  10  11
HETATM   11  O   UNL     1      41.618 -14.287  -3.208  1.00  0.00    -0.345 OA
BRANCH  11  12
HETATM   12  C   UNL     1      40.296 -14.555  -3.438  1.00  0.00     0.069 A 
HETATM   13  C   UNL     1      39.744 -15.819  -3.673  1.00  0.00     0.040 A 
HETATM   14  C   UNL     1      38.371 -15.951  -3.900  1.00  0.00     0.045 A 
HETATM   15  C   UNL     1      37.558 -14.826  -3.888  1.00  0.00     0.116 A 
HETATM   16  F   UNL     1      36.244 -14.959  -4.110  1.00  0.00    -0.206 F 
HETATM   17  C   UNL     1      38.089 -13.565  -3.648  1.00  0.00     0.045 A 
HETATM   18  C   UNL     1      39.461 -13.433  -3.421  1.00  0.00     0.040 A 
ENDBRANCH  11  12
ENDBRANCH  10  11
ENDBRANCH   7  10
ENDBRANCH   2   5
BRANCH   1  19
HETATM   19  C   UNL     1      43.142 -17.321   2.535  1.00  0.00     0.035 A 
HETATM   20  C   UNL     1      42.958 -17.468   3.913  1.00  0.00     0.039 A 
HETATM   21  C   UNL     1      43.459 -18.598   4.542  1.00  0.00    -0.022 A 
HETATM   22  C   UNL     1      43.349 -18.967   5.981  1.00  0.00     0.274 C 
HETATM   23  C   UNL     1      44.134 -19.588   3.826  1.00  0.00    -0.025 A 
HETATM   24  N   UNL     1      44.261 -20.179   6.138  1.00  0.00    -0.067 N 
HETATM   25  C   UNL     1      43.753 -21.209   7.081  1.00  0.00     0.270 C 
HETATM   26  H   UNL     1      45.150 -19.812   6.498  1.00  0.00     0.280 HD
HETATM   27  C   UNL     1      44.551 -20.694   4.733  1.00  0.00     0.273 C 
HETATM   28  C   UNL     1      44.310 -19.474   2.458  1.00  0.00     0.012 A 
HETATM   29  C   UNL     1      43.804 -18.336   1.816  1.00  0.00     0.030 A 
ENDBRANCH   1  19
TORSDOF 5
ENDMDL
MODEL 10
REMARK VINA RESULT:      -8.0      6.705     10.300
REMARK  5 active torsions:
REMARK  status: ('A' for Active; 'I' for Inactive)
REMARK    1  A    between atoms: C_9  and  N_10 
REMARK       I    between atoms: N_10  and  C_11 
REMARK    2  A    between atoms: C_11  and  C_12 
REMARK    3  A    between atoms: C_14  and  C_15 
REMARK    4  A    between atoms: C_15  and  O_16 
REMARK    5  A    between atoms: O_16  and  C_17 
ROOT
HETATM    1  N   UNL     1      41.774 -14.956   3.160  1.00  0.00    -0.321 N 
HETATM    2  C   UNL     1      42.572 -14.295   4.088  1.00  0.00     0.279 C 
HETATM    3  O   UNL     1      42.722 -13.075   4.113  1.00  0.00    -0.265 OA
HETATM    4  H   UNL     1      41.593 -15.933   3.351  1.00  0.00     0.169 HD
ENDROOT
BRANCH   2   5
HETATM    5  C   UNL     1      43.166 -15.179   5.075  1.00  0.00     0.143 A 
HETATM    6  O   UNL     1      42.909 -16.518   4.968  1.00  0.00    -0.307 OA
HETATM    7  C   UNL     1      43.586 -17.155   5.964  1.00  0.00     0.078 A 
HETATM    8  C   UNL     1      44.263 -16.232   6.734  1.00  0.00     0.038 A 
HETATM    9  C   UNL     1      44.000 -14.963   6.160  1.00  0.00     0.045 A 
BRANCH   7  10
HETATM   10  C   UNL     1      43.481 -18.636   5.993  1.00  0.00     0.240 C 
BRANCH  10  11
HETATM   11  O   UNL     1      44.670 -19.150   5.398  1.00  0.00    -0.345 OA
BRANCH  11  12
HETATM   12  C   UNL     1      44.503 -20.023   4.357  1.00  0.00     0.069 A 
HETATM   13  C   UNL     1      44.848 -21.378   4.360  1.00  0.00     0.040 A 
HETATM   14  C   UNL     1      44.627 -22.158   3.220  1.00  0.00     0.045 A 
HETATM   15  C   UNL     1      44.061 -21.583   2.090  1.00  0.00     0.116 A 
HETATM   16  F   UNL     1      43.855 -22.335   1.000  1.00  0.00    -0.206 F 
HETATM   17  C   UNL     1      43.706 -20.241   2.075  1.00  0.00     0.045 A 
HETATM   18  C   UNL     1      43.926 -19.463   3.212  1.00  0.00     0.040 A 
ENDBRANCH  11  12
ENDBRANCH  10  11
ENDBRANCH   7  10
ENDBRANCH   2   5
BRANCH   1  19
HETATM   19  C   UNL     1      41.047 -14.374   2.102  1.00  0.00     0.035 A 
HETATM   20  C   UNL     1      39.729 -13.924   2.227  1.00  0.00     0.039 A 
HETATM   21  C   UNL     1      39.094 -13.386   1.117  1.00  0.00    -0.022 A 
HETATM   22  C   UNL     1      37.716 -12.825   1.037  1.00  0.00     0.274 C 
HETATM   23  C   UNL     1      39.746 -13.281  -0.112  1.00  0.00    -0.025 A 
HETATM   24  N   UNL     1      37.482 -12.592  -0.451  1.00  0.00    -0.067 N 
HETATM   25  C   UNL     1      36.698 -11.369  -0.764  1.00  0.00     0.270 C 
HETATM   26  H   UNL     1      36.961 -13.412  -0.782  1.00  0.00     0.280 HD
HETATM   27  C   UNL     1      38.849 -12.657  -1.125  1.00  0.00     0.273 C 
HETATM   28  C   UNL     1      41.057 -13.699  -0.254  1.00  0.00     0.012 A 
HETATM   29  C   UNL     1      41.706 -14.241   0.863  1.00  0.00     0.030 A 
ENDBRANCH   1  19
TORSDOF 5
ENDMDL
