MODEL 1
REMARK VINA RESULT:      -8.6      0.000      0.000
REMARK  7 active torsions:
REMARK  status: ('A' for Active; 'I' for Inactive)
REMARK    1  A    between atoms: C_2  and  N_3 
REMARK    2  A    between atoms: C_2  and  C_19 
REMARK       I    between atoms: N_3  and  C_4 
REMARK       I    between atoms: C_4  and  N_5 
REMARK    3  A    between atoms: N_5  and  C_6 
REMARK    4  A    between atoms: N_8  and  C_9 
REMARK    5  A    between atoms: C_9  and  C_10 
REMARK    6  A    between atoms: C_19  and  C_20 
REMARK    7  A    between atoms: C_23  and  O_24 
ROOT
HETATM    1  N   UNL     1      40.883 -14.833   1.506  1.00  0.00    -0.338 N 
HETATM    2  C   UNL     1      39.728 -15.358   1.991  1.00  0.00     0.322 C 
HETATM    3  N   UNL     1      39.846 -16.397   2.864  1.00  0.00    -0.292 N 
HETATM    4  O   UNL     1      38.611 -14.947   1.683  1.00  0.00    -0.247 OA
HETATM    5  H   UNL     1      41.732 -15.286   1.839  1.00  0.00     0.164 HD
HETATM    6  H   UNL     1      38.961 -16.763   3.180  1.00  0.00     0.172 HD
ENDROOT
BRANCH   1   7
HETATM    7  C   UNL     1      40.953 -13.861   0.427  1.00  0.00     0.086 C 
HETATM    8  C   UNL     1      41.919 -12.744   0.819  1.00  0.00     0.032 C 
BRANCH   7   9
HETATM    9  C   UNL     1      41.408 -14.529  -0.887  1.00  0.00     0.063 C 
BRANCH   9  10
HETATM   10  C   UNL     1      40.292 -14.711  -1.891  1.00  0.00    -0.056 A 
HETATM   11  C   UNL     1      40.462 -15.561  -2.994  1.00  0.00     0.010 A 
HETATM   12  C   UNL     1      39.438 -15.721  -3.931  1.00  0.00     0.037 A 
HETATM   13  C   UNL     1      38.244 -15.026  -3.766  1.00  0.00     0.065 A 
HETATM   14  C   UNL     1      38.060 -14.174  -2.684  1.00  0.00     0.037 A 
HETATM   15  C   UNL     1      39.084 -14.014  -1.750  1.00  0.00     0.010 A 
BRANCH  13  16
HETATM   16  O   UNL     1      37.221 -15.151  -4.658  1.00  0.00    -0.361 OA
HETATM   17  H   UNL     1      36.858 -14.267  -4.831  1.00  0.00     0.217 HD
ENDBRANCH  13  16
ENDBRANCH   9  10
ENDBRANCH   7   9
ENDBRANCH   1   7
BRANCH   3  18
HETATM   18  C   UNL     1      40.989 -17.025   3.307  1.00  0.00     0.153 A 
HETATM   19  N   UNL     1      42.009 -17.398   2.523  1.00  0.00    -0.154 NA
HETATM   20  N   UNL     1      42.888 -17.975   3.370  1.00  0.00    -0.275 N 
HETATM   21  C   UNL     1      42.467 -17.966   4.669  1.00  0.00     0.116 A 
HETATM   22  C   UNL     1      41.234 -17.358   4.659  1.00  0.00     0.071 A 
BRANCH  20  23
HETATM   23  C   UNL     1      44.168 -18.467   2.876  1.00  0.00     0.189 C 
BRANCH  23  24
HETATM   24  C   UNL     1      44.364 -19.928   3.189  1.00  0.00    -0.038 A 
HETATM   25  C   UNL     1      44.106 -20.904   2.212  1.00  0.00     0.009 A 
HETATM   26  C   UNL     1      44.282 -22.258   2.500  1.00  0.00     0.001 A 
HETATM   27  C   UNL     1      44.721 -22.652   3.762  1.00  0.00     0.000 A 
HETATM   28  C   UNL     1      44.982 -21.693   4.739  1.00  0.00     0.001 A 
HETATM   29  C   UNL     1      44.803 -20.338   4.456  1.00  0.00     0.009 A 
ENDBRANCH  23  24
ENDBRANCH  20  23
ENDBRANCH   3  18
TORSDOF 7
ENDMDL
MODEL 2
REMARK VINA RESULT:      -8.5      3.330      6.521
REMARK  7 active torsions:
REMARK  status: ('A' for Active; 'I' for Inactive)
REMARK    1  A    between atoms: C_2  and  N_3 
REMARK    2  A    between atoms: C_2  and  C_19 
REMARK       I    between atoms: N_3  and  C_4 
REMARK       I    between atoms: C_4  and  N_5 
REMARK    3  A    between atoms: N_5  and  C_6 
REMARK    4  A    between atoms: N_8  and  C_9 
REMARK    5  A    between atoms: C_9  and  C_10 
REMARK    6  A    between atoms: C_19  and  C_20 
REMARK    7  A    between atoms: C_23  and  O_24 
ROOT
HETATM    1  N   UNL     1      44.221 -19.139   3.857  1.00  0.00    -0.338 N 
HETATM    2  C   UNL     1      44.708 -19.997   4.790  1.00  0.00     0.322 C 
HETATM    3  N   UNL     1      44.675 -19.579   6.087  1.00  0.00    -0.292 N 
HETATM    4  O   UNL     1      45.168 -21.106   4.522  1.00  0.00    -0.247 OA
HETATM    5  H   UNL     1      43.888 -18.250   4.227  1.00  0.00     0.164 HD
HETATM    6  H   UNL     1      45.065 -20.243   6.737  1.00  0.00     0.172 HD
ENDROOT
BRANCH   1   7
HETATM    7  C   UNL     1      44.352 -19.327   2.422  1.00  0.00     0.086 C 
HETATM    8  C   UNL     1      43.307 -20.336   1.951  1.00  0.00     0.032 C 
BRANCH   7   9
HETATM    9  C   UNL     1      44.183 -17.989   1.673  1.00  0.00     0.063 C 
BRANCH   9  10
HETATM   10  C   UNL     1      42.788 -17.412   1.773  1.00  0.00    -0.056 A 
HETATM   11  C   UNL     1      42.112 -17.397   3.003  1.00  0.00     0.010 A 
HETATM   12  C   UNL     1      40.819 -16.877   3.095  1.00  0.00     0.037 A 
HETATM   13  C   UNL     1      40.199 -16.376   1.956  1.00  0.00     0.065 A 
HETATM   14  C   UNL     1      40.849 -16.389   0.728  1.00  0.00     0.037 A 
HETATM   15  C   UNL     1      42.140 -16.909   0.636  1.00  0.00     0.010 A 
BRANCH  13  16
HETATM   16  O   UNL     1      38.937 -15.863   2.001  1.00  0.00    -0.361 OA
HETATM   17  H   UNL     1      38.502 -16.195   2.804  1.00  0.00     0.217 HD
ENDBRANCH  13  16
ENDBRANCH   9  10
ENDBRANCH   7   9
ENDBRANCH   1   7
BRANCH   3  18
HETATM   18  C   UNL     1      44.241 -18.373   6.592  1.00  0.00     0.153 A 
HETATM   19  N   UNL     1      44.651 -17.173   6.163  1.00  0.00    -0.154 NA
HETATM   20  N   UNL     1      43.982 -16.294   6.940  1.00  0.00    -0.275 N 
HETATM   21  C   UNL     1      43.145 -16.897   7.835  1.00  0.00     0.116 A 
HETATM   22  C   UNL     1      43.294 -18.248   7.635  1.00  0.00     0.071 A 
BRANCH  20  23
HETATM   23  C   UNL     1      44.138 -14.861   6.727  1.00  0.00     0.189 C 
BRANCH  23  24
HETATM   24  C   UNL     1      43.317 -14.376   5.559  1.00  0.00    -0.038 A 
HETATM   25  C   UNL     1      43.912 -14.193   4.300  1.00  0.00     0.009 A 
HETATM   26  C   UNL     1      43.157 -13.740   3.218  1.00  0.00     0.001 A 
HETATM   27  C   UNL     1      41.800 -13.470   3.379  1.00  0.00     0.000 A 
HETATM   28  C   UNL     1      41.197 -13.649   4.623  1.00  0.00     0.001 A 
HETATM   29  C   UNL     1      41.950 -14.098   5.708  1.00  0.00     0.009 A 
ENDBRANCH  23  24
ENDBRANCH  20  23
ENDBRANCH   3  18
TORSDOF 7
ENDMDL
MODEL 3
REMARK VINA RESULT:      -8.3      2.992      7.174
REMARK  7 active torsions:
REMARK  status: ('A' for Active; 'I' for Inactive)
REMARK    1  A    between atoms: C_2  and  N_3 
REMARK    2  A    between atoms: C_2  and  C_19 
REMARK       I    between atoms: N_3  and  C_4 
REMARK       I    between atoms: C_4  and  N_5 
REMARK    3  A    between atoms: N_5  and  C_6 
REMARK    4  A    between atoms: N_8  and  C_9 
REMARK    5  A    between atoms: C_9  and  C_10 
REMARK    6  A    between atoms: C_19  and  C_20 
REMARK    7  A    between atoms: C_23  and  O_24 
ROOT
HETATM    1  N   UNL     1      42.011 -16.389   1.598  1.00  0.00    -0.338 N 
HETATM    2  C   UNL     1      41.241 -16.076   0.524  1.00  0.00     0.322 C 
HETATM    3  N   UNL     1      40.315 -15.092   0.698  1.00  0.00    -0.292 N 
HETATM    4  O   UNL     1      41.340 -16.628  -0.571  1.00  0.00    -0.247 OA
HETATM    5  H   UNL     1      41.804 -15.858   2.442  1.00  0.00     0.164 HD
HETATM    6  H   UNL     1      39.757 -14.910  -0.122  1.00  0.00     0.172 HD
ENDROOT
BRANCH   1   7
HETATM    7  C   UNL     1      42.906 -17.533   1.660  1.00  0.00     0.086 C 
HETATM    8  C   UNL     1      44.311 -17.092   1.250  1.00  0.00     0.032 C 
BRANCH   7   9
HETATM    9  C   UNL     1      42.926 -18.141   3.077  1.00  0.00     0.063 C 
BRANCH   9  10
HETATM   10  C   UNL     1      43.510 -19.535   3.129  1.00  0.00    -0.056 A 
HETATM   11  C   UNL     1      43.344 -20.415   2.049  1.00  0.00     0.010 A 
HETATM   12  C   UNL     1      43.870 -21.708   2.100  1.00  0.00     0.037 A 
HETATM   13  C   UNL     1      44.559 -22.123   3.235  1.00  0.00     0.065 A 
HETATM   14  C   UNL     1      44.728 -21.268   4.317  1.00  0.00     0.037 A 
HETATM   15  C   UNL     1      44.200 -19.978   4.266  1.00  0.00     0.010 A 
BRANCH  13  16
HETATM   16  O   UNL     1      45.086 -23.377   3.327  1.00  0.00    -0.361 OA
HETATM   17  H   UNL     1      45.205 -23.589   4.267  1.00  0.00     0.217 HD
ENDBRANCH  13  16
ENDBRANCH   9  10
ENDBRANCH   7   9
ENDBRANCH   1   7
BRANCH   3  18
HETATM   18  C   UNL     1      40.019 -14.380   1.839  1.00  0.00     0.153 A 
HETATM   19  N   UNL     1      40.146 -14.849   3.087  1.00  0.00    -0.154 NA
HETATM   20  N   UNL     1      39.738 -13.828   3.872  1.00  0.00    -0.275 N 
HETATM   21  C   UNL     1      39.374 -12.718   3.163  1.00  0.00     0.116 A 
HETATM   22  C   UNL     1      39.542 -13.048   1.839  1.00  0.00     0.071 A 
BRANCH  20  23
HETATM   23  C   UNL     1      39.784 -13.954   5.323  1.00  0.00     0.189 C 
BRANCH  23  24
HETATM   24  C   UNL     1      40.900 -14.863   5.769  1.00  0.00    -0.038 A 
HETATM   25  C   UNL     1      42.230 -14.412   5.760  1.00  0.00     0.009 A 
HETATM   26  C   UNL     1      43.266 -15.253   6.168  1.00  0.00     0.001 A 
HETATM   27  C   UNL     1      42.986 -16.549   6.594  1.00  0.00     0.000 A 
HETATM   28  C   UNL     1      41.670 -17.008   6.609  1.00  0.00     0.001 A 
HETATM   29  C   UNL     1      40.632 -16.172   6.197  1.00  0.00     0.009 A 
ENDBRANCH  23  24
ENDBRANCH  20  23
ENDBRANCH   3  18
TORSDOF 7
ENDMDL
MODEL 4
REMARK VINA RESULT:      -8.3      7.753     10.791
REMARK  7 active torsions:
REMARK  status: ('A' for Active; 'I' for Inactive)
REMARK    1  A    between atoms: C_2  and  N_3 
REMARK    2  A    between atoms: C_2  and  C_19 
REMARK       I    between atoms: N_3  and  C_4 
REMARK       I    between atoms: C_4  and  N_5 
REMARK    3  A    between atoms: N_5  and  C_6 
REMARK    4  A    between atoms: N_8  and  C_9 
REMARK    5  A    between atoms: C_9  and  C_10 
REMARK    6  A    between atoms: C_19  and  C_20 
REMARK    7  A    between atoms: C_23  and  O_24 
ROOT
HETATM    1  N   UNL     1      43.957 -12.206   8.628  1.00  0.00    -0.338 N 
HETATM    2  C   UNL     1      45.210 -12.585   8.266  1.00  0.00     0.322 C 
HETATM    3  N   UNL     1      45.307 -13.632   7.398  1.00  0.00    -0.292 N 
HETATM    4  O   UNL     1      46.233 -12.041   8.677  1.00  0.00    -0.247 OA
HETATM    5  H   UNL     1      43.207 -12.761   8.219  1.00  0.00     0.164 HD
HETATM    6  H   UNL     1      46.257 -13.886   7.175  1.00  0.00     0.172 HD
ENDROOT
BRANCH   1   7
HETATM    7  C   UNL     1      43.662 -11.250   9.683  1.00  0.00     0.086 C 
HETATM    8  C   UNL     1      42.301 -10.611   9.415  1.00  0.00     0.032 C 
BRANCH   7   9
HETATM    9  C   UNL     1      43.671 -11.935  11.065  1.00  0.00     0.063 C 
BRANCH   9  10
HETATM   10  C   UNL     1      43.091 -11.079  12.169  1.00  0.00    -0.056 A 
HETATM   11  C   UNL     1      43.800  -9.971  12.655  1.00  0.00     0.010 A 
HETATM   12  C   UNL     1      43.273  -9.187  13.684  1.00  0.00     0.037 A 
HETATM   13  C   UNL     1      42.036  -9.514  14.229  1.00  0.00     0.065 A 
HETATM   14  C   UNL     1      41.322 -10.611  13.765  1.00  0.00     0.037 A 
HETATM   15  C   UNL     1      41.850 -11.395  12.739  1.00  0.00     0.010 A 
BRANCH  13  16
HETATM   16  O   UNL     1      41.487  -8.777  15.236  1.00  0.00    -0.361 OA
HETATM   17  H   UNL     1      41.473  -7.846  14.960  1.00  0.00     0.217 HD
ENDBRANCH  13  16
ENDBRANCH   9  10
ENDBRANCH   7   9
ENDBRANCH   1   7
BRANCH   3  18
HETATM   18  C   UNL     1      44.299 -14.396   6.853  1.00  0.00     0.153 A 
HETATM   19  N   UNL     1      44.115 -15.701   7.092  1.00  0.00    -0.154 NA
HETATM   20  N   UNL     1      43.035 -16.027   6.350  1.00  0.00    -0.275 N 
HETATM   21  C   UNL     1      42.516 -14.967   5.662  1.00  0.00     0.116 A 
HETATM   22  C   UNL     1      43.319 -13.894   5.966  1.00  0.00     0.071 A 
BRANCH  20  23
HETATM   23  C   UNL     1      42.496 -17.380   6.394  1.00  0.00     0.189 C 
BRANCH  23  24
HETATM   24  C   UNL     1      43.186 -18.289   5.409  1.00  0.00    -0.038 A 
HETATM   25  C   UNL     1      42.817 -18.277   4.054  1.00  0.00     0.009 A 
HETATM   26  C   UNL     1      43.449 -19.121   3.140  1.00  0.00     0.001 A 
HETATM   27  C   UNL     1      44.458 -19.981   3.567  1.00  0.00     0.000 A 
HETATM   28  C   UNL     1      44.834 -20.002   4.909  1.00  0.00     0.001 A 
HETATM   29  C   UNL     1      44.201 -19.163   5.827  1.00  0.00     0.009 A 
ENDBRANCH  23  24
ENDBRANCH  20  23
ENDBRANCH   3  18
TORSDOF 7
ENDMDL
MODEL 5
REMARK VINA RESULT:      -8.1      3.140      8.102
REMARK  7 active torsions:
REMARK  status: ('A' for Active; 'I' for Inactive)
REMARK    1  A    between atoms: C_2  and  N_3 
REMARK    2  A    between atoms: C_2  and  C_19 
REMARK       I    between atoms: N_3  and  C_4 
REMARK       I    between atoms: C_4  and  N_5 
REMARK    3  A    between atoms: N_5  and  C_6 
REMARK    4  A    between atoms: N_8  and  C_9 
REMARK    5  A    between atoms: C_9  and  C_10 
REMARK    6  A    between atoms: C_19  and  C_20 
REMARK    7  A    between atoms: C_23  and  O_24 
ROOT
HETATM    1  N   UNL     1      41.339 -16.831   3.229  1.00  0.00    -0.338 N 
HETATM    2  C   UNL     1      41.168 -17.101   4.549  1.00  0.00     0.322 C 
HETATM    3  N   UNL     1      40.772 -16.065   5.341  1.00  0.00    -0.292 N 
HETATM    4  O   UNL     1      41.350 -18.210   5.047  1.00  0.00    -0.247 OA
HETATM    5  H   UNL     1      41.165 -15.863   2.964  1.00  0.00     0.164 HD
HETATM    6  H   UNL     1      40.678 -16.312   6.314  1.00  0.00     0.172 HD
ENDROOT
BRANCH   1   7
HETATM    7  C   UNL     1      41.939 -17.749   2.274  1.00  0.00     0.086 C 
HETATM    8  C   UNL     1      41.728 -17.212   0.860  1.00  0.00     0.032 C 
BRANCH   7   9
HETATM    9  C   UNL     1      43.443 -17.935   2.560  1.00  0.00     0.063 C 
BRANCH   9  10
HETATM   10  C   UNL     1      43.840 -19.374   2.803  1.00  0.00    -0.056 A 
HETATM   11  C   UNL     1      43.597 -20.352   1.827  1.00  0.00     0.010 A 
HETATM   12  C   UNL     1      43.950 -21.684   2.054  1.00  0.00     0.037 A 
HETATM   13  C   UNL     1      44.542 -22.039   3.262  1.00  0.00     0.065 A 
HETATM   14  C   UNL     1      44.784 -21.087   4.243  1.00  0.00     0.037 A 
HETATM   15  C   UNL     1      44.430 -19.756   4.016  1.00  0.00     0.010 A 
BRANCH  13  16
HETATM   16  O   UNL     1      44.898 -23.328   3.525  1.00  0.00    -0.361 OA
HETATM   17  H   UNL     1      45.852 -23.349   3.710  1.00  0.00     0.217 HD
ENDBRANCH  13  16
ENDBRANCH   9  10
ENDBRANCH   7   9
ENDBRANCH   1   7
BRANCH   3  18
HETATM   18  C   UNL     1      40.551 -14.751   4.994  1.00  0.00     0.153 A 
HETATM   19  N   UNL     1      39.732 -14.347   4.014  1.00  0.00    -0.154 NA
HETATM   20  N   UNL     1      39.837 -13.000   4.025  1.00  0.00    -0.275 N 
HETATM   21  C   UNL     1      40.682 -12.535   4.993  1.00  0.00     0.116 A 
HETATM   22  C   UNL     1      41.164 -13.650   5.635  1.00  0.00     0.071 A 
BRANCH  20  23
HETATM   23  C   UNL     1      39.036 -12.195   3.112  1.00  0.00     0.189 C 
BRANCH  23  24
HETATM   24  C   UNL     1      39.053 -12.752   1.712  1.00  0.00    -0.038 A 
HETATM   25  C   UNL     1      37.888 -13.298   1.151  1.00  0.00     0.009 A 
HETATM   26  C   UNL     1      37.902 -13.820  -0.143  1.00  0.00     0.001 A 
HETATM   27  C   UNL     1      39.077 -13.798  -0.891  1.00  0.00     0.000 A 
HETATM   28  C   UNL     1      40.240 -13.258  -0.346  1.00  0.00     0.001 A 
HETATM   29  C   UNL     1      40.231 -12.740   0.950  1.00  0.00     0.009 A 
ENDBRANCH  23  24
ENDBRANCH  20  23
ENDBRANCH   3  18
TORSDOF 7
ENDMDL
MODEL 6
REMARK VINA RESULT:      -8.1      2.928      3.626
REMARK  7 active torsions:
REMARK  status: ('A' for Active; 'I' for Inactive)
REMARK    1  A    between atoms: C_2  and  N_3 
REMARK    2  A    between atoms: C_2  and  C_19 
REMARK       I    between atoms: N_3  and  C_4 
REMARK       I    between atoms: C_4  and  N_5 
REMARK    3  A    between atoms: N_5  and  C_6 
REMARK    4  A    between atoms: N_8  and  C_9 
REMARK    5  A    between atoms: C_9  and  C_10 
REMARK    6  A    between atoms: C_19  and  C_20 
REMARK    7  A    between atoms: C_23  and  O_24 
ROOT
HETATM    1  N   UNL     1      40.098 -13.484   4.501  1.00  0.00    -0.338 N 
HETATM    2  C   UNL     1      39.967 -13.702   5.835  1.00  0.00     0.322 C 
HETATM    3  N   UNL     1      40.498 -14.858   6.323  1.00  0.00    -0.292 N 
HETATM    4  O   UNL     1      39.404 -12.922   6.601  1.00  0.00    -0.247 OA
HETATM    5  H   UNL     1      40.575 -14.226   3.991  1.00  0.00     0.164 HD
HETATM    6  H   UNL     1      40.358 -14.982   7.314  1.00  0.00     0.172 HD
ENDROOT
BRANCH   1   7
HETATM    7  C   UNL     1      39.433 -12.414   3.775  1.00  0.00     0.086 C 
HETATM    8  C   UNL     1      40.398 -11.242   3.613  1.00  0.00     0.032 C 
BRANCH   7   9
HETATM    9  C   UNL     1      38.946 -12.904   2.396  1.00  0.00     0.063 C 
BRANCH   9  10
HETATM   10  C   UNL     1      39.865 -13.922   1.757  1.00  0.00    -0.056 A 
HETATM   11  C   UNL     1      39.702 -15.290   2.021  1.00  0.00     0.010 A 
HETATM   12  C   UNL     1      40.558 -16.231   1.443  1.00  0.00     0.037 A 
HETATM   13  C   UNL     1      41.580 -15.802   0.603  1.00  0.00     0.065 A 
HETATM   14  C   UNL     1      41.761 -14.451   0.335  1.00  0.00     0.037 A 
HETATM   15  C   UNL     1      40.908 -13.512   0.914  1.00  0.00     0.010 A 
BRANCH  13  16
HETATM   16  O   UNL     1      42.439 -16.687   0.021  1.00  0.00    -0.361 OA
HETATM   17  H   UNL     1      42.769 -16.293  -0.803  1.00  0.00     0.217 HD
ENDBRANCH  13  16
ENDBRANCH   9  10
ENDBRANCH   7   9
ENDBRANCH   1   7
BRANCH   3  18
HETATM   18  C   UNL     1      41.129 -15.872   5.639  1.00  0.00     0.153 A 
HETATM   19  N   UNL     1      42.162 -15.703   4.802  1.00  0.00    -0.154 NA
HETATM   20  N   UNL     1      42.442 -16.948   4.360  1.00  0.00    -0.275 N 
HETATM   21  C   UNL     1      41.633 -17.905   4.903  1.00  0.00     0.116 A 
HETATM   22  C   UNL     1      40.767 -17.236   5.735  1.00  0.00     0.071 A 
BRANCH  20  23
HETATM   23  C   UNL     1      43.561 -17.169   3.453  1.00  0.00     0.189 C 
BRANCH  23  24
HETATM   24  C   UNL     1      43.821 -18.638   3.235  1.00  0.00    -0.038 A 
HETATM   25  C   UNL     1      43.338 -19.281   2.085  1.00  0.00     0.009 A 
HETATM   26  C   UNL     1      43.573 -20.641   1.882  1.00  0.00     0.001 A 
HETATM   27  C   UNL     1      44.296 -21.372   2.821  1.00  0.00     0.000 A 
HETATM   28  C   UNL     1      44.783 -20.745   3.967  1.00  0.00     0.001 A 
HETATM   29  C   UNL     1      44.546 -19.386   4.175  1.00  0.00     0.009 A 
ENDBRANCH  23  24
ENDBRANCH  20  23
ENDBRANCH   3  18
TORSDOF 7
ENDMDL
MODEL 7
REMARK VINA RESULT:      -8.0      3.909      7.662
REMARK  7 active torsions:
REMARK  status: ('A' for Active; 'I' for Inactive)
REMARK    1  A    between atoms: C_2  and  N_3 
REMARK    2  A    between atoms: C_2  and  C_19 
REMARK       I    between atoms: N_3  and  C_4 
REMARK       I    between atoms: C_4  and  N_5 
REMARK    3  A    between atoms: N_5  and  C_6 
REMARK    4  A    between atoms: N_8  and  C_9 
REMARK    5  A    between atoms: C_9  and  C_10 
REMARK    6  A    between atoms: C_19  and  C_20 
REMARK    7  A    between atoms: C_23  and  O_24 
ROOT
HETATM    1  N   UNL     1      42.681 -15.866   5.494  1.00  0.00    -0.338 N 
HETATM    2  C   UNL     1      43.336 -15.100   6.405  1.00  0.00     0.322 C 
HETATM    3  N   UNL     1      43.058 -13.766   6.398  1.00  0.00    -0.292 N 
HETATM    4  O   UNL     1      44.147 -15.546   7.214  1.00  0.00    -0.247 OA
HETATM    5  H   UNL     1      42.051 -15.355   4.880  1.00  0.00     0.164 HD
HETATM    6  H   UNL     1      43.583 -13.239   7.079  1.00  0.00     0.172 HD
ENDROOT
BRANCH   1   7
HETATM    7  C   UNL     1      42.988 -17.261   5.224  1.00  0.00     0.086 C 
HETATM    8  C   UNL     1      41.702 -18.081   5.295  1.00  0.00     0.032 C 
BRANCH   7   9
HETATM    9  C   UNL     1      43.651 -17.420   3.840  1.00  0.00     0.063 C 
BRANCH   9  10
HETATM   10  C   UNL     1      43.906 -18.860   3.454  1.00  0.00    -0.056 A 
HETATM   11  C   UNL     1      44.656 -19.699   4.291  1.00  0.00     0.010 A 
HETATM   12  C   UNL     1      44.905 -21.025   3.930  1.00  0.00     0.037 A 
HETATM   13  C   UNL     1      44.405 -21.512   2.727  1.00  0.00     0.065 A 
HETATM   14  C   UNL     1      43.665 -20.695   1.881  1.00  0.00     0.037 A 
HETATM   15  C   UNL     1      43.419 -19.370   2.242  1.00  0.00     0.010 A 
BRANCH  13  16
HETATM   16  O   UNL     1      44.627 -22.799   2.335  1.00  0.00    -0.361 OA
HETATM   17  H   UNL     1      45.177 -23.231   3.008  1.00  0.00     0.217 HD
ENDBRANCH  13  16
ENDBRANCH   9  10
ENDBRANCH   7   9
ENDBRANCH   1   7
BRANCH   3  18
HETATM   18  C   UNL     1      42.219 -13.065   5.560  1.00  0.00     0.153 A 
HETATM   19  N   UNL     1      41.902 -13.435   4.313  1.00  0.00    -0.154 NA
HETATM   20  N   UNL     1      41.077 -12.459   3.874  1.00  0.00    -0.275 N 
HETATM   21  C   UNL     1      40.845 -11.491   4.810  1.00  0.00     0.116 A 
HETATM   22  C   UNL     1      41.578 -11.856   5.915  1.00  0.00     0.071 A 
BRANCH  20  23
HETATM   23  C   UNL     1      40.477 -12.546   2.549  1.00  0.00     0.189 C 
BRANCH  23  24
HETATM   24  C   UNL     1      40.678 -13.907   1.933  1.00  0.00    -0.038 A 
HETATM   25  C   UNL     1      39.971 -15.018   2.421  1.00  0.00     0.009 A 
HETATM   26  C   UNL     1      40.158 -16.280   1.857  1.00  0.00     0.001 A 
HETATM   27  C   UNL     1      41.047 -16.446   0.797  1.00  0.00     0.000 A 
HETATM   28  C   UNL     1      41.753 -15.351   0.303  1.00  0.00     0.001 A 
HETATM   29  C   UNL     1      41.572 -14.088   0.868  1.00  0.00     0.009 A 
ENDBRANCH  23  24
ENDBRANCH  20  23
ENDBRANCH   3  18
TORSDOF 7
ENDMDL
MODEL 8
REMARK VINA RESULT:      -8.0      2.118      2.601
REMARK  7 active torsions:
REMARK  status: ('A' for Active; 'I' for Inactive)
REMARK    1  A    between atoms: C_2  and  N_3 
REMARK    2  A    between atoms: C_2  and  C_19 
REMARK       I    between atoms: N_3  and  C_4 
REMARK       I    between atoms: C_4  and  N_5 
REMARK    3  A    between atoms: N_5  and  C_6 
REMARK    4  A    between atoms: N_8  and  C_9 
REMARK    5  A    between atoms: C_9  and  C_10 
REMARK    6  A    between atoms: C_19  and  C_20 
REMARK    7  A    between atoms: C_23  and  O_24 
ROOT
HETATM    1  N   UNL     1      40.475 -14.217   1.679  1.00  0.00    -0.338 N 
HETATM    2  C   UNL     1      39.388 -15.029   1.750  1.00  0.00     0.322 C 
HETATM    3  N   UNL     1      39.567 -16.242   2.346  1.00  0.00    -0.292 N 
HETATM    4  O   UNL     1      38.280 -14.726   1.312  1.00  0.00    -0.247 OA
HETATM    5  H   UNL     1      41.328 -14.609   2.070  1.00  0.00     0.164 HD
HETATM    6  H   UNL     1      38.737 -16.814   2.357  1.00  0.00     0.172 HD
ENDROOT
BRANCH   1   7
HETATM    7  C   UNL     1      40.526 -12.981   0.914  1.00  0.00     0.086 C 
HETATM    8  C   UNL     1      39.935 -11.848   1.752  1.00  0.00     0.032 C 
BRANCH   7   9
HETATM    9  C   UNL     1      41.974 -12.647   0.504  1.00  0.00     0.063 C 
BRANCH   9  10
HETATM   10  C   UNL     1      42.130 -12.340  -0.969  1.00  0.00    -0.056 A 
HETATM   11  C   UNL     1      41.884 -13.331  -1.931  1.00  0.00     0.010 A 
HETATM   12  C   UNL     1      42.041 -13.054  -3.291  1.00  0.00     0.037 A 
HETATM   13  C   UNL     1      42.448 -11.785  -3.689  1.00  0.00     0.065 A 
HETATM   14  C   UNL     1      42.703 -10.793  -2.751  1.00  0.00     0.037 A 
HETATM   15  C   UNL     1      42.548 -11.070  -1.393  1.00  0.00     0.010 A 
BRANCH  13  16
HETATM   16  O   UNL     1      42.616 -11.474  -5.006  1.00  0.00    -0.361 OA
HETATM   17  H   UNL     1      42.493 -10.516  -5.110  1.00  0.00     0.217 HD
ENDBRANCH  13  16
ENDBRANCH   9  10
ENDBRANCH   7   9
ENDBRANCH   1   7
BRANCH   3  18
HETATM   18  C   UNL     1      40.721 -16.785   2.863  1.00  0.00     0.153 A 
HETATM   19  N   UNL     1      41.788 -17.146   2.138  1.00  0.00    -0.154 NA
HETATM   20  N   UNL     1      42.661 -17.631   3.048  1.00  0.00    -0.275 N 
HETATM   21  C   UNL     1      42.191 -17.573   4.329  1.00  0.00     0.116 A 
HETATM   22  C   UNL     1      40.931 -17.032   4.240  1.00  0.00     0.071 A 
BRANCH  20  23
HETATM   23  C   UNL     1      43.982 -18.082   2.628  1.00  0.00     0.189 C 
BRANCH  23  24
HETATM   24  C   UNL     1      44.144 -19.571   2.796  1.00  0.00    -0.038 A 
HETATM   25  C   UNL     1      43.756 -20.447   1.770  1.00  0.00     0.009 A 
HETATM   26  C   UNL     1      43.900 -21.827   1.924  1.00  0.00     0.001 A 
HETATM   27  C   UNL     1      44.437 -22.345   3.100  1.00  0.00     0.000 A 
HETATM   28  C   UNL     1      44.827 -21.486   4.125  1.00  0.00     0.001 A 
HETATM   29  C   UNL     1      44.680 -20.106   3.977  1.00  0.00     0.009 A 
ENDBRANCH  23  24
ENDBRANCH  20  23
ENDBRANCH   3  18
TORSDOF 7
ENDMDL
MODEL 9
REMARK VINA RESULT:      -8.0      3.026      8.022
REMARK  7 active torsions:
REMARK  status: ('A' for Active; 'I' for Inactive)
REMARK    1  A    between atoms: C_2  and  N_3 
REMARK    2  A    between atoms: C_2  and  C_19 
REMARK       I    between atoms: N_3  and  C_4 
REMARK       I    between atoms: C_4  and  N_5 
REMARK    3  A    between atoms: N_5  and  C_6 
REMARK    4  A    between atoms: N_8  and  C_9 
REMARK    5  A    between atoms: C_9  and  C_10 
REMARK    6  A    between atoms: C_19  and  C_20 
REMARK    7  A    between atoms: C_23  and  O_24 
ROOT
HETATM    1  N   UNL     1      42.118 -16.171   2.905  1.00  0.00    -0.338 N 
HETATM    2  C   UNL     1      42.697 -15.624   4.006  1.00  0.00     0.322 C 
HETATM    3  N   UNL     1      42.728 -14.263   4.070  1.00  0.00    -0.292 N 
HETATM    4  O   UNL     1      43.182 -16.286   4.921  1.00  0.00    -0.247 OA
HETATM    5  H   UNL     1      41.773 -15.497   2.224  1.00  0.00     0.164 HD
HETATM    6  H   UNL     1      43.184 -13.907   4.896  1.00  0.00     0.172 HD
ENDROOT
BRANCH   1   7
HETATM    7  C   UNL     1      42.165 -17.585   2.570  1.00  0.00     0.086 C 
HETATM    8  C   UNL     1      41.186 -17.864   1.432  1.00  0.00     0.032 C 
BRANCH   7   9
HETATM    9  C   UNL     1      43.593 -18.007   2.167  1.00  0.00     0.063 C 
BRANCH   9  10
HETATM   10  C   UNL     1      43.931 -19.433   2.542  1.00  0.00    -0.056 A 
HETATM   11  C   UNL     1      43.626 -20.488   1.668  1.00  0.00     0.010 A 
HETATM   12  C   UNL     1      43.924 -21.807   2.018  1.00  0.00     0.037 A 
HETATM   13  C   UNL     1      44.524 -22.072   3.244  1.00  0.00     0.065 A 
HETATM   14  C   UNL     1      44.827 -21.041   4.125  1.00  0.00     0.037 A 
HETATM   15  C   UNL     1      44.528 -19.724   3.776  1.00  0.00     0.010 A 
BRANCH  13  16
HETATM   16  O   UNL     1      44.829 -23.345   3.625  1.00  0.00    -0.361 OA
HETATM   17  H   UNL     1      45.404 -23.299   4.406  1.00  0.00     0.217 HD
ENDBRANCH  13  16
ENDBRANCH   9  10
ENDBRANCH   7   9
ENDBRANCH   1   7
BRANCH   3  18
HETATM   18  C   UNL     1      42.278 -13.347   3.147  1.00  0.00     0.153 A 
HETATM   19  N   UNL     1      42.760 -13.214   1.904  1.00  0.00    -0.154 NA
HETATM   20  N   UNL     1      42.041 -12.202   1.372  1.00  0.00    -0.275 N 
HETATM   21  C   UNL     1      41.106 -11.699   2.231  1.00  0.00     0.116 A 
HETATM   22  C   UNL     1      41.239 -12.420   3.393  1.00  0.00     0.071 A 
BRANCH  20  23
HETATM   23  C   UNL     1      42.255 -11.799  -0.012  1.00  0.00     0.189 C 
BRANCH  23  24
HETATM   24  C   UNL     1      41.883 -12.896  -0.977  1.00  0.00    -0.038 A 
HETATM   25  C   UNL     1      42.166 -12.763  -2.345  1.00  0.00     0.009 A 
HETATM   26  C   UNL     1      41.819 -13.773  -3.243  1.00  0.00     0.001 A 
HETATM   27  C   UNL     1      41.189 -14.927  -2.783  1.00  0.00     0.000 A 
HETATM   28  C   UNL     1      40.904 -15.072  -1.427  1.00  0.00     0.001 A 
HETATM   29  C   UNL     1      41.246 -14.062  -0.528  1.00  0.00     0.009 A 
ENDBRANCH  23  24
ENDBRANCH  20  23
ENDBRANCH   3  18
TORSDOF 7
ENDMDL
MODEL 10
REMARK VINA RESULT:      -7.7      4.787      8.745
REMARK  7 active torsions:
REMARK  status: ('A' for Active; 'I' for Inactive)
REMARK    1  A    between atoms: C_2  and  N_3 
REMARK    2  A    between atoms: C_2  and  C_19 
REMARK       I    between atoms: N_3  and  C_4 
REMARK       I    between atoms: C_4  and  N_5 
REMARK    3  A    between atoms: N_5  and  C_6 
REMARK    4  A    between atoms: N_8  and  C_9 
REMARK    5  A    between atoms: C_9  and  C_10 
REMARK    6  A    between atoms: C_19  and  C_20 
REMARK    7  A    between atoms: C_23  and  O_24 
ROOT
HETATM    1  N   UNL     1      41.561 -16.766   3.211  1.00  0.00    -0.338 N 
HETATM    2  C   UNL     1      41.210 -17.180   4.457  1.00  0.00     0.322 C 
HETATM    3  N   UNL     1      40.747 -16.225   5.312  1.00  0.00    -0.292 N 
HETATM    4  O   UNL     1      41.290 -18.347   4.836  1.00  0.00    -0.247 OA
HETATM    5  H   UNL     1      41.454 -15.767   3.047  1.00  0.00     0.164 HD
HETATM    6  H   UNL     1      40.518 -16.579   6.228  1.00  0.00     0.172 HD
ENDROOT
BRANCH   1   7
HETATM    7  C   UNL     1      42.252 -17.595   2.237  1.00  0.00     0.086 C 
HETATM    8  C   UNL     1      42.229 -16.896   0.878  1.00  0.00     0.032 C 
BRANCH   7   9
HETATM    9  C   UNL     1      43.705 -17.866   2.677  1.00  0.00     0.063 C 
BRANCH   9  10
HETATM   10  C   UNL     1      44.012 -19.333   2.880  1.00  0.00    -0.056 A 
HETATM   11  C   UNL     1      43.680 -20.272   1.891  1.00  0.00     0.010 A 
HETATM   12  C   UNL     1      43.949 -21.629   2.083  1.00  0.00     0.037 A 
HETATM   13  C   UNL     1      44.547 -22.048   3.266  1.00  0.00     0.065 A 
HETATM   14  C   UNL     1      44.876 -21.135   4.260  1.00  0.00     0.037 A 
HETATM   15  C   UNL     1      44.605 -19.780   4.069  1.00  0.00     0.010 A 
BRANCH  13  16
HETATM   16  O   UNL     1      44.824 -23.364   3.494  1.00  0.00    -0.361 OA
HETATM   17  H   UNL     1      45.077 -23.772   2.650  1.00  0.00     0.217 HD
ENDBRANCH  13  16
ENDBRANCH   9  10
ENDBRANCH   7   9
ENDBRANCH   1   7
BRANCH   3  18
HETATM   18  C   UNL     1      40.614 -14.871   5.102  1.00  0.00     0.153 A 
HETATM   19  N   UNL     1      41.315 -13.926   5.741  1.00  0.00    -0.154 NA
HETATM   20  N   UNL     1      40.852 -12.764   5.231  1.00  0.00    -0.275 N 
HETATM   21  C   UNL     1      39.893 -12.941   4.275  1.00  0.00     0.116 A 
HETATM   22  C   UNL     1      39.714 -14.300   4.172  1.00  0.00     0.071 A 
BRANCH  20  23
HETATM   23  C   UNL     1      41.427 -11.495   5.659  1.00  0.00     0.189 C 
BRANCH  23  24
HETATM   24  C   UNL     1      41.050 -11.162   7.080  1.00  0.00    -0.038 A 
HETATM   25  C   UNL     1      41.983 -10.556   7.938  1.00  0.00     0.009 A 
HETATM   26  C   UNL     1      41.639 -10.251   9.256  1.00  0.00     0.001 A 
HETATM   27  C   UNL     1      40.362 -10.541   9.729  1.00  0.00     0.000 A 
HETATM   28  C   UNL     1      39.427 -11.140   8.887  1.00  0.00     0.001 A 
HETATM   29  C   UNL     1      39.768 -11.451   7.570  1.00  0.00     0.009 A 
ENDBRANCH  23  24
ENDBRANCH  20  23
ENDBRANCH   3  18
TORSDOF 7
ENDMDL
