MODEL 1
REMARK VINA RESULT:      -8.9      0.000      0.000
REMARK  8 active torsions:
REMARK  status: ('A' for Active; 'I' for Inactive)
REMARK    1  A    between atoms: C_4  and  O_5 
REMARK    2  A    between atoms: O_5  and  C_6 
REMARK    3  A    between atoms: C_6  and  C_7 
REMARK       I    between atoms: C_7  and  N_8 
REMARK    4  A    between atoms: N_8  and  N_9 
REMARK       I    between atoms: N_9  and  C_10 
REMARK    5  A    between atoms: C_10  and  C_11 
REMARK    6  A    between atoms: C_11  and  C_12 
REMARK    7  A    between atoms: C_12  and  N_13 
REMARK    8  A    between atoms: C_12  and  C_17 
REMARK       I    between atoms: N_13  and  C_14 
REMARK       I    between atoms: C_14  and  N_15 
ROOT
HETATM    1  N   UNL     1      43.859 -15.282   7.082  1.00  0.00    -0.267 N 
HETATM    2  C   UNL     1      43.401 -16.502   7.554  1.00  0.00     0.238 C 
HETATM    3  O   UNL     1      43.578 -16.895   8.704  1.00  0.00    -0.272 OA
HETATM    4  H   UNL     1      43.480 -14.911   6.212  1.00  0.00     0.190 HD
ENDROOT
BRANCH   2   5
HETATM    5  C   UNL     1      42.641 -17.294   6.516  1.00  0.00     0.134 C 
BRANCH   5   6
HETATM    6  C   UNL     1      42.377 -16.490   5.230  1.00  0.00     0.130 C 
BRANCH   6   7
HETATM    7  N   UNL     1      40.987 -16.041   5.116  1.00  0.00    -0.334 N 
HETATM    8  C   UNL     1      40.625 -14.771   5.446  1.00  0.00     0.314 C 
HETATM    9  N   UNL     1      39.286 -14.585   5.382  1.00  0.00    -0.352 N 
HETATM   10  O   UNL     1      41.383 -13.893   5.824  1.00  0.00    -0.248 OA
HETATM   11  H   UNL     1      38.771 -15.125   4.699  1.00  0.00     0.160 HD
HETATM   12  H   UNL     1      38.992 -13.622   5.489  1.00  0.00     0.160 HD
HETATM   13  H   UNL     1      40.247 -16.732   5.225  1.00  0.00     0.165 HD
ENDBRANCH   6   7
BRANCH   6  14
HETATM   14  C   UNL     1      42.886 -17.194   3.976  1.00  0.00    -0.013 A 
HETATM   15  C   UNL     1      43.360 -16.459   2.868  1.00  0.00     0.042 A 
HETATM   16 CL   UNL     1      43.412 -14.728   2.857  1.00  0.00    -0.084 Cl
HETATM   17  C   UNL     1      43.817 -17.105   1.715  1.00  0.00     0.024 A 
HETATM   18  C   UNL     1      43.815 -18.495   1.640  1.00  0.00     0.002 A 
HETATM   19  C   UNL     1      43.367 -19.240   2.724  1.00  0.00     0.001 A 
HETATM   20  C   UNL     1      42.915 -18.598   3.882  1.00  0.00     0.011 A 
ENDBRANCH   6  14
ENDBRANCH   5   6
ENDBRANCH   2   5
BRANCH   1  21
HETATM   21  N   UNL     1      44.253 -14.326   8.023  1.00  0.00    -0.266 N 
HETATM   22  C   UNL     1      45.206 -13.387   7.656  1.00  0.00     0.260 C 
HETATM   23  O   UNL     1      45.839 -13.442   6.599  1.00  0.00    -0.269 OA
HETATM   24  H   UNL     1      43.582 -14.094   8.754  1.00  0.00     0.190 HD
BRANCH  22  25
HETATM   25  C   UNL     1      45.352 -12.252   8.667  1.00  0.00     0.280 C 
BRANCH  25  26
HETATM   26  O   UNL     1      44.560 -12.569   9.809  1.00  0.00    -0.342 OA
BRANCH  26  27
HETATM   27  C   UNL     1      43.842 -11.561  10.386  1.00  0.00     0.069 A 
HETATM   28  C   UNL     1      43.983 -11.093  11.693  1.00  0.00     0.043 A 
HETATM   29  C   UNL     1      43.194 -10.026  12.155  1.00  0.00    -0.059 A 
HETATM   30  C   UNL     1      43.372  -9.481  13.541  1.00  0.00     0.048 C 
HETATM   31  C   UNL     1      42.273  -9.426  11.286  1.00  0.00     0.007 A 
HETATM   32  C   UNL     1      42.130  -9.891   9.981  1.00  0.00     0.003 A 
HETATM   33  C   UNL     1      42.916 -10.953   9.534  1.00  0.00     0.037 A 
ENDBRANCH  26  27
ENDBRANCH  25  26
ENDBRANCH  22  25
ENDBRANCH   1  21
TORSDOF 8
ENDMDL
MODEL 2
REMARK VINA RESULT:      -8.6      1.777      2.491
REMARK  8 active torsions:
REMARK  status: ('A' for Active; 'I' for Inactive)
REMARK    1  A    between atoms: C_4  and  O_5 
REMARK    2  A    between atoms: O_5  and  C_6 
REMARK    3  A    between atoms: C_6  and  C_7 
REMARK       I    between atoms: C_7  and  N_8 
REMARK    4  A    between atoms: N_8  and  N_9 
REMARK       I    between atoms: N_9  and  C_10 
REMARK    5  A    between atoms: C_10  and  C_11 
REMARK    6  A    between atoms: C_11  and  C_12 
REMARK    7  A    between atoms: C_12  and  N_13 
REMARK    8  A    between atoms: C_12  and  C_17 
REMARK       I    between atoms: N_13  and  C_14 
REMARK       I    between atoms: C_14  and  N_15 
ROOT
HETATM    1  N   UNL     1      44.132 -14.259   7.851  1.00  0.00    -0.267 N 
HETATM    2  C   UNL     1      44.165 -14.652   6.522  1.00  0.00     0.238 C 
HETATM    3  O   UNL     1      44.054 -13.871   5.580  1.00  0.00    -0.272 OA
HETATM    4  H   UNL     1      44.466 -14.901   8.568  1.00  0.00     0.190 HD
ENDROOT
BRANCH   2   5
HETATM    5  C   UNL     1      44.372 -16.138   6.346  1.00  0.00     0.134 C 
BRANCH   5   6
HETATM    6  C   UNL     1      43.346 -16.772   5.389  1.00  0.00     0.130 C 
BRANCH   6   7
HETATM    7  N   UNL     1      42.020 -16.920   5.993  1.00  0.00    -0.334 N 
HETATM    8  C   UNL     1      40.980 -16.127   5.616  1.00  0.00     0.314 C 
HETATM    9  N   UNL     1      39.874 -16.338   6.366  1.00  0.00    -0.352 N 
HETATM   10  O   UNL     1      41.021 -15.267   4.751  1.00  0.00    -0.248 OA
HETATM   11  H   UNL     1      39.727 -17.270   6.731  1.00  0.00     0.160 HD
HETATM   12  H   UNL     1      39.044 -15.865   6.030  1.00  0.00     0.160 HD
HETATM   13  H   UNL     1      41.961 -17.266   6.949  1.00  0.00     0.165 HD
ENDBRANCH   6   7
BRANCH   6  14
HETATM   14  C   UNL     1      43.857 -18.055   4.740  1.00  0.00    -0.013 A 
HETATM   15  C   UNL     1      43.523 -18.382   3.408  1.00  0.00     0.042 A 
HETATM   16 CL   UNL     1      42.535 -17.359   2.422  1.00  0.00    -0.084 Cl
HETATM   17  C   UNL     1      43.983 -19.565   2.818  1.00  0.00     0.024 A 
HETATM   18  C   UNL     1      44.787 -20.443   3.537  1.00  0.00     0.002 A 
HETATM   19  C   UNL     1      45.142 -20.134   4.845  1.00  0.00     0.001 A 
HETATM   20  C   UNL     1      44.689 -18.952   5.437  1.00  0.00     0.011 A 
ENDBRANCH   6  14
ENDBRANCH   5   6
ENDBRANCH   2   5
BRANCH   1  21
HETATM   21  N   UNL     1      44.302 -12.901   8.133  1.00  0.00    -0.266 N 
HETATM   22  C   UNL     1      44.542 -12.519   9.445  1.00  0.00     0.260 C 
HETATM   23  O   UNL     1      44.461 -13.295  10.400  1.00  0.00    -0.269 OA
HETATM   24  H   UNL     1      44.639 -12.310   7.374  1.00  0.00     0.190 HD
BRANCH  22  25
HETATM   25  C   UNL     1      44.970 -11.060   9.578  1.00  0.00     0.280 C 
BRANCH  25  26
HETATM   26  O   UNL     1      43.800 -10.269   9.769  1.00  0.00    -0.342 OA
BRANCH  26  27
HETATM   27  C   UNL     1      43.151 -10.371  10.966  1.00  0.00     0.069 A 
HETATM   28  C   UNL     1      41.929 -11.009  11.188  1.00  0.00     0.043 A 
HETATM   29  C   UNL     1      41.381 -11.063  12.480  1.00  0.00    -0.059 A 
HETATM   30  C   UNL     1      40.095 -11.791  12.739  1.00  0.00     0.048 C 
HETATM   31  C   UNL     1      42.078 -10.484  13.548  1.00  0.00     0.007 A 
HETATM   32  C   UNL     1      43.297  -9.846  13.329  1.00  0.00     0.003 A 
HETATM   33  C   UNL     1      43.831  -9.795  12.042  1.00  0.00     0.037 A 
ENDBRANCH  26  27
ENDBRANCH  25  26
ENDBRANCH  22  25
ENDBRANCH   1  21
TORSDOF 8
ENDMDL
MODEL 3
REMARK VINA RESULT:      -8.5      2.891      9.504
REMARK  8 active torsions:
REMARK  status: ('A' for Active; 'I' for Inactive)
REMARK    1  A    between atoms: C_4  and  O_5 
REMARK    2  A    between atoms: O_5  and  C_6 
REMARK    3  A    between atoms: C_6  and  C_7 
REMARK       I    between atoms: C_7  and  N_8 
REMARK    4  A    between atoms: N_8  and  N_9 
REMARK       I    between atoms: N_9  and  C_10 
REMARK    5  A    between atoms: C_10  and  C_11 
REMARK    6  A    between atoms: C_11  and  C_12 
REMARK    7  A    between atoms: C_12  and  N_13 
REMARK    8  A    between atoms: C_12  and  C_17 
REMARK       I    between atoms: N_13  and  C_14 
REMARK       I    between atoms: C_14  and  N_15 
ROOT
HETATM    1  N   UNL     1      44.170 -13.280   8.746  1.00  0.00    -0.267 N 
HETATM    2  C   UNL     1      44.628 -12.105   9.321  1.00  0.00     0.238 C 
HETATM    3  O   UNL     1      45.298 -11.271   8.719  1.00  0.00    -0.272 OA
HETATM    4  H   UNL     1      43.431 -13.807   9.209  1.00  0.00     0.190 HD
ENDROOT
BRANCH   2   5
HETATM    5  C   UNL     1      44.202 -11.943  10.761  1.00  0.00     0.134 C 
BRANCH   5   6
HETATM    6  C   UNL     1      42.873 -11.178  10.906  1.00  0.00     0.130 C 
BRANCH   6   7
HETATM    7  N   UNL     1      42.647 -10.220   9.821  1.00  0.00    -0.334 N 
HETATM    8  C   UNL     1      41.477 -10.203   9.127  1.00  0.00     0.314 C 
HETATM    9  N   UNL     1      41.504  -9.328   8.095  1.00  0.00    -0.352 N 
HETATM   10  O   UNL     1      40.515 -10.924   9.339  1.00  0.00    -0.248 OA
HETATM   11  H   UNL     1      42.072  -8.498   8.200  1.00  0.00     0.160 HD
HETATM   12  H   UNL     1      40.610  -9.190   7.639  1.00  0.00     0.160 HD
HETATM   13  H   UNL     1      43.454  -9.887   9.297  1.00  0.00     0.165 HD
ENDBRANCH   6   7
BRANCH   6  14
HETATM   14  C   UNL     1      42.688 -10.570  12.293  1.00  0.00    -0.013 A 
HETATM   15  C   UNL     1      41.564 -10.887  13.085  1.00  0.00     0.042 A 
HETATM   16 CL   UNL     1      40.336 -11.987  12.555  1.00  0.00    -0.084 Cl
HETATM   17  C   UNL     1      41.390 -10.321  14.353  1.00  0.00     0.024 A 
HETATM   18  C   UNL     1      42.331  -9.430  14.860  1.00  0.00     0.002 A 
HETATM   19  C   UNL     1      43.454  -9.114  14.104  1.00  0.00     0.001 A 
HETATM   20  C   UNL     1      43.635  -9.683  12.840  1.00  0.00     0.011 A 
ENDBRANCH   6  14
ENDBRANCH   5   6
ENDBRANCH   2   5
BRANCH   1  21
HETATM   21  N   UNL     1      44.193 -13.375   7.352  1.00  0.00    -0.266 N 
HETATM   22  C   UNL     1      44.023 -14.622   6.767  1.00  0.00     0.260 C 
HETATM   23  O   UNL     1      44.007 -15.674   7.411  1.00  0.00    -0.269 OA
HETATM   24  H   UNL     1      43.931 -12.541   6.828  1.00  0.00     0.190 HD
BRANCH  22  25
HETATM   25  C   UNL     1      43.802 -14.553   5.259  1.00  0.00     0.280 C 
BRANCH  25  26
HETATM   26  O   UNL     1      42.886 -15.583   4.895  1.00  0.00    -0.342 OA
BRANCH  26  27
HETATM   27  C   UNL     1      43.294 -16.499   3.969  1.00  0.00     0.069 A 
HETATM   28  C   UNL     1      43.629 -17.831   4.221  1.00  0.00     0.043 A 
HETATM   29  C   UNL     1      44.012 -18.678   3.168  1.00  0.00    -0.059 A 
HETATM   30  C   UNL     1      44.324 -20.124   3.419  1.00  0.00     0.048 C 
HETATM   31  C   UNL     1      44.040 -18.179   1.859  1.00  0.00     0.007 A 
HETATM   32  C   UNL     1      43.706 -16.852   1.605  1.00  0.00     0.003 A 
HETATM   33  C   UNL     1      43.332 -16.018   2.658  1.00  0.00     0.037 A 
ENDBRANCH  26  27
ENDBRANCH  25  26
ENDBRANCH  22  25
ENDBRANCH   1  21
TORSDOF 8
ENDMDL
MODEL 4
REMARK VINA RESULT:      -8.2      5.389      9.394
REMARK  8 active torsions:
REMARK  status: ('A' for Active; 'I' for Inactive)
REMARK    1  A    between atoms: C_4  and  O_5 
REMARK    2  A    between atoms: O_5  and  C_6 
REMARK    3  A    between atoms: C_6  and  C_7 
REMARK       I    between atoms: C_7  and  N_8 
REMARK    4  A    between atoms: N_8  and  N_9 
REMARK       I    between atoms: N_9  and  C_10 
REMARK    5  A    between atoms: C_10  and  C_11 
REMARK    6  A    between atoms: C_11  and  C_12 
REMARK    7  A    between atoms: C_12  and  N_13 
REMARK    8  A    between atoms: C_12  and  C_17 
REMARK       I    between atoms: N_13  and  C_14 
REMARK       I    between atoms: C_14  and  N_15 
ROOT
HETATM    1  N   UNL     1      39.413 -16.021   2.347  1.00  0.00    -0.267 N 
HETATM    2  C   UNL     1      40.456 -16.913   2.157  1.00  0.00     0.238 C 
HETATM    3  O   UNL     1      40.979 -17.125   1.066  1.00  0.00    -0.272 OA
HETATM    4  H   UNL     1      39.188 -15.711   3.291  1.00  0.00     0.190 HD
ENDROOT
BRANCH   2   5
HETATM    5  C   UNL     1      40.902 -17.586   3.434  1.00  0.00     0.134 C 
BRANCH   5   6
HETATM    6  C   UNL     1      42.411 -17.427   3.696  1.00  0.00     0.130 C 
BRANCH   6   7
HETATM    7  N   UNL     1      42.966 -16.210   3.099  1.00  0.00    -0.334 N 
HETATM    8  C   UNL     1      43.179 -15.091   3.845  1.00  0.00     0.314 C 
HETATM    9  N   UNL     1      43.587 -14.042   3.093  1.00  0.00    -0.352 N 
HETATM   10  O   UNL     1      42.975 -14.988   5.043  1.00  0.00    -0.248 OA
HETATM   11  H   UNL     1      44.135 -14.244   2.267  1.00  0.00     0.160 HD
HETATM   12  H   UNL     1      43.883 -13.235   3.627  1.00  0.00     0.160 HD
HETATM   13  H   UNL     1      42.786 -16.032   2.112  1.00  0.00     0.165 HD
ENDBRANCH   6   7
BRANCH   6  14
HETATM   14  C   UNL     1      43.207 -18.682   3.353  1.00  0.00    -0.013 A 
HETATM   15  C   UNL     1      44.220 -19.161   4.211  1.00  0.00     0.042 A 
HETATM   16 CL   UNL     1      44.617 -18.380   5.704  1.00  0.00    -0.084 Cl
HETATM   17  C   UNL     1      44.957 -20.307   3.890  1.00  0.00     0.024 A 
HETATM   18  C   UNL     1      44.701 -21.000   2.711  1.00  0.00     0.002 A 
HETATM   19  C   UNL     1      43.697 -20.556   1.858  1.00  0.00     0.001 A 
HETATM   20  C   UNL     1      42.954 -19.416   2.178  1.00  0.00     0.011 A 
ENDBRANCH   6  14
ENDBRANCH   5   6
ENDBRANCH   2   5
BRANCH   1  21
HETATM   21  N   UNL     1      39.157 -15.093   1.333  1.00  0.00    -0.266 N 
HETATM   22  C   UNL     1      39.820 -13.874   1.365  1.00  0.00     0.260 C 
HETATM   23  O   UNL     1      40.504 -13.501   2.320  1.00  0.00    -0.269 OA
HETATM   24  H   UNL     1      38.840 -15.463   0.438  1.00  0.00     0.190 HD
BRANCH  22  25
HETATM   25  C   UNL     1      39.659 -13.069   0.078  1.00  0.00     0.280 C 
BRANCH  25  26
HETATM   26  O   UNL     1      40.484 -13.660  -0.923  1.00  0.00    -0.342 OA
BRANCH  26  27
HETATM   27  C   UNL     1      39.871 -14.367  -1.917  1.00  0.00     0.069 A 
HETATM   28  C   UNL     1      38.615 -14.099  -2.464  1.00  0.00     0.043 A 
HETATM   29  C   UNL     1      38.110 -14.895  -3.506  1.00  0.00    -0.059 A 
HETATM   30  C   UNL     1      36.784 -14.586  -4.136  1.00  0.00     0.048 C 
HETATM   31  C   UNL     1      38.885 -15.952  -4.002  1.00  0.00     0.007 A 
HETATM   32  C   UNL     1      40.138 -16.221  -3.458  1.00  0.00     0.003 A 
HETATM   33  C   UNL     1      40.629 -15.427  -2.422  1.00  0.00     0.037 A 
ENDBRANCH  26  27
ENDBRANCH  25  26
ENDBRANCH  22  25
ENDBRANCH   1  21
TORSDOF 8
ENDMDL
MODEL 5
REMARK VINA RESULT:      -8.2      1.505      1.837
REMARK  8 active torsions:
REMARK  status: ('A' for Active; 'I' for Inactive)
REMARK    1  A    between atoms: C_4  and  O_5 
REMARK    2  A    between atoms: O_5  and  C_6 
REMARK    3  A    between atoms: C_6  and  C_7 
REMARK       I    between atoms: C_7  and  N_8 
REMARK    4  A    between atoms: N_8  and  N_9 
REMARK       I    between atoms: N_9  and  C_10 
REMARK    5  A    between atoms: C_10  and  C_11 
REMARK    6  A    between atoms: C_11  and  C_12 
REMARK    7  A    between atoms: C_12  and  N_13 
REMARK    8  A    between atoms: C_12  and  C_17 
REMARK       I    between atoms: N_13  and  C_14 
REMARK       I    between atoms: C_14  and  N_15 
ROOT
HETATM    1  N   UNL     1      44.465 -14.203   7.103  1.00  0.00    -0.267 N 
HETATM    2  C   UNL     1      43.618 -13.787   6.088  1.00  0.00     0.238 C 
HETATM    3  O   UNL     1      42.733 -12.949   6.244  1.00  0.00    -0.272 OA
HETATM    4  H   UNL     1      45.317 -14.708   6.864  1.00  0.00     0.190 HD
ENDROOT
BRANCH   2   5
HETATM    5  C   UNL     1      43.904 -14.452   4.763  1.00  0.00     0.134 C 
BRANCH   5   6
HETATM    6  C   UNL     1      42.804 -15.446   4.346  1.00  0.00     0.130 C 
BRANCH   6   7
HETATM    7  N   UNL     1      41.634 -15.400   5.225  1.00  0.00    -0.334 N 
HETATM    8  C   UNL     1      40.406 -15.053   4.750  1.00  0.00     0.314 C 
HETATM    9  N   UNL     1      39.481 -14.959   5.734  1.00  0.00    -0.352 N 
HETATM   10  O   UNL     1      40.145 -14.787   3.589  1.00  0.00    -0.248 OA
HETATM   11  H   UNL     1      39.590 -15.564   6.537  1.00  0.00     0.160 HD
HETATM   12  H   UNL     1      38.532 -14.835   5.405  1.00  0.00     0.160 HD
HETATM   13  H   UNL     1      41.779 -15.190   6.212  1.00  0.00     0.165 HD
ENDBRANCH   6   7
BRANCH   6  14
HETATM   14  C   UNL     1      43.335 -16.859   4.125  1.00  0.00    -0.013 A 
HETATM   15  C   UNL     1      43.443 -17.404   2.828  1.00  0.00     0.042 A 
HETATM   16 CL   UNL     1      43.001 -16.515   1.409  1.00  0.00    -0.084 Cl
HETATM   17  C   UNL     1      43.920 -18.704   2.627  1.00  0.00     0.024 A 
HETATM   18  C   UNL     1      44.303 -19.487   3.711  1.00  0.00     0.002 A 
HETATM   19  C   UNL     1      44.220 -18.966   4.998  1.00  0.00     0.001 A 
HETATM   20  C   UNL     1      43.750 -17.666   5.202  1.00  0.00     0.011 A 
ENDBRANCH   6  14
ENDBRANCH   5   6
ENDBRANCH   2   5
BRANCH   1  21
HETATM   21  N   UNL     1      44.534 -13.419   8.258  1.00  0.00    -0.266 N 
HETATM   22  C   UNL     1      45.622 -12.574   8.423  1.00  0.00     0.260 C 
HETATM   23  O   UNL     1      46.609 -12.589   7.683  1.00  0.00    -0.269 OA
HETATM   24  H   UNL     1      43.652 -13.188   8.712  1.00  0.00     0.190 HD
BRANCH  22  25
HETATM   25  C   UNL     1      45.449 -11.590   9.576  1.00  0.00     0.280 C 
BRANCH  25  26
HETATM   26  O   UNL     1      44.275 -11.952  10.299  1.00  0.00    -0.342 OA
BRANCH  26  27
HETATM   27  C   UNL     1      43.589 -10.959  10.937  1.00  0.00     0.069 A 
HETATM   28  C   UNL     1      43.733 -10.589  12.275  1.00  0.00     0.043 A 
HETATM   29  C   UNL     1      42.978  -9.528  12.803  1.00  0.00    -0.059 A 
HETATM   30  C   UNL     1      43.162  -9.087  14.225  1.00  0.00     0.048 C 
HETATM   31  C   UNL     1      42.090  -8.834  11.971  1.00  0.00     0.007 A 
HETATM   32  C   UNL     1      41.945  -9.202  10.636  1.00  0.00     0.003 A 
HETATM   33  C   UNL     1      42.696 -10.259  10.123  1.00  0.00     0.037 A 
ENDBRANCH  26  27
ENDBRANCH  25  26
ENDBRANCH  22  25
ENDBRANCH   1  21
TORSDOF 8
ENDMDL
MODEL 6
REMARK VINA RESULT:      -8.1      2.057      3.766
REMARK  8 active torsions:
REMARK  status: ('A' for Active; 'I' for Inactive)
REMARK    1  A    between atoms: C_4  and  O_5 
REMARK    2  A    between atoms: O_5  and  C_6 
REMARK    3  A    between atoms: C_6  and  C_7 
REMARK       I    between atoms: C_7  and  N_8 
REMARK    4  A    between atoms: N_8  and  N_9 
REMARK       I    between atoms: N_9  and  C_10 
REMARK    5  A    between atoms: C_10  and  C_11 
REMARK    6  A    between atoms: C_11  and  C_12 
REMARK    7  A    between atoms: C_12  and  N_13 
REMARK    8  A    between atoms: C_12  and  C_17 
REMARK       I    between atoms: N_13  and  C_14 
REMARK       I    between atoms: C_14  and  N_15 
ROOT
HETATM    1  N   UNL     1      40.925 -13.349   6.248  1.00  0.00    -0.267 N 
HETATM    2  C   UNL     1      41.503 -13.537   5.003  1.00  0.00     0.238 C 
HETATM    3  O   UNL     1      42.020 -12.634   4.350  1.00  0.00    -0.272 OA
HETATM    4  H   UNL     1      40.734 -14.158   6.836  1.00  0.00     0.190 HD
ENDROOT
BRANCH   2   5
HETATM    5  C   UNL     1      41.452 -14.972   4.534  1.00  0.00     0.134 C 
BRANCH   5   6
HETATM    6  C   UNL     1      42.697 -15.778   4.947  1.00  0.00     0.130 C 
BRANCH   6   7
HETATM    7  N   UNL     1      43.770 -14.934   5.479  1.00  0.00    -0.334 N 
HETATM    8  C   UNL     1      44.211 -15.075   6.759  1.00  0.00     0.314 C 
HETATM    9  N   UNL     1      45.122 -14.133   7.096  1.00  0.00    -0.352 N 
HETATM   10  O   UNL     1      43.807 -15.902   7.561  1.00  0.00    -0.248 OA
HETATM   11  H   UNL     1      45.721 -13.779   6.362  1.00  0.00     0.160 HD
HETATM   12  H   UNL     1      45.570 -14.285   7.991  1.00  0.00     0.160 HD
HETATM   13  H   UNL     1      43.882 -13.997   5.095  1.00  0.00     0.165 HD
ENDBRANCH   6   7
BRANCH   6  14
HETATM   14  C   UNL     1      43.170 -16.736   3.858  1.00  0.00    -0.013 A 
HETATM   15  C   UNL     1      43.351 -18.111   4.123  1.00  0.00     0.042 A 
HETATM   16 CL   UNL     1      43.039 -18.804   5.679  1.00  0.00    -0.084 Cl
HETATM   17  C   UNL     1      43.795 -18.987   3.126  1.00  0.00     0.024 A 
HETATM   18  C   UNL     1      44.065 -18.515   1.846  1.00  0.00     0.002 A 
HETATM   19  C   UNL     1      43.880 -17.168   1.557  1.00  0.00     0.001 A 
HETATM   20  C   UNL     1      43.430 -16.290   2.548  1.00  0.00     0.011 A 
ENDBRANCH   6  14
ENDBRANCH   5   6
ENDBRANCH   2   5
BRANCH   1  21
HETATM   21  N   UNL     1      41.221 -12.166   6.931  1.00  0.00    -0.266 N 
HETATM   22  C   UNL     1      40.178 -11.318   7.276  1.00  0.00     0.260 C 
HETATM   23  O   UNL     1      39.021 -11.473   6.877  1.00  0.00    -0.269 OA
HETATM   24  H   UNL     1      42.075 -12.156   7.488  1.00  0.00     0.190 HD
BRANCH  22  25
HETATM   25  C   UNL     1      40.597 -10.210   8.238  1.00  0.00     0.280 C 
BRANCH  25  26
HETATM   26  O   UNL     1      40.656 -10.760   9.552  1.00  0.00    -0.342 OA
BRANCH  26  27
HETATM   27  C   UNL     1      41.840 -10.675  10.226  1.00  0.00     0.069 A 
HETATM   28  C   UNL     1      43.111 -10.878   9.685  1.00  0.00     0.043 A 
HETATM   29  C   UNL     1      44.255 -10.734  10.488  1.00  0.00    -0.059 A 
HETATM   30  C   UNL     1      45.628 -10.900   9.907  1.00  0.00     0.048 C 
HETATM   31  C   UNL     1      44.110 -10.370  11.833  1.00  0.00     0.007 A 
HETATM   32  C   UNL     1      42.843 -10.167  12.375  1.00  0.00     0.003 A 
HETATM   33  C   UNL     1      41.714 -10.316  11.570  1.00  0.00     0.037 A 
ENDBRANCH  26  27
ENDBRANCH  25  26
ENDBRANCH  22  25
ENDBRANCH   1  21
TORSDOF 8
ENDMDL
MODEL 7
REMARK VINA RESULT:      -8.0      2.115      2.854
REMARK  8 active torsions:
REMARK  status: ('A' for Active; 'I' for Inactive)
REMARK    1  A    between atoms: C_4  and  O_5 
REMARK    2  A    between atoms: O_5  and  C_6 
REMARK    3  A    between atoms: C_6  and  C_7 
REMARK       I    between atoms: C_7  and  N_8 
REMARK    4  A    between atoms: N_8  and  N_9 
REMARK       I    between atoms: N_9  and  C_10 
REMARK    5  A    between atoms: C_10  and  C_11 
REMARK    6  A    between atoms: C_11  and  C_12 
REMARK    7  A    between atoms: C_12  and  N_13 
REMARK    8  A    between atoms: C_12  and  C_17 
REMARK       I    between atoms: N_13  and  C_14 
REMARK       I    between atoms: C_14  and  N_15 
ROOT
HETATM    1  N   UNL     1      44.539 -14.433   6.966  1.00  0.00    -0.267 N 
HETATM    2  C   UNL     1      44.277 -15.758   7.274  1.00  0.00     0.238 C 
HETATM    3  O   UNL     1      43.688 -16.116   8.291  1.00  0.00    -0.272 OA
HETATM    4  H   UNL     1      44.807 -14.186   6.015  1.00  0.00     0.190 HD
ENDROOT
BRANCH   2   5
HETATM    5  C   UNL     1      44.773 -16.722   6.222  1.00  0.00     0.134 C 
BRANCH   5   6
HETATM    6  C   UNL     1      43.627 -17.381   5.432  1.00  0.00     0.130 C 
BRANCH   6   7
HETATM    7  N   UNL     1      42.346 -17.329   6.139  1.00  0.00    -0.334 N 
HETATM    8  C   UNL     1      41.229 -16.830   5.542  1.00  0.00     0.314 C 
HETATM    9  N   UNL     1      40.178 -16.762   6.392  1.00  0.00    -0.352 N 
HETATM   10  O   UNL     1      41.161 -16.421   4.395  1.00  0.00    -0.248 OA
HETATM   11  H   UNL     1      40.124 -17.456   7.125  1.00  0.00     0.160 HD
HETATM   12  H   UNL     1      39.298 -16.524   5.951  1.00  0.00     0.160 HD
HETATM   13  H   UNL     1      42.358 -17.238   7.154  1.00  0.00     0.165 HD
ENDBRANCH   6   7
BRANCH   6  14
HETATM   14  C   UNL     1      43.981 -18.778   4.931  1.00  0.00    -0.013 A 
HETATM   15  C   UNL     1      44.103 -19.865   5.823  1.00  0.00     0.042 A 
HETATM   16 CL   UNL     1      43.848 -19.698   7.528  1.00  0.00    -0.084 Cl
HETATM   17  C   UNL     1      44.438 -21.143   5.364  1.00  0.00     0.024 A 
HETATM   18  C   UNL     1      44.656 -21.368   4.008  1.00  0.00     0.002 A 
HETATM   19  C   UNL     1      44.526 -20.317   3.108  1.00  0.00     0.001 A 
HETATM   20  C   UNL     1      44.185 -19.039   3.562  1.00  0.00     0.011 A 
ENDBRANCH   6  14
ENDBRANCH   5   6
ENDBRANCH   2   5
BRANCH   1  21
HETATM   21  N   UNL     1      43.832 -13.450   7.665  1.00  0.00    -0.266 N 
HETATM   22  C   UNL     1      44.507 -12.695   8.614  1.00  0.00     0.260 C 
HETATM   23  O   UNL     1      45.655 -12.945   8.986  1.00  0.00    -0.269 OA
HETATM   24  H   UNL     1      43.014 -13.054   7.204  1.00  0.00     0.190 HD
BRANCH  22  25
HETATM   25  C   UNL     1      43.703 -11.494   9.108  1.00  0.00     0.280 C 
BRANCH  25  26
HETATM   26  O   UNL     1      43.719 -11.503  10.533  1.00  0.00    -0.342 OA
BRANCH  26  27
HETATM   27  C   UNL     1      43.230 -10.406  11.182  1.00  0.00     0.069 A 
HETATM   28  C   UNL     1      42.351  -9.460  10.652  1.00  0.00     0.043 A 
HETATM   29  C   UNL     1      41.904  -8.386  11.440  1.00  0.00    -0.059 A 
HETATM   30  C   UNL     1      40.920  -7.393  10.899  1.00  0.00     0.048 C 
HETATM   31  C   UNL     1      42.338  -8.281  12.768  1.00  0.00     0.007 A 
HETATM   32  C   UNL     1      43.215  -9.223  13.299  1.00  0.00     0.003 A 
HETATM   33  C   UNL     1      43.655 -10.283  12.507  1.00  0.00     0.037 A 
ENDBRANCH  26  27
ENDBRANCH  25  26
ENDBRANCH  22  25
ENDBRANCH   1  21
TORSDOF 8
ENDMDL
MODEL 8
REMARK VINA RESULT:      -8.0      6.636      9.057
REMARK  8 active torsions:
REMARK  status: ('A' for Active; 'I' for Inactive)
REMARK    1  A    between atoms: C_4  and  O_5 
REMARK    2  A    between atoms: O_5  and  C_6 
REMARK    3  A    between atoms: C_6  and  C_7 
REMARK       I    between atoms: C_7  and  N_8 
REMARK    4  A    between atoms: N_8  and  N_9 
REMARK       I    between atoms: N_9  and  C_10 
REMARK    5  A    between atoms: C_10  and  C_11 
REMARK    6  A    between atoms: C_11  and  C_12 
REMARK    7  A    between atoms: C_12  and  N_13 
REMARK    8  A    between atoms: C_12  and  C_17 
REMARK       I    between atoms: N_13  and  C_14 
REMARK       I    between atoms: C_14  and  N_15 
ROOT
HETATM    1  N   UNL     1      39.696 -16.186   1.851  1.00  0.00    -0.267 N 
HETATM    2  C   UNL     1      39.455 -14.887   2.269  1.00  0.00     0.238 C 
HETATM    3  O   UNL     1      39.565 -14.517   3.435  1.00  0.00    -0.272 OA
HETATM    4  H   UNL     1      39.823 -16.374   0.858  1.00  0.00     0.190 HD
ENDROOT
BRANCH   2   5
HETATM    5  C   UNL     1      39.063 -13.962   1.141  1.00  0.00     0.134 C 
BRANCH   5   6
HETATM    6  C   UNL     1      40.215 -13.708   0.151  1.00  0.00     0.130 C 
BRANCH   6   7
HETATM    7  N   UNL     1      40.629 -12.304   0.110  1.00  0.00    -0.334 N 
HETATM    8  C   UNL     1      41.725 -11.870   0.791  1.00  0.00     0.314 C 
HETATM    9  N   UNL     1      41.877 -10.527   0.720  1.00  0.00    -0.352 N 
HETATM   10  O   UNL     1      42.471 -12.572   1.454  1.00  0.00    -0.248 OA
HETATM   11  H   UNL     1      41.554 -10.064  -0.119  1.00  0.00     0.160 HD
HETATM   12  H   UNL     1      42.750 -10.184   1.100  1.00  0.00     0.160 HD
HETATM   13  H   UNL     1      39.913 -11.594  -0.034  1.00  0.00     0.165 HD
ENDBRANCH   6   7
BRANCH   6  14
HETATM   14  C   UNL     1      39.949 -14.298  -1.231  1.00  0.00    -0.013 A 
HETATM   15  C   UNL     1      38.849 -13.874  -2.006  1.00  0.00     0.042 A 
HETATM   16 CL   UNL     1      37.743 -12.659  -1.459  1.00  0.00    -0.084 Cl
HETATM   17  C   UNL     1      38.600 -14.423  -3.268  1.00  0.00     0.024 A 
HETATM   18  C   UNL     1      39.441 -15.402  -3.788  1.00  0.00     0.002 A 
HETATM   19  C   UNL     1      40.540 -15.824  -3.049  1.00  0.00     0.001 A 
HETATM   20  C   UNL     1      40.797 -15.274  -1.789  1.00  0.00     0.011 A 
ENDBRANCH   6  14
ENDBRANCH   5   6
ENDBRANCH   2   5
BRANCH   1  21
HETATM   21  N   UNL     1      40.396 -17.030   2.718  1.00  0.00    -0.266 N 
HETATM   22  C   UNL     1      41.783 -17.033   2.666  1.00  0.00     0.260 C 
HETATM   23  O   UNL     1      42.428 -16.449   1.793  1.00  0.00    -0.269 OA
HETATM   24  H   UNL     1      39.930 -17.289   3.586  1.00  0.00     0.190 HD
BRANCH  22  25
HETATM   25  C   UNL     1      42.425 -17.786   3.828  1.00  0.00     0.280 C 
BRANCH  25  26
HETATM   26  O   UNL     1      43.742 -18.167   3.439  1.00  0.00    -0.342 OA
BRANCH  26  27
HETATM   27  C   UNL     1      44.015 -19.501   3.337  1.00  0.00     0.069 A 
HETATM   28  C   UNL     1      44.540 -20.313   4.344  1.00  0.00     0.043 A 
HETATM   29  C   UNL     1      44.751 -21.683   4.114  1.00  0.00    -0.059 A 
HETATM   30  C   UNL     1      45.266 -22.575   5.205  1.00  0.00     0.048 C 
HETATM   31  C   UNL     1      44.415 -22.231   2.869  1.00  0.00     0.007 A 
HETATM   32  C   UNL     1      43.892 -21.423   1.863  1.00  0.00     0.003 A 
HETATM   33  C   UNL     1      43.690 -20.063   2.101  1.00  0.00     0.037 A 
ENDBRANCH  26  27
ENDBRANCH  25  26
ENDBRANCH  22  25
ENDBRANCH   1  21
TORSDOF 8
ENDMDL
MODEL 9
REMARK VINA RESULT:      -8.0      4.447      8.165
REMARK  8 active torsions:
REMARK  status: ('A' for Active; 'I' for Inactive)
REMARK    1  A    between atoms: C_4  and  O_5 
REMARK    2  A    between atoms: O_5  and  C_6 
REMARK    3  A    between atoms: C_6  and  C_7 
REMARK       I    between atoms: C_7  and  N_8 
REMARK    4  A    between atoms: N_8  and  N_9 
REMARK       I    between atoms: N_9  and  C_10 
REMARK    5  A    between atoms: C_10  and  C_11 
REMARK    6  A    between atoms: C_11  and  C_12 
REMARK    7  A    between atoms: C_12  and  N_13 
REMARK    8  A    between atoms: C_12  and  C_17 
REMARK       I    between atoms: N_13  and  C_14 
REMARK       I    between atoms: C_14  and  N_15 
ROOT
HETATM    1  N   UNL     1      41.431 -15.541   2.904  1.00  0.00    -0.267 N 
HETATM    2  C   UNL     1      41.111 -15.795   4.228  1.00  0.00     0.238 C 
HETATM    3  O   UNL     1      40.816 -14.918   5.036  1.00  0.00    -0.272 OA
HETATM    4  H   UNL     1      41.429 -16.310   2.235  1.00  0.00     0.190 HD
ENDROOT
BRANCH   2   5
HETATM    5  C   UNL     1      41.141 -17.264   4.576  1.00  0.00     0.134 C 
BRANCH   5   6
HETATM    6  C   UNL     1      42.428 -17.674   5.317  1.00  0.00     0.130 C 
BRANCH   6   7
HETATM    7  N   UNL     1      43.181 -16.525   5.826  1.00  0.00    -0.334 N 
HETATM    8  C   UNL     1      43.363 -16.335   7.161  1.00  0.00     0.314 C 
HETATM    9  N   UNL     1      43.983 -15.164   7.435  1.00  0.00    -0.352 N 
HETATM   10  O   UNL     1      42.969 -17.080   8.044  1.00  0.00    -0.248 OA
HETATM   11  H   UNL     1      44.642 -14.814   6.753  1.00  0.00     0.160 HD
HETATM   12  H   UNL     1      44.255 -15.051   8.403  1.00  0.00     0.160 HD
HETATM   13  H   UNL     1      43.187 -15.669   5.273  1.00  0.00     0.165 HD
ENDBRANCH   6   7
BRANCH   6  14
HETATM   14  C   UNL     1      43.286 -18.649   4.517  1.00  0.00    -0.013 A 
HETATM   15  C   UNL     1      43.981 -19.700   5.153  1.00  0.00     0.042 A 
HETATM   16 CL   UNL     1      43.899 -19.967   6.862  1.00  0.00    -0.084 Cl
HETATM   17  C   UNL     1      44.777 -20.588   4.419  1.00  0.00     0.024 A 
HETATM   18  C   UNL     1      44.896 -20.450   3.040  1.00  0.00     0.002 A 
HETATM   19  C   UNL     1      44.208 -19.431   2.390  1.00  0.00     0.001 A 
HETATM   20  C   UNL     1      43.407 -18.546   3.118  1.00  0.00     0.011 A 
ENDBRANCH   6  14
ENDBRANCH   5   6
ENDBRANCH   2   5
BRANCH   1  21
HETATM   21  N   UNL     1      41.096 -14.289   2.381  1.00  0.00    -0.266 N 
HETATM   22  C   UNL     1      42.099 -13.340   2.235  1.00  0.00     0.260 C 
HETATM   23  O   UNL     1      43.238 -13.486   2.683  1.00  0.00    -0.269 OA
HETATM   24  H   UNL     1      40.278 -14.245   1.776  1.00  0.00     0.190 HD
BRANCH  22  25
HETATM   25  C   UNL     1      41.663 -12.127   1.418  1.00  0.00     0.280 C 
BRANCH  25  26
HETATM   26  O   UNL     1      42.725 -11.782   0.531  1.00  0.00    -0.342 OA
BRANCH  26  27
HETATM   27  C   UNL     1      42.521 -11.962  -0.806  1.00  0.00     0.069 A 
HETATM   28  C   UNL     1      42.014 -13.110  -1.415  1.00  0.00     0.043 A 
HETATM   29  C   UNL     1      41.830 -13.154  -2.807  1.00  0.00    -0.059 A 
HETATM   30  C   UNL     1      41.238 -14.364  -3.467  1.00  0.00     0.048 C 
HETATM   31  C   UNL     1      42.146 -12.028  -3.579  1.00  0.00     0.007 A 
HETATM   32  C   UNL     1      42.653 -10.881  -2.974  1.00  0.00     0.003 A 
HETATM   33  C   UNL     1      42.835 -10.849  -1.591  1.00  0.00     0.037 A 
ENDBRANCH  26  27
ENDBRANCH  25  26
ENDBRANCH  22  25
ENDBRANCH   1  21
TORSDOF 8
ENDMDL
MODEL 10
REMARK VINA RESULT:      -7.9      2.195      3.067
REMARK  8 active torsions:
REMARK  status: ('A' for Active; 'I' for Inactive)
REMARK    1  A    between atoms: C_4  and  O_5 
REMARK    2  A    between atoms: O_5  and  C_6 
REMARK    3  A    between atoms: C_6  and  C_7 
REMARK       I    between atoms: C_7  and  N_8 
REMARK    4  A    between atoms: N_8  and  N_9 
REMARK       I    between atoms: N_9  and  C_10 
REMARK    5  A    between atoms: C_10  and  C_11 
REMARK    6  A    between atoms: C_11  and  C_12 
REMARK    7  A    between atoms: C_12  and  N_13 
REMARK    8  A    between atoms: C_12  and  C_17 
REMARK       I    between atoms: N_13  and  C_14 
REMARK       I    between atoms: C_14  and  N_15 
ROOT
HETATM    1  N   UNL     1      41.724 -14.019   6.092  1.00  0.00    -0.267 N 
HETATM    2  C   UNL     1      42.697 -14.859   5.574  1.00  0.00     0.238 C 
HETATM    3  O   UNL     1      43.821 -14.480   5.254  1.00  0.00    -0.272 OA
HETATM    4  H   UNL     1      40.913 -14.423   6.557  1.00  0.00     0.190 HD
ENDROOT
BRANCH   2   5
HETATM    5  C   UNL     1      42.244 -16.295   5.461  1.00  0.00     0.134 C 
BRANCH   5   6
HETATM    6  C   UNL     1      42.374 -16.849   4.030  1.00  0.00     0.130 C 
BRANCH   6   7
HETATM    7  N   UNL     1      41.081 -16.989   3.356  1.00  0.00    -0.334 N 
HETATM    8  C   UNL     1      40.593 -16.005   2.552  1.00  0.00     0.314 C 
HETATM    9  N   UNL     1      39.340 -16.273   2.114  1.00  0.00    -0.352 N 
HETATM   10  O   UNL     1      41.162 -14.959   2.286  1.00  0.00    -0.248 OA
HETATM   11  H   UNL     1      39.089 -17.243   1.980  1.00  0.00     0.160 HD
HETATM   12  H   UNL     1      38.997 -15.631   1.410  1.00  0.00     0.160 HD
HETATM   13  H   UNL     1      40.367 -17.567   3.797  1.00  0.00     0.165 HD
ENDBRANCH   6   7
BRANCH   6  14
HETATM   14  C   UNL     1      43.229 -18.110   3.959  1.00  0.00    -0.013 A 
HETATM   15  C   UNL     1      43.742 -18.575   2.729  1.00  0.00     0.042 A 
HETATM   16 CL   UNL     1      43.455 -17.751   1.233  1.00  0.00    -0.084 Cl
HETATM   17  C   UNL     1      44.518 -19.737   2.663  1.00  0.00     0.024 A 
HETATM   18  C   UNL     1      44.802 -20.459   3.818  1.00  0.00     0.002 A 
HETATM   19  C   UNL     1      44.321 -20.012   5.042  1.00  0.00     0.001 A 
HETATM   20  C   UNL     1      43.550 -18.848   5.114  1.00  0.00     0.011 A 
ENDBRANCH   6  14
ENDBRANCH   5   6
ENDBRANCH   2   5
BRANCH   1  21
HETATM   21  N   UNL     1      42.129 -12.769   6.570  1.00  0.00    -0.266 N 
HETATM   22  C   UNL     1      41.201 -11.738   6.604  1.00  0.00     0.260 C 
HETATM   23  O   UNL     1      40.081 -11.819   6.094  1.00  0.00    -0.269 OA
HETATM   24  H   UNL     1      42.912 -12.756   7.222  1.00  0.00     0.190 HD
BRANCH  22  25
HETATM   25  C   UNL     1      41.686 -10.519   7.384  1.00  0.00     0.280 C 
BRANCH  25  26
HETATM   26  O   UNL     1      41.256 -10.655   8.736  1.00  0.00    -0.342 OA
BRANCH  26  27
HETATM   27  C   UNL     1      42.206 -10.593   9.715  1.00  0.00     0.069 A 
HETATM   28  C   UNL     1      43.511 -11.079   9.628  1.00  0.00     0.043 A 
HETATM   29  C   UNL     1      44.399 -10.928  10.706  1.00  0.00    -0.059 A 
HETATM   30  C   UNL     1      45.819 -11.401  10.605  1.00  0.00     0.048 C 
HETATM   31  C   UNL     1      43.967 -10.271  11.866  1.00  0.00     0.007 A 
HETATM   32  C   UNL     1      42.665  -9.785  11.956  1.00  0.00     0.003 A 
HETATM   33  C   UNL     1      41.791  -9.944  10.881  1.00  0.00     0.037 A 
ENDBRANCH  26  27
ENDBRANCH  25  26
ENDBRANCH  22  25
ENDBRANCH   1  21
TORSDOF 8
ENDMDL
