MODEL 1
REMARK VINA RESULT:      -8.4      0.000      0.000
REMARK  7 active torsions:
REMARK  status: ('A' for Active; 'I' for Inactive)
REMARK    1  A    between atoms: C_5  and  O_6 
REMARK    2  A    between atoms: O_6  and  C_7 
REMARK    3  A    between atoms: C_7  and  C_8 
REMARK       I    between atoms: C_8  and  N_9 
REMARK    4  A    between atoms: N_9  and  N_10 
REMARK       I    between atoms: N_10  and  C_11 
REMARK    5  A    between atoms: C_11  and  C_12 
REMARK    6  A    between atoms: C_14  and  C_15 
REMARK    7  A    between atoms: C_22  and  C_23 
ROOT
HETATM    1  N   UNL     1      42.015 -13.637   3.090  1.00  0.00    -0.262 N 
HETATM    2  C   UNL     1      43.260 -14.243   3.023  1.00  0.00     0.291 C 
HETATM    3  O   UNL     1      44.313 -13.693   3.323  1.00  0.00    -0.264 OA
HETATM    4  H   UNL     1      41.187 -14.212   2.942  1.00  0.00     0.190 HD
ENDROOT
BRANCH   2   5
HETATM    5  C   UNL     1      43.172 -15.602   2.517  1.00  0.00     0.159 A 
HETATM    6  N   UNL     1      43.591 -16.704   3.255  1.00  0.00    -0.216 NA
HETATM    7  C   UNL     1      43.384 -17.726   2.443  1.00  0.00     0.180 A 
HETATM    8  O   UNL     1      42.784 -17.387   1.260  1.00  0.00    -0.293 OA
HETATM    9  C   UNL     1      42.640 -16.027   1.317  1.00  0.00     0.094 A 
BRANCH   7  10
HETATM   10  C   UNL     1      43.718 -19.137   2.630  1.00  0.00     0.017 A 
HETATM   11  C   UNL     1      44.452 -19.534   3.759  1.00  0.00     0.016 A 
HETATM   12  C   UNL     1      44.808 -20.872   3.949  1.00  0.00     0.001 A 
HETATM   13  C   UNL     1      44.431 -21.833   3.013  1.00  0.00     0.000 A 
HETATM   14  C   UNL     1      43.699 -21.457   1.888  1.00  0.00     0.001 A 
HETATM   15  C   UNL     1      43.345 -20.118   1.698  1.00  0.00     0.016 A 
ENDBRANCH   7  10
BRANCH   9  16
HETATM   16  C   UNL     1      41.960 -15.188   0.251  1.00  0.00     0.046 A 
HETATM   17  C   UNL     1      41.133 -15.896  -0.800  1.00  0.00     0.012 A 
HETATM   18  C   UNL     1      40.446 -15.127   0.274  1.00  0.00     0.012 A 
ENDBRANCH   9  16
ENDBRANCH   2   5
BRANCH   1  19
HETATM   19  N   UNL     1      41.858 -12.356   3.613  1.00  0.00    -0.265 N 
HETATM   20  C   UNL     1      41.653 -12.065   4.941  1.00  0.00     0.260 C 
HETATM   21  O   UNL     1      41.602 -10.881   5.287  1.00  0.00    -0.269 OA
HETATM   22  H   UNL     1      41.867 -11.570   2.970  1.00  0.00     0.190 HD
BRANCH  20  23
HETATM   23  C   UNL     1      41.490 -13.205   5.945  1.00  0.00     0.280 C 
BRANCH  23  24
HETATM   24  O   UNL     1      42.787 -13.741   6.180  1.00  0.00    -0.342 OA
BRANCH  24  25
HETATM   25  C   UNL     1      42.893 -15.083   6.403  1.00  0.00     0.069 A 
HETATM   26  C   UNL     1      44.186 -15.524   6.691  1.00  0.00     0.037 A 
HETATM   27  C   UNL     1      44.442 -16.872   6.943  1.00  0.00     0.009 A 
HETATM   28  C   UNL     1      43.403 -17.806   6.895  1.00  0.00    -0.062 A 
HETATM   29  C   UNL     1      43.668 -19.250   7.201  1.00  0.00     0.048 C 
HETATM   30  C   UNL     1      42.107 -17.362   6.609  1.00  0.00     0.009 A 
HETATM   31  C   UNL     1      41.853 -16.008   6.352  1.00  0.00     0.037 A 
ENDBRANCH  24  25
ENDBRANCH  23  24
ENDBRANCH  20  23
ENDBRANCH   1  19
TORSDOF 7
ENDMDL
MODEL 2
REMARK VINA RESULT:      -8.3      2.518      7.165
REMARK  7 active torsions:
REMARK  status: ('A' for Active; 'I' for Inactive)
REMARK    1  A    between atoms: C_5  and  O_6 
REMARK    2  A    between atoms: O_6  and  C_7 
REMARK    3  A    between atoms: C_7  and  C_8 
REMARK       I    between atoms: C_8  and  N_9 
REMARK    4  A    between atoms: N_9  and  N_10 
REMARK       I    between atoms: N_10  and  C_11 
REMARK    5  A    between atoms: C_11  and  C_12 
REMARK    6  A    between atoms: C_14  and  C_15 
REMARK    7  A    between atoms: C_22  and  C_23 
ROOT
HETATM    1  N   UNL     1      42.848 -15.178   3.433  1.00  0.00    -0.262 N 
HETATM    2  C   UNL     1      42.189 -15.253   4.650  1.00  0.00     0.291 C 
HETATM    3  O   UNL     1      40.994 -15.489   4.777  1.00  0.00    -0.264 OA
HETATM    4  H   UNL     1      43.864 -15.102   3.434  1.00  0.00     0.190 HD
ENDROOT
BRANCH   2   5
HETATM    5  C   UNL     1      43.083 -14.978   5.763  1.00  0.00     0.159 A 
HETATM    6  N   UNL     1      43.328 -13.690   6.226  1.00  0.00    -0.216 NA
HETATM    7  C   UNL     1      44.205 -13.864   7.199  1.00  0.00     0.180 A 
HETATM    8  O   UNL     1      44.490 -15.177   7.465  1.00  0.00    -0.293 OA
HETATM    9  C   UNL     1      43.761 -15.887   6.550  1.00  0.00     0.094 A 
BRANCH   7  10
HETATM   10  C   UNL     1      44.906 -12.864   8.001  1.00  0.00     0.017 A 
HETATM   11  C   UNL     1      46.233 -12.529   7.688  1.00  0.00     0.016 A 
HETATM   12  C   UNL     1      46.937 -11.595   8.454  1.00  0.00     0.001 A 
HETATM   13  C   UNL     1      46.321 -10.981   9.542  1.00  0.00     0.000 A 
HETATM   14  C   UNL     1      45.003 -11.299   9.865  1.00  0.00     0.001 A 
HETATM   15  C   UNL     1      44.301 -12.234   9.099  1.00  0.00     0.016 A 
ENDBRANCH   7  10
BRANCH   9  16
HETATM   16  C   UNL     1      43.698 -17.401   6.488  1.00  0.00     0.046 A 
HETATM   17  C   UNL     1      44.825 -18.193   7.116  1.00  0.00     0.012 A 
HETATM   18  C   UNL     1      43.500 -18.144   7.795  1.00  0.00     0.012 A 
ENDBRANCH   9  16
ENDBRANCH   2   5
BRANCH   1  19
HETATM   19  N   UNL     1      42.198 -15.473   2.237  1.00  0.00    -0.265 N 
HETATM   20  C   UNL     1      42.582 -16.453   1.350  1.00  0.00     0.260 C 
HETATM   21  O   UNL     1      41.878 -16.664   0.359  1.00  0.00    -0.269 OA
HETATM   22  H   UNL     1      41.394 -14.912   1.974  1.00  0.00     0.190 HD
BRANCH  20  23
HETATM   23  C   UNL     1      43.863 -17.244   1.612  1.00  0.00     0.280 C 
BRANCH  23  24
HETATM   24  O   UNL     1      43.583 -18.604   1.299  1.00  0.00    -0.342 OA
BRANCH  24  25
HETATM   25  C   UNL     1      43.934 -19.555   2.213  1.00  0.00     0.069 A 
HETATM   26  C   UNL     1      43.895 -20.864   1.732  1.00  0.00     0.037 A 
HETATM   27  C   UNL     1      44.232 -21.939   2.556  1.00  0.00     0.009 A 
HETATM   28  C   UNL     1      44.598 -21.716   3.887  1.00  0.00    -0.062 A 
HETATM   29  C   UNL     1      44.995 -22.865   4.765  1.00  0.00     0.048 C 
HETATM   30  C   UNL     1      44.639 -20.402   4.367  1.00  0.00     0.009 A 
HETATM   31  C   UNL     1      44.296 -19.325   3.538  1.00  0.00     0.037 A 
ENDBRANCH  24  25
ENDBRANCH  23  24
ENDBRANCH  20  23
ENDBRANCH   1  19
TORSDOF 7
ENDMDL
MODEL 3
REMARK VINA RESULT:      -8.2      3.414      6.708
REMARK  7 active torsions:
REMARK  status: ('A' for Active; 'I' for Inactive)
REMARK    1  A    between atoms: C_5  and  O_6 
REMARK    2  A    between atoms: O_6  and  C_7 
REMARK    3  A    between atoms: C_7  and  C_8 
REMARK       I    between atoms: C_8  and  N_9 
REMARK    4  A    between atoms: N_9  and  N_10 
REMARK       I    between atoms: N_10  and  C_11 
REMARK    5  A    between atoms: C_11  and  C_12 
REMARK    6  A    between atoms: C_14  and  C_15 
REMARK    7  A    between atoms: C_22  and  C_23 
ROOT
HETATM    1  N   UNL     1      40.461 -15.354   0.231  1.00  0.00    -0.262 N 
HETATM    2  C   UNL     1      40.171 -15.710   1.539  1.00  0.00     0.291 C 
HETATM    3  O   UNL     1      39.134 -15.416   2.122  1.00  0.00    -0.264 OA
HETATM    4  H   UNL     1      41.291 -15.750  -0.207  1.00  0.00     0.190 HD
ENDROOT
BRANCH   2   5
HETATM    5  C   UNL     1      41.264 -16.445   2.153  1.00  0.00     0.159 A 
HETATM    6  N   UNL     1      41.607 -17.737   1.768  1.00  0.00    -0.216 NA
HETATM    7  C   UNL     1      42.602 -18.055   2.577  1.00  0.00     0.180 A 
HETATM    8  O   UNL     1      42.993 -17.039   3.407  1.00  0.00    -0.293 OA
HETATM    9  C   UNL     1      42.140 -16.007   3.125  1.00  0.00     0.094 A 
BRANCH   7  10
HETATM   10  C   UNL     1      43.314 -19.324   2.710  1.00  0.00     0.017 A 
HETATM   11  C   UNL     1      43.134 -20.327   1.745  1.00  0.00     0.016 A 
HETATM   12  C   UNL     1      43.783 -21.560   1.861  1.00  0.00     0.001 A 
HETATM   13  C   UNL     1      44.623 -21.805   2.944  1.00  0.00     0.000 A 
HETATM   14  C   UNL     1      44.817 -20.819   3.910  1.00  0.00     0.001 A 
HETATM   15  C   UNL     1      44.167 -19.587   3.794  1.00  0.00     0.016 A 
ENDBRANCH   7  10
BRANCH   9  16
HETATM   16  C   UNL     1      42.220 -14.628   3.753  1.00  0.00     0.046 A 
HETATM   17  C   UNL     1      43.470 -14.261   4.523  1.00  0.00     0.012 A 
HETATM   18  C   UNL     1      43.236 -13.660   3.181  1.00  0.00     0.012 A 
ENDBRANCH   9  16
ENDBRANCH   2   5
BRANCH   1  19
HETATM   19  N   UNL     1      39.526 -14.703  -0.569  1.00  0.00    -0.265 N 
HETATM   20  C   UNL     1      39.726 -14.336  -1.880  1.00  0.00     0.260 C 
HETATM   21  O   UNL     1      38.789 -13.829  -2.503  1.00  0.00    -0.269 OA
HETATM   22  H   UNL     1      38.633 -14.449  -0.157  1.00  0.00     0.190 HD
BRANCH  20  23
HETATM   23  C   UNL     1      41.093 -14.562  -2.523  1.00  0.00     0.280 C 
BRANCH  23  24
HETATM   24  O   UNL     1      42.058 -13.948  -1.675  1.00  0.00    -0.342 OA
BRANCH  24  25
HETATM   25  C   UNL     1      42.317 -12.621  -1.858  1.00  0.00     0.069 A 
HETATM   26  C   UNL     1      42.462 -11.890  -0.678  1.00  0.00     0.037 A 
HETATM   27  C   UNL     1      42.733 -10.521  -0.713  1.00  0.00     0.009 A 
HETATM   28  C   UNL     1      42.845  -9.859  -1.939  1.00  0.00    -0.062 A 
HETATM   29  C   UNL     1      43.171  -8.395  -1.981  1.00  0.00     0.048 C 
HETATM   30  C   UNL     1      42.702 -10.594  -3.122  1.00  0.00     0.009 A 
HETATM   31  C   UNL     1      42.427 -11.967  -3.083  1.00  0.00     0.037 A 
ENDBRANCH  24  25
ENDBRANCH  23  24
ENDBRANCH  20  23
ENDBRANCH   1  19
TORSDOF 7
ENDMDL
MODEL 4
REMARK VINA RESULT:      -8.1      1.865      2.297
REMARK  7 active torsions:
REMARK  status: ('A' for Active; 'I' for Inactive)
REMARK    1  A    between atoms: C_5  and  O_6 
REMARK    2  A    between atoms: O_6  and  C_7 
REMARK    3  A    between atoms: C_7  and  C_8 
REMARK       I    between atoms: C_8  and  N_9 
REMARK    4  A    between atoms: N_9  and  N_10 
REMARK       I    between atoms: N_10  and  C_11 
REMARK    5  A    between atoms: C_11  and  C_12 
REMARK    6  A    between atoms: C_14  and  C_15 
REMARK    7  A    between atoms: C_22  and  C_23 
ROOT
HETATM    1  N   UNL     1      40.056 -13.803   2.746  1.00  0.00    -0.262 N 
HETATM    2  C   UNL     1      39.599 -14.920   2.063  1.00  0.00     0.291 C 
HETATM    3  O   UNL     1      38.424 -15.130   1.789  1.00  0.00    -0.264 OA
HETATM    4  H   UNL     1      41.062 -13.655   2.816  1.00  0.00     0.190 HD
ENDROOT
BRANCH   2   5
HETATM    5  C   UNL     1      40.682 -15.836   1.744  1.00  0.00     0.159 A 
HETATM    6  N   UNL     1      41.010 -16.918   2.554  1.00  0.00    -0.216 NA
HETATM    7  C   UNL     1      42.049 -17.463   1.947  1.00  0.00     0.180 A 
HETATM    8  O   UNL     1      42.375 -16.871   0.757  1.00  0.00    -0.293 OA
HETATM    9  C   UNL     1      41.490 -15.836   0.626  1.00  0.00     0.094 A 
BRANCH   7  10
HETATM   10  C   UNL     1      42.888 -18.581   2.376  1.00  0.00     0.017 A 
HETATM   11  C   UNL     1      43.603 -18.490   3.581  1.00  0.00     0.016 A 
HETATM   12  C   UNL     1      44.433 -19.533   4.003  1.00  0.00     0.001 A 
HETATM   13  C   UNL     1      44.557 -20.683   3.226  1.00  0.00     0.000 A 
HETATM   14  C   UNL     1      43.851 -20.791   2.029  1.00  0.00     0.001 A 
HETATM   15  C   UNL     1      43.023 -19.747   1.607  1.00  0.00     0.016 A 
ENDBRANCH   7  10
BRANCH   9  16
HETATM   16  C   UNL     1      41.414 -14.916  -0.579  1.00  0.00     0.046 A 
HETATM   17  C   UNL     1      41.136 -15.529  -1.934  1.00  0.00     0.012 A 
HETATM   18  C   UNL     1      40.063 -14.756  -1.248  1.00  0.00     0.012 A 
ENDBRANCH   9  16
ENDBRANCH   2   5
BRANCH   1  19
HETATM   19  N   UNL     1      39.198 -12.762   3.090  1.00  0.00    -0.265 N 
HETATM   20  C   UNL     1      39.113 -12.189   4.338  1.00  0.00     0.260 C 
HETATM   21  O   UNL     1      38.363 -11.222   4.496  1.00  0.00    -0.269 OA
HETATM   22  H   UNL     1      38.562 -12.407   2.383  1.00  0.00     0.190 HD
BRANCH  20  23
HETATM   23  C   UNL     1      39.941 -12.763   5.487  1.00  0.00     0.280 C 
BRANCH  23  24
HETATM   24  O   UNL     1      39.716 -14.168   5.501  1.00  0.00    -0.342 OA
BRANCH  24  25
HETATM   25  C   UNL     1      40.756 -14.978   5.854  1.00  0.00     0.069 A 
HETATM   26  C   UNL     1      42.011 -14.370   5.794  1.00  0.00     0.037 A 
HETATM   27  C   UNL     1      43.165 -15.079   6.131  1.00  0.00     0.009 A 
HETATM   28  C   UNL     1      43.079 -16.419   6.517  1.00  0.00    -0.062 A 
HETATM   29  C   UNL     1      44.314 -17.173   6.914  1.00  0.00     0.048 C 
HETATM   30  C   UNL     1      41.820 -17.026   6.579  1.00  0.00     0.009 A 
HETATM   31  C   UNL     1      40.663 -16.314   6.237  1.00  0.00     0.037 A 
ENDBRANCH  24  25
ENDBRANCH  23  24
ENDBRANCH  20  23
ENDBRANCH   1  19
TORSDOF 7
ENDMDL
MODEL 5
REMARK VINA RESULT:      -8.1      2.708      6.427
REMARK  7 active torsions:
REMARK  status: ('A' for Active; 'I' for Inactive)
REMARK    1  A    between atoms: C_5  and  O_6 
REMARK    2  A    between atoms: O_6  and  C_7 
REMARK    3  A    between atoms: C_7  and  C_8 
REMARK       I    between atoms: C_8  and  N_9 
REMARK    4  A    between atoms: N_9  and  N_10 
REMARK       I    between atoms: N_10  and  C_11 
REMARK    5  A    between atoms: C_11  and  C_12 
REMARK    6  A    between atoms: C_14  and  C_15 
REMARK    7  A    between atoms: C_22  and  C_23 
ROOT
HETATM    1  N   UNL     1      41.328 -14.389   3.002  1.00  0.00    -0.262 N 
HETATM    2  C   UNL     1      42.700 -14.502   3.161  1.00  0.00     0.291 C 
HETATM    3  O   UNL     1      43.502 -13.612   2.902  1.00  0.00    -0.264 OA
HETATM    4  H   UNL     1      40.734 -15.135   3.362  1.00  0.00     0.190 HD
ENDROOT
BRANCH   2   5
HETATM    5  C   UNL     1      43.081 -15.820   3.639  1.00  0.00     0.159 A 
HETATM    6  N   UNL     1      43.364 -16.875   2.778  1.00  0.00    -0.216 NA
HETATM    7  C   UNL     1      43.622 -17.886   3.589  1.00  0.00     0.180 A 
HETATM    8  O   UNL     1      43.610 -17.553   4.917  1.00  0.00    -0.293 OA
HETATM    9  C   UNL     1      43.273 -16.227   4.943  1.00  0.00     0.094 A 
BRANCH   7  10
HETATM   10  C   UNL     1      43.896 -19.284   3.264  1.00  0.00     0.017 A 
HETATM   11  C   UNL     1      43.453 -19.814   2.042  1.00  0.00     0.016 A 
HETATM   12  C   UNL     1      43.679 -21.155   1.717  1.00  0.00     0.001 A 
HETATM   13  C   UNL     1      44.354 -21.984   2.610  1.00  0.00     0.000 A 
HETATM   14  C   UNL     1      44.804 -21.474   3.827  1.00  0.00     0.001 A 
HETATM   15  C   UNL     1      44.576 -20.133   4.151  1.00  0.00     0.016 A 
ENDBRANCH   7  10
BRANCH   9  16
HETATM   16  C   UNL     1      43.195 -15.383   6.202  1.00  0.00     0.046 A 
HETATM   17  C   UNL     1      43.984 -15.828   7.415  1.00  0.00     0.012 A 
HETATM   18  C   UNL     1      44.452 -14.652   6.630  1.00  0.00     0.012 A 
ENDBRANCH   9  16
ENDBRANCH   2   5
BRANCH   1  19
HETATM   19  N   UNL     1      40.738 -13.187   2.619  1.00  0.00    -0.265 N 
HETATM   20  C   UNL     1      40.177 -12.940   1.387  1.00  0.00     0.260 C 
HETATM   21  O   UNL     1      39.620 -11.855   1.197  1.00  0.00    -0.269 OA
HETATM   22  H   UNL     1      40.739 -12.417   3.281  1.00  0.00     0.190 HD
BRANCH  20  23
HETATM   23  C   UNL     1      40.261 -14.005   0.295  1.00  0.00     0.280 C 
BRANCH  23  24
HETATM   24  O   UNL     1      41.592 -13.979  -0.209  1.00  0.00    -0.342 OA
BRANCH  24  25
HETATM   25  C   UNL     1      41.862 -13.149  -1.259  1.00  0.00     0.069 A 
HETATM   26  C   UNL     1      41.380 -13.596  -2.490  1.00  0.00     0.037 A 
HETATM   27  C   UNL     1      41.581 -12.846  -3.651  1.00  0.00     0.009 A 
HETATM   28  C   UNL     1      42.284 -11.639  -3.595  1.00  0.00    -0.062 A 
HETATM   29  C   UNL     1      42.470 -10.814  -4.833  1.00  0.00     0.048 C 
HETATM   30  C   UNL     1      42.763 -11.192  -2.358  1.00  0.00     0.009 A 
HETATM   31  C   UNL     1      42.565 -11.948  -1.196  1.00  0.00     0.037 A 
ENDBRANCH  24  25
ENDBRANCH  23  24
ENDBRANCH  20  23
ENDBRANCH   1  19
TORSDOF 7
ENDMDL
MODEL 6
REMARK VINA RESULT:      -8.0      2.071      5.543
REMARK  7 active torsions:
REMARK  status: ('A' for Active; 'I' for Inactive)
REMARK    1  A    between atoms: C_5  and  O_6 
REMARK    2  A    between atoms: O_6  and  C_7 
REMARK    3  A    between atoms: C_7  and  C_8 
REMARK       I    between atoms: C_8  and  N_9 
REMARK    4  A    between atoms: N_9  and  N_10 
REMARK       I    between atoms: N_10  and  C_11 
REMARK    5  A    between atoms: C_11  and  C_12 
REMARK    6  A    between atoms: C_14  and  C_15 
REMARK    7  A    between atoms: C_22  and  C_23 
ROOT
HETATM    1  N   UNL     1      42.144 -14.535   5.185  1.00  0.00    -0.262 N 
HETATM    2  C   UNL     1      42.971 -13.900   4.271  1.00  0.00     0.291 C 
HETATM    3  O   UNL     1      44.131 -13.579   4.495  1.00  0.00    -0.264 OA
HETATM    4  H   UNL     1      41.238 -14.875   4.865  1.00  0.00     0.190 HD
ENDROOT
BRANCH   2   5
HETATM    5  C   UNL     1      42.282 -13.625   3.021  1.00  0.00     0.159 A 
HETATM    6  N   UNL     1      42.493 -14.375   1.869  1.00  0.00    -0.216 NA
HETATM    7  C   UNL     1      41.726 -13.792   0.966  1.00  0.00     0.180 A 
HETATM    8  O   UNL     1      40.963 -12.767   1.459  1.00  0.00    -0.293 OA
HETATM    9  C   UNL     1      41.315 -12.671   2.778  1.00  0.00     0.094 A 
BRANCH   7  10
HETATM   10  C   UNL     1      41.597 -14.079  -0.461  1.00  0.00     0.017 A 
HETATM   11  C   UNL     1      41.042 -15.300  -0.877  1.00  0.00     0.016 A 
HETATM   12  C   UNL     1      40.930 -15.611  -2.235  1.00  0.00     0.001 A 
HETATM   13  C   UNL     1      41.370 -14.705  -3.197  1.00  0.00     0.000 A 
HETATM   14  C   UNL     1      41.920 -13.486  -2.802  1.00  0.00     0.001 A 
HETATM   15  C   UNL     1      42.033 -13.176  -1.444  1.00  0.00     0.016 A 
ENDBRANCH   7  10
BRANCH   9  16
HETATM   16  C   UNL     1      40.686 -11.709   3.769  1.00  0.00     0.046 A 
HETATM   17  C   UNL     1      39.358 -11.078   3.412  1.00  0.00     0.012 A 
HETATM   18  C   UNL     1      39.403 -12.149   4.446  1.00  0.00     0.012 A 
ENDBRANCH   9  16
ENDBRANCH   2   5
BRANCH   1  19
HETATM   19  N   UNL     1      42.619 -14.955   6.425  1.00  0.00    -0.265 N 
HETATM   20  C   UNL     1      42.864 -16.262   6.776  1.00  0.00     0.260 C 
HETATM   21  O   UNL     1      43.354 -16.496   7.884  1.00  0.00    -0.269 OA
HETATM   22  H   UNL     1      42.776 -14.254   7.142  1.00  0.00     0.190 HD
BRANCH  20  23
HETATM   23  C   UNL     1      42.520 -17.381   5.794  1.00  0.00     0.280 C 
BRANCH  23  24
HETATM   24  O   UNL     1      43.422 -17.266   4.699  1.00  0.00    -0.342 OA
BRANCH  24  25
HETATM   25  C   UNL     1      43.573 -18.347   3.880  1.00  0.00     0.069 A 
HETATM   26  C   UNL     1      44.372 -19.365   4.404  1.00  0.00     0.037 A 
HETATM   27  C   UNL     1      44.611 -20.532   3.676  1.00  0.00     0.009 A 
HETATM   28  C   UNL     1      44.063 -20.689   2.400  1.00  0.00    -0.062 A 
HETATM   29  C   UNL     1      44.289 -21.956   1.630  1.00  0.00     0.048 C 
HETATM   30  C   UNL     1      43.260 -19.668   1.877  1.00  0.00     0.009 A 
HETATM   31  C   UNL     1      43.025 -18.496   2.608  1.00  0.00     0.037 A 
ENDBRANCH  24  25
ENDBRANCH  23  24
ENDBRANCH  20  23
ENDBRANCH   1  19
TORSDOF 7
ENDMDL
MODEL 7
REMARK VINA RESULT:      -7.9      2.410      6.190
REMARK  7 active torsions:
REMARK  status: ('A' for Active; 'I' for Inactive)
REMARK    1  A    between atoms: C_5  and  O_6 
REMARK    2  A    between atoms: O_6  and  C_7 
REMARK    3  A    between atoms: C_7  and  C_8 
REMARK       I    between atoms: C_8  and  N_9 
REMARK    4  A    between atoms: N_9  and  N_10 
REMARK       I    between atoms: N_10  and  C_11 
REMARK    5  A    between atoms: C_11  and  C_12 
REMARK    6  A    between atoms: C_14  and  C_15 
REMARK    7  A    between atoms: C_22  and  C_23 
ROOT
HETATM    1  N   UNL     1      42.594 -13.456   2.600  1.00  0.00    -0.262 N 
HETATM    2  C   UNL     1      41.753 -14.319   3.284  1.00  0.00     0.291 C 
HETATM    3  O   UNL     1      40.578 -14.083   3.538  1.00  0.00    -0.264 OA
HETATM    4  H   UNL     1      43.516 -13.792   2.327  1.00  0.00     0.190 HD
ENDROOT
BRANCH   2   5
HETATM    5  C   UNL     1      42.444 -15.528   3.702  1.00  0.00     0.159 A 
HETATM    6  N   UNL     1      42.629 -16.615   2.854  1.00  0.00    -0.216 NA
HETATM    7  C   UNL     1      43.251 -17.502   3.609  1.00  0.00     0.180 A 
HETATM    8  O   UNL     1      43.561 -17.049   4.863  1.00  0.00    -0.293 OA
HETATM    9  C   UNL     1      43.052 -15.781   4.914  1.00  0.00     0.094 A 
BRANCH   7  10
HETATM   10  C   UNL     1      43.629 -18.879   3.295  1.00  0.00     0.017 A 
HETATM   11  C   UNL     1      44.433 -19.601   4.193  1.00  0.00     0.016 A 
HETATM   12  C   UNL     1      44.831 -20.909   3.906  1.00  0.00     0.001 A 
HETATM   13  C   UNL     1      44.429 -21.516   2.718  1.00  0.00     0.000 A 
HETATM   14  C   UNL     1      43.628 -20.815   1.817  1.00  0.00     0.001 A 
HETATM   15  C   UNL     1      43.231 -19.506   2.104  1.00  0.00     0.016 A 
ENDBRANCH   7  10
BRANCH   9  16
HETATM   16  C   UNL     1      43.203 -14.839   6.094  1.00  0.00     0.046 A 
HETATM   17  C   UNL     1      44.216 -15.186   7.164  1.00  0.00     0.012 A 
HETATM   18  C   UNL     1      44.508 -14.078   6.214  1.00  0.00     0.012 A 
ENDBRANCH   9  16
ENDBRANCH   2   5
BRANCH   1  19
HETATM   19  N   UNL     1      42.122 -12.268   2.048  1.00  0.00    -0.265 N 
HETATM   20  C   UNL     1      41.879 -12.060   0.710  1.00  0.00     0.260 C 
HETATM   21  O   UNL     1      41.392 -10.982   0.357  1.00  0.00    -0.269 OA
HETATM   22  H   UNL     1      41.967 -11.478   2.667  1.00  0.00     0.190 HD
BRANCH  20  23
HETATM   23  C   UNL     1      42.221 -13.158  -0.296  1.00  0.00     0.280 C 
BRANCH  23  24
HETATM   24  O   UNL     1      41.269 -14.200  -0.115  1.00  0.00    -0.342 OA
BRANCH  24  25
HETATM   25  C   UNL     1      40.250 -14.299  -1.018  1.00  0.00     0.069 A 
HETATM   26  C   UNL     1      40.580 -14.979  -2.192  1.00  0.00     0.037 A 
HETATM   27  C   UNL     1      39.635 -15.158  -3.203  1.00  0.00     0.009 A 
HETATM   28  C   UNL     1      38.345 -14.641  -3.059  1.00  0.00    -0.062 A 
HETATM   29  C   UNL     1      37.317 -14.863  -4.128  1.00  0.00     0.048 C 
HETATM   30  C   UNL     1      38.015 -13.962  -1.880  1.00  0.00     0.009 A 
HETATM   31  C   UNL     1      38.967 -13.780  -0.868  1.00  0.00     0.037 A 
ENDBRANCH  24  25
ENDBRANCH  23  24
ENDBRANCH  20  23
ENDBRANCH   1  19
TORSDOF 7
ENDMDL
MODEL 8
REMARK VINA RESULT:      -7.9      2.650      5.926
REMARK  7 active torsions:
REMARK  status: ('A' for Active; 'I' for Inactive)
REMARK    1  A    between atoms: C_5  and  O_6 
REMARK    2  A    between atoms: O_6  and  C_7 
REMARK    3  A    between atoms: C_7  and  C_8 
REMARK       I    between atoms: C_8  and  N_9 
REMARK    4  A    between atoms: N_9  and  N_10 
REMARK       I    between atoms: N_10  and  C_11 
REMARK    5  A    between atoms: C_11  and  C_12 
REMARK    6  A    between atoms: C_14  and  C_15 
REMARK    7  A    between atoms: C_22  and  C_23 
ROOT
HETATM    1  N   UNL     1      43.448 -14.331   4.268  1.00  0.00    -0.262 N 
HETATM    2  C   UNL     1      42.415 -13.528   3.809  1.00  0.00     0.291 C 
HETATM    3  O   UNL     1      41.717 -12.822   4.526  1.00  0.00    -0.264 OA
HETATM    4  H   UNL     1      44.051 -14.784   3.584  1.00  0.00     0.190 HD
ENDROOT
BRANCH   2   5
HETATM    5  C   UNL     1      42.232 -13.654   2.373  1.00  0.00     0.159 A 
HETATM    6  N   UNL     1      42.581 -12.643   1.483  1.00  0.00    -0.216 NA
HETATM    7  C   UNL     1      42.228 -13.123   0.304  1.00  0.00     0.180 A 
HETATM    8  O   UNL     1      41.750 -14.406   0.344  1.00  0.00    -0.293 OA
HETATM    9  C   UNL     1      41.764 -14.744   1.670  1.00  0.00     0.094 A 
BRANCH   7  10
HETATM   10  C   UNL     1      42.264 -12.476  -1.006  1.00  0.00     0.017 A 
HETATM   11  C   UNL     1      41.816 -13.174  -2.139  1.00  0.00     0.016 A 
HETATM   12  C   UNL     1      41.864 -12.589  -3.407  1.00  0.00     0.001 A 
HETATM   13  C   UNL     1      42.358 -11.296  -3.560  1.00  0.00     0.000 A 
HETATM   14  C   UNL     1      42.804 -10.587  -2.446  1.00  0.00     0.001 A 
HETATM   15  C   UNL     1      42.757 -11.173  -1.178  1.00  0.00     0.016 A 
ENDBRANCH   7  10
BRANCH   9  16
HETATM   16  C   UNL     1      41.380 -16.108   2.214  1.00  0.00     0.046 A 
HETATM   17  C   UNL     1      39.946 -16.566   2.055  1.00  0.00     0.012 A 
HETATM   18  C   UNL     1      41.006 -17.178   1.208  1.00  0.00     0.012 A 
ENDBRANCH   9  16
ENDBRANCH   2   5
BRANCH   1  19
HETATM   19  N   UNL     1      43.841 -14.315   5.604  1.00  0.00    -0.265 N 
HETATM   20  C   UNL     1      43.849 -15.409   6.438  1.00  0.00     0.260 C 
HETATM   21  O   UNL     1      44.291 -15.278   7.583  1.00  0.00    -0.269 OA
HETATM   22  H   UNL     1      44.119 -13.428   6.013  1.00  0.00     0.190 HD
BRANCH  20  23
HETATM   23  C   UNL     1      43.313 -16.746   5.930  1.00  0.00     0.280 C 
BRANCH  23  24
HETATM   24  O   UNL     1      44.439 -17.581   5.685  1.00  0.00    -0.342 OA
BRANCH  24  25
HETATM   25  C   UNL     1      44.343 -18.507   4.687  1.00  0.00     0.069 A 
HETATM   26  C   UNL     1      44.826 -19.773   5.022  1.00  0.00     0.037 A 
HETATM   27  C   UNL     1      44.789 -20.820   4.099  1.00  0.00     0.009 A 
HETATM   28  C   UNL     1      44.278 -20.607   2.815  1.00  0.00    -0.062 A 
HETATM   29  C   UNL     1      44.204 -21.738   1.834  1.00  0.00     0.048 C 
HETATM   30  C   UNL     1      43.792 -19.337   2.482  1.00  0.00     0.009 A 
HETATM   31  C   UNL     1      43.834 -18.287   3.409  1.00  0.00     0.037 A 
ENDBRANCH  24  25
ENDBRANCH  23  24
ENDBRANCH  20  23
ENDBRANCH   1  19
TORSDOF 7
ENDMDL
MODEL 9
REMARK VINA RESULT:      -7.8      2.537      7.064
REMARK  7 active torsions:
REMARK  status: ('A' for Active; 'I' for Inactive)
REMARK    1  A    between atoms: C_5  and  O_6 
REMARK    2  A    between atoms: O_6  and  C_7 
REMARK    3  A    between atoms: C_7  and  C_8 
REMARK       I    between atoms: C_8  and  N_9 
REMARK    4  A    between atoms: N_9  and  N_10 
REMARK       I    between atoms: N_10  and  C_11 
REMARK    5  A    between atoms: C_11  and  C_12 
REMARK    6  A    between atoms: C_14  and  C_15 
REMARK    7  A    between atoms: C_22  and  C_23 
ROOT
HETATM    1  N   UNL     1      43.403 -18.712   5.759  1.00  0.00    -0.262 N 
HETATM    2  C   UNL     1      44.213 -17.612   5.990  1.00  0.00     0.291 C 
HETATM    3  O   UNL     1      45.327 -17.666   6.496  1.00  0.00    -0.264 OA
HETATM    4  H   UNL     1      42.549 -18.582   5.220  1.00  0.00     0.190 HD
ENDROOT
BRANCH   2   5
HETATM    5  C   UNL     1      43.564 -16.373   5.594  1.00  0.00     0.159 A 
HETATM    6  N   UNL     1      42.538 -16.332   4.656  1.00  0.00    -0.216 NA
HETATM    7  C   UNL     1      42.256 -15.046   4.551  1.00  0.00     0.180 A 
HETATM    8  O   UNL     1      42.962 -14.247   5.410  1.00  0.00    -0.293 OA
HETATM    9  C   UNL     1      43.791 -15.103   6.083  1.00  0.00     0.094 A 
BRANCH   7  10
HETATM   10  C   UNL     1      41.322 -14.375   3.649  1.00  0.00     0.017 A 
HETATM   11  C   UNL     1      40.082 -14.970   3.364  1.00  0.00     0.016 A 
HETATM   12  C   UNL     1      39.180 -14.364   2.485  1.00  0.00     0.001 A 
HETATM   13  C   UNL     1      39.505 -13.152   1.879  1.00  0.00     0.000 A 
HETATM   14  C   UNL     1      40.730 -12.546   2.153  1.00  0.00     0.001 A 
HETATM   15  C   UNL     1      41.632 -13.153   3.032  1.00  0.00     0.016 A 
ENDBRANCH   7  10
BRANCH   9  16
HETATM   16  C   UNL     1      44.733 -14.689   7.199  1.00  0.00     0.046 A 
HETATM   17  C   UNL     1      45.692 -13.547   6.943  1.00  0.00     0.012 A 
HETATM   18  C   UNL     1      44.513 -13.327   7.826  1.00  0.00     0.012 A 
ENDBRANCH   9  16
ENDBRANCH   2   5
BRANCH   1  19
HETATM   19  N   UNL     1      43.853 -20.008   6.001  1.00  0.00    -0.265 N 
HETATM   20  C   UNL     1      44.592 -20.765   5.120  1.00  0.00     0.260 C 
HETATM   21  O   UNL     1      44.992 -21.874   5.484  1.00  0.00    -0.269 OA
HETATM   22  H   UNL     1      43.601 -20.449   6.880  1.00  0.00     0.190 HD
BRANCH  20  23
HETATM   23  C   UNL     1      44.891 -20.218   3.726  1.00  0.00     0.280 C 
BRANCH  23  24
HETATM   24  O   UNL     1      43.656 -20.186   3.018  1.00  0.00    -0.342 OA
BRANCH  24  25
HETATM   25  C   UNL     1      43.341 -19.047   2.335  1.00  0.00     0.069 A 
HETATM   26  C   UNL     1      41.983 -18.905   2.040  1.00  0.00     0.037 A 
HETATM   27  C   UNL     1      41.516 -17.786   1.348  1.00  0.00     0.009 A 
HETATM   28  C   UNL     1      42.409 -16.797   0.927  1.00  0.00    -0.062 A 
HETATM   29  C   UNL     1      41.905 -15.577   0.215  1.00  0.00     0.048 C 
HETATM   30  C   UNL     1      43.769 -16.940   1.226  1.00  0.00     0.009 A 
HETATM   31  C   UNL     1      44.236 -18.066   1.917  1.00  0.00     0.037 A 
ENDBRANCH  24  25
ENDBRANCH  23  24
ENDBRANCH  20  23
ENDBRANCH   1  19
TORSDOF 7
ENDMDL
MODEL 10
REMARK VINA RESULT:      -7.7      1.795      5.062
REMARK  7 active torsions:
REMARK  status: ('A' for Active; 'I' for Inactive)
REMARK    1  A    between atoms: C_5  and  O_6 
REMARK    2  A    between atoms: O_6  and  C_7 
REMARK    3  A    between atoms: C_7  and  C_8 
REMARK       I    between atoms: C_8  and  N_9 
REMARK    4  A    between atoms: N_9  and  N_10 
REMARK       I    between atoms: N_10  and  C_11 
REMARK    5  A    between atoms: C_11  and  C_12 
REMARK    6  A    between atoms: C_14  and  C_15 
REMARK    7  A    between atoms: C_22  and  C_23 
ROOT
HETATM    1  N   UNL     1      41.712 -14.201   3.624  1.00  0.00    -0.262 N 
HETATM    2  C   UNL     1      43.062 -14.121   3.924  1.00  0.00     0.291 C 
HETATM    3  O   UNL     1      43.841 -13.333   3.401  1.00  0.00    -0.264 OA
HETATM    4  H   UNL     1      41.121 -14.800   4.199  1.00  0.00     0.190 HD
ENDROOT
BRANCH   2   5
HETATM    5  C   UNL     1      43.455 -15.114   4.910  1.00  0.00     0.159 A 
HETATM    6  N   UNL     1      43.443 -16.479   4.644  1.00  0.00    -0.216 NA
HETATM    7  C   UNL     1      43.821 -17.027   5.785  1.00  0.00     0.180 A 
HETATM    8  O   UNL     1      44.161 -16.122   6.754  1.00  0.00    -0.293 OA
HETATM    9  C   UNL     1      43.934 -14.898   6.186  1.00  0.00     0.094 A 
BRANCH   7  10
HETATM   10  C   UNL     1      43.908 -18.441   6.146  1.00  0.00     0.017 A 
HETATM   11  C   UNL     1      44.375 -19.371   5.204  1.00  0.00     0.016 A 
HETATM   12  C   UNL     1      44.444 -20.733   5.514  1.00  0.00     0.001 A 
HETATM   13  C   UNL     1      44.050 -21.182   6.772  1.00  0.00     0.000 A 
HETATM   14  C   UNL     1      43.587 -20.271   7.721  1.00  0.00     0.001 A 
HETATM   15  C   UNL     1      43.517 -18.910   7.410  1.00  0.00     0.016 A 
ENDBRANCH   7  10
BRANCH   9  16
HETATM   16  C   UNL     1      44.228 -13.569   6.858  1.00  0.00     0.046 A 
HETATM   17  C   UNL     1      44.664 -13.579   8.307  1.00  0.00     0.012 A 
HETATM   18  C   UNL     1      45.666 -13.288   7.244  1.00  0.00     0.012 A 
ENDBRANCH   9  16
ENDBRANCH   2   5
BRANCH   1  19
HETATM   19  N   UNL     1      41.106 -13.298   2.753  1.00  0.00    -0.265 N 
HETATM   20  C   UNL     1      41.077 -13.421   1.383  1.00  0.00     0.260 C 
HETATM   21  O   UNL     1      40.444 -12.589   0.728  1.00  0.00    -0.269 OA
HETATM   22  H   UNL     1      40.674 -12.467   3.145  1.00  0.00     0.190 HD
BRANCH  20  23
HETATM   23  C   UNL     1      41.826 -14.572   0.715  1.00  0.00     0.280 C 
BRANCH  23  24
HETATM   24  O   UNL     1      41.242 -15.780   1.190  1.00  0.00    -0.342 OA
BRANCH  24  25
HETATM   25  C   UNL     1      42.057 -16.863   1.350  1.00  0.00     0.069 A 
HETATM   26  C   UNL     1      41.393 -18.043   1.690  1.00  0.00     0.037 A 
HETATM   27  C   UNL     1      42.101 -19.231   1.883  1.00  0.00     0.009 A 
HETATM   28  C   UNL     1      43.492 -19.250   1.753  1.00  0.00    -0.062 A 
HETATM   29  C   UNL     1      44.251 -20.531   1.924  1.00  0.00     0.048 C 
HETATM   30  C   UNL     1      44.156 -18.066   1.409  1.00  0.00     0.009 A 
HETATM   31  C   UNL     1      43.444 -16.874   1.220  1.00  0.00     0.037 A 
ENDBRANCH  24  25
ENDBRANCH  23  24
ENDBRANCH  20  23
ENDBRANCH   1  19
TORSDOF 7
ENDMDL
