MODEL 1
REMARK VINA RESULT:      -9.5      0.000      0.000
REMARK  6 active torsions:
REMARK  status: ('A' for Active; 'I' for Inactive)
REMARK    1  A    between atoms: C_2  and  C_3 
REMARK    2  A    between atoms: C_8  and  N_9 
REMARK       I    between atoms: N_9  and  C_10 
REMARK       I    between atoms: C_10  and  N_11 
REMARK    3  A    between atoms: N_11  and  N_12 
REMARK       I    between atoms: N_12  and  C_13 
REMARK    4  A    between atoms: C_13  and  C_14 
REMARK    5  A    between atoms: C_14  and  N_15 
REMARK       I    between atoms: N_15  and  C_16 
REMARK       I    between atoms: C_16  and  N_17 
REMARK    6  A    between atoms: N_17  and  C_18 
ROOT
HETATM    1  N   UNL     1      43.845 -17.067   4.782  1.00  0.00    -0.306 N 
HETATM    2  C   UNL     1      42.673 -16.541   5.259  1.00  0.00     0.339 C 
HETATM    3  N   UNL     1      42.754 -15.236   5.672  1.00  0.00    -0.249 N 
HETATM    4  O   UNL     1      41.595 -17.121   5.335  1.00  0.00    -0.245 OA
HETATM    5  H   UNL     1      44.675 -16.531   5.001  1.00  0.00     0.171 HD
HETATM    6  H   UNL     1      41.933 -14.844   6.136  1.00  0.00     0.192 HD
ENDROOT
BRANCH   3   7
HETATM    7  N   UNL     1      43.924 -14.459   5.705  1.00  0.00    -0.265 N 
HETATM    8  C   UNL     1      44.597 -14.477   6.921  1.00  0.00     0.253 C 
HETATM    9  O   UNL     1      44.290 -15.255   7.827  1.00  0.00    -0.270 OA
HETATM   10  H   UNL     1      43.897 -13.555   5.222  1.00  0.00     0.190 HD
BRANCH   8  11
HETATM   11  C   UNL     1      45.591 -13.338   7.142  1.00  0.00     0.228 C 
BRANCH  11  12
HETATM   12  N   UNL     1      45.523 -12.710   8.445  1.00  0.00    -0.334 N 
HETATM   13  C   UNL     1      46.173 -11.560   8.754  1.00  0.00     0.322 C 
HETATM   14  N   UNL     1      45.846 -10.940   9.917  1.00  0.00    -0.287 N 
HETATM   15  O   UNL     1      47.056 -11.106   8.026  1.00  0.00    -0.247 OA
HETATM   16  H   UNL     1      46.352 -10.095  10.137  1.00  0.00     0.172 HD
HETATM   17  H   UNL     1      44.770 -12.990   9.072  1.00  0.00     0.164 HD
BRANCH  14  18
HETATM   18  C   UNL     1      44.894 -11.360  10.801  1.00  0.00     0.174 A 
HETATM   19  S   UNL     1      43.835 -10.146  11.358  1.00  0.00    -0.062 SA
HETATM   20  C   UNL     1      43.042 -11.320  12.328  1.00  0.00     0.072 A 
HETATM   21  C   UNL     1      43.640 -12.549  12.150  1.00  0.00     0.126 A 
HETATM   22  N   UNL     1      44.702 -12.572  11.264  1.00  0.00    -0.236 NA
ENDBRANCH  14  18
ENDBRANCH  11  12
ENDBRANCH   8  11
ENDBRANCH   3   7
BRANCH   1  23
HETATM   23  C   UNL     1      44.040 -18.336   4.187  1.00  0.00     0.059 A 
HETATM   24  C   UNL     1      44.273 -19.496   4.938  1.00  0.00     0.047 A 
HETATM   25  C   UNL     1      44.447 -20.749   4.323  1.00  0.00     0.050 A 
HETATM   26  C   UNL     1      44.394 -20.833   2.925  1.00  0.00     0.018 A 
HETATM   27  C   UNL     1      44.154 -19.689   2.161  1.00  0.00     0.027 A 
HETATM   28  C   UNL     1      43.973 -18.451   2.788  1.00  0.00     0.060 A 
HETATM   29 CL   UNL     1      43.673 -17.069   1.789  1.00  0.00    -0.082 Cl
BRANCH  25  30
HETATM   30  C   UNL     1      44.707 -21.971   5.174  1.00  0.00     0.417 C 
HETATM   31  F   UNL     1      46.025 -22.314   5.232  1.00  0.00    -0.166 F 
HETATM   32  F   UNL     1      44.310 -21.802   6.464  1.00  0.00    -0.166 F 
HETATM   33  F   UNL     1      44.058 -23.077   4.719  1.00  0.00    -0.166 F 
ENDBRANCH  25  30
ENDBRANCH   1  23
TORSDOF 6
ENDMDL
MODEL 2
REMARK VINA RESULT:      -9.2      1.870      2.188
REMARK  6 active torsions:
REMARK  status: ('A' for Active; 'I' for Inactive)
REMARK    1  A    between atoms: C_2  and  C_3 
REMARK    2  A    between atoms: C_8  and  N_9 
REMARK       I    between atoms: N_9  and  C_10 
REMARK       I    between atoms: C_10  and  N_11 
REMARK    3  A    between atoms: N_11  and  N_12 
REMARK       I    between atoms: N_12  and  C_13 
REMARK    4  A    between atoms: C_13  and  C_14 
REMARK    5  A    between atoms: C_14  and  N_15 
REMARK       I    between atoms: N_15  and  C_16 
REMARK       I    between atoms: C_16  and  N_17 
REMARK    6  A    between atoms: N_17  and  C_18 
ROOT
HETATM    1  N   UNL     1      43.095 -15.834   4.709  1.00  0.00    -0.306 N 
HETATM    2  C   UNL     1      42.026 -15.792   5.565  1.00  0.00     0.339 C 
HETATM    3  N   UNL     1      42.053 -14.764   6.471  1.00  0.00    -0.249 N 
HETATM    4  O   UNL     1      41.077 -16.569   5.578  1.00  0.00    -0.245 OA
HETATM    5  H   UNL     1      43.885 -15.262   4.982  1.00  0.00     0.171 HD
HETATM    6  H   UNL     1      41.334 -14.764   7.195  1.00  0.00     0.192 HD
ENDROOT
BRANCH   3   7
HETATM    7  N   UNL     1      43.095 -13.833   6.621  1.00  0.00    -0.265 N 
HETATM    8  C   UNL     1      44.129 -14.250   7.450  1.00  0.00     0.253 C 
HETATM    9  O   UNL     1      44.208 -15.408   7.865  1.00  0.00    -0.270 OA
HETATM   10  H   UNL     1      42.830 -12.845   6.699  1.00  0.00     0.190 HD
BRANCH   8  11
HETATM   11  C   UNL     1      45.035 -13.141   7.985  1.00  0.00     0.228 C 
BRANCH  11  12
HETATM   12  N   UNL     1      44.471 -12.354   9.060  1.00  0.00    -0.334 N 
HETATM   13  C   UNL     1      45.008 -11.185   9.492  1.00  0.00     0.322 C 
HETATM   14  N   UNL     1      44.267 -10.419  10.333  1.00  0.00    -0.287 N 
HETATM   15  O   UNL     1      46.144 -10.840   9.162  1.00  0.00    -0.247 OA
HETATM   16  H   UNL     1      44.691  -9.562  10.655  1.00  0.00     0.172 HD
HETATM   17  H   UNL     1      43.507 -12.541   9.335  1.00  0.00     0.164 HD
BRANCH  14  18
HETATM   18  C   UNL     1      43.006 -10.709  10.769  1.00  0.00     0.174 A 
HETATM   19  S   UNL     1      42.884 -11.112  12.420  1.00  0.00    -0.062 SA
HETATM   20  C   UNL     1      41.195 -11.338  12.214  1.00  0.00     0.072 A 
HETATM   21  C   UNL     1      40.850 -11.083  10.904  1.00  0.00     0.126 A 
HETATM   22  N   UNL     1      41.894 -10.715  10.074  1.00  0.00    -0.236 NA
ENDBRANCH  14  18
ENDBRANCH  11  12
ENDBRANCH   8  11
ENDBRANCH   3   7
BRANCH   1  23
HETATM   23  C   UNL     1      43.283 -16.702   3.607  1.00  0.00     0.059 A 
HETATM   24  C   UNL     1      43.696 -18.033   3.755  1.00  0.00     0.047 A 
HETATM   25  C   UNL     1      43.860 -18.881   2.644  1.00  0.00     0.050 A 
HETATM   26  C   UNL     1      43.612 -18.375   1.361  1.00  0.00     0.018 A 
HETATM   27  C   UNL     1      43.192 -17.053   1.196  1.00  0.00     0.027 A 
HETATM   28  C   UNL     1      43.024 -16.225   2.311  1.00  0.00     0.060 A 
HETATM   29 CL   UNL     1      42.496 -14.597   2.044  1.00  0.00    -0.082 Cl
BRANCH  25  30
HETATM   30  C   UNL     1      44.316 -20.306   2.852  1.00  0.00     0.417 C 
HETATM   31  F   UNL     1      45.591 -20.529   2.423  1.00  0.00    -0.166 F 
HETATM   32  F   UNL     1      44.297 -20.675   4.162  1.00  0.00    -0.166 F 
HETATM   33  F   UNL     1      43.542 -21.209   2.191  1.00  0.00    -0.166 F 
ENDBRANCH  25  30
ENDBRANCH   1  23
TORSDOF 6
ENDMDL
MODEL 3
REMARK VINA RESULT:      -8.9      5.917     10.489
REMARK  6 active torsions:
REMARK  status: ('A' for Active; 'I' for Inactive)
REMARK    1  A    between atoms: C_2  and  C_3 
REMARK    2  A    between atoms: C_8  and  N_9 
REMARK       I    between atoms: N_9  and  C_10 
REMARK       I    between atoms: C_10  and  N_11 
REMARK    3  A    between atoms: N_11  and  N_12 
REMARK       I    between atoms: N_12  and  C_13 
REMARK    4  A    between atoms: C_13  and  C_14 
REMARK    5  A    between atoms: C_14  and  N_15 
REMARK       I    between atoms: N_15  and  C_16 
REMARK       I    between atoms: C_16  and  N_17 
REMARK    6  A    between atoms: N_17  and  C_18 
ROOT
HETATM    1  N   UNL     1      43.634 -11.838   9.476  1.00  0.00    -0.306 N 
HETATM    2  C   UNL     1      44.897 -11.788   8.947  1.00  0.00     0.339 C 
HETATM    3  N   UNL     1      45.230 -12.850   8.148  1.00  0.00    -0.249 N 
HETATM    4  O   UNL     1      45.721 -10.894   9.119  1.00  0.00    -0.245 OA
HETATM    5  H   UNL     1      43.181 -12.741   9.418  1.00  0.00     0.171 HD
HETATM    6  H   UNL     1      46.197 -12.904   7.826  1.00  0.00     0.192 HD
ENDROOT
BRANCH   3   7
HETATM    7  N   UNL     1      44.422 -13.974   7.904  1.00  0.00    -0.265 N 
HETATM    8  C   UNL     1      44.207 -14.251   6.559  1.00  0.00     0.253 C 
HETATM    9  O   UNL     1      44.825 -13.670   5.664  1.00  0.00    -0.270 OA
HETATM   10  H   UNL     1      43.616 -14.112   8.523  1.00  0.00     0.190 HD
BRANCH   8  11
HETATM   11  C   UNL     1      43.015 -15.158   6.253  1.00  0.00     0.228 C 
BRANCH  11  12
HETATM   12  N   UNL     1      43.356 -16.525   5.923  1.00  0.00    -0.334 N 
HETATM   13  C   UNL     1      43.173 -17.567   6.773  1.00  0.00     0.322 C 
HETATM   14  N   UNL     1      43.300 -18.823   6.274  1.00  0.00    -0.287 N 
HETATM   15  O   UNL     1      42.935 -17.385   7.968  1.00  0.00    -0.247 OA
HETATM   16  H   UNL     1      43.177 -19.583   6.926  1.00  0.00     0.172 HD
HETATM   17  H   UNL     1      43.496 -16.759   4.941  1.00  0.00     0.164 HD
BRANCH  14  18
HETATM   18  C   UNL     1      43.572 -19.137   4.974  1.00  0.00     0.174 A 
HETATM   19  S   UNL     1      44.788 -20.310   4.750  1.00  0.00    -0.062 SA
HETATM   20  C   UNL     1      44.584 -20.159   3.052  1.00  0.00     0.072 A 
HETATM   21  C   UNL     1      43.600 -19.231   2.784  1.00  0.00     0.126 A 
HETATM   22  N   UNL     1      43.013 -18.648   3.892  1.00  0.00    -0.236 NA
ENDBRANCH  14  18
ENDBRANCH  11  12
ENDBRANCH   8  11
ENDBRANCH   3   7
BRANCH   1  23
HETATM   23  C   UNL     1      42.978 -10.840  10.237  1.00  0.00     0.059 A 
HETATM   24  C   UNL     1      43.180 -10.686  11.616  1.00  0.00     0.047 A 
HETATM   25  C   UNL     1      42.528  -9.676  12.346  1.00  0.00     0.050 A 
HETATM   26  C   UNL     1      41.651  -8.812  11.677  1.00  0.00     0.018 A 
HETATM   27  C   UNL     1      41.445  -8.945  10.302  1.00  0.00     0.027 A 
HETATM   28  C   UNL     1      42.108  -9.949   9.587  1.00  0.00     0.060 A 
HETATM   29 CL   UNL     1      41.817 -10.062   7.884  1.00  0.00    -0.082 Cl
BRANCH  25  30
HETATM   30  C   UNL     1      42.769  -9.555  13.833  1.00  0.00     0.417 C 
HETATM   31  F   UNL     1      42.581 -10.727  14.504  1.00  0.00    -0.166 F 
HETATM   32  F   UNL     1      44.037  -9.159  14.127  1.00  0.00    -0.166 F 
HETATM   33  F   UNL     1      41.942  -8.653  14.429  1.00  0.00    -0.166 F 
ENDBRANCH  25  30
ENDBRANCH   1  23
TORSDOF 6
ENDMDL
MODEL 4
REMARK VINA RESULT:      -8.8      6.152      8.894
REMARK  6 active torsions:
REMARK  status: ('A' for Active; 'I' for Inactive)
REMARK    1  A    between atoms: C_2  and  C_3 
REMARK    2  A    between atoms: C_8  and  N_9 
REMARK       I    between atoms: N_9  and  C_10 
REMARK       I    between atoms: C_10  and  N_11 
REMARK    3  A    between atoms: N_11  and  N_12 
REMARK       I    between atoms: N_12  and  C_13 
REMARK    4  A    between atoms: C_13  and  C_14 
REMARK    5  A    between atoms: C_14  and  N_15 
REMARK       I    between atoms: N_15  and  C_16 
REMARK       I    between atoms: C_16  and  N_17 
REMARK    6  A    between atoms: N_17  and  C_18 
ROOT
HETATM    1  N   UNL     1      42.485 -17.308   3.652  1.00  0.00    -0.306 N 
HETATM    2  C   UNL     1      41.305 -17.016   4.284  1.00  0.00     0.339 C 
HETATM    3  N   UNL     1      40.608 -15.964   3.746  1.00  0.00    -0.249 N 
HETATM    4  O   UNL     1      40.835 -17.606   5.252  1.00  0.00    -0.245 OA
HETATM    5  H   UNL     1      42.824 -16.590   3.024  1.00  0.00     0.171 HD
HETATM    6  H   UNL     1      39.783 -15.646   4.255  1.00  0.00     0.192 HD
ENDROOT
BRANCH   3   7
HETATM    7  N   UNL     1      41.041 -15.156   2.682  1.00  0.00    -0.265 N 
HETATM    8  C   UNL     1      40.973 -15.761   1.432  1.00  0.00     0.253 C 
HETATM    9  O   UNL     1      40.407 -16.842   1.258  1.00  0.00    -0.270 OA
HETATM   10  H   UNL     1      41.863 -14.566   2.848  1.00  0.00     0.190 HD
BRANCH   8  11
HETATM   11  C   UNL     1      41.820 -15.112   0.337  1.00  0.00     0.228 C 
BRANCH  11  12
HETATM   12  N   UNL     1      41.089 -14.710  -0.845  1.00  0.00    -0.334 N 
HETATM   13  C   UNL     1      41.454 -13.666  -1.631  1.00  0.00     0.322 C 
HETATM   14  N   UNL     1      40.842 -13.533  -2.835  1.00  0.00    -0.287 N 
HETATM   15  O   UNL     1      42.289 -12.842  -1.255  1.00  0.00    -0.247 OA
HETATM   16  H   UNL     1      41.116 -12.741  -3.397  1.00  0.00     0.172 HD
HETATM   17  H   UNL     1      40.432 -15.376  -1.251  1.00  0.00     0.164 HD
BRANCH  14  18
HETATM   18  C   UNL     1      39.899 -14.379  -3.345  1.00  0.00     0.174 A 
HETATM   19  S   UNL     1      38.292 -13.821  -3.242  1.00  0.00    -0.062 SA
HETATM   20  C   UNL     1      37.766 -15.278  -3.982  1.00  0.00     0.072 A 
HETATM   21  C   UNL     1      38.855 -16.077  -4.257  1.00  0.00     0.126 A 
HETATM   22  N   UNL     1      40.084 -15.555  -3.896  1.00  0.00    -0.236 NA
ENDBRANCH  14  18
ENDBRANCH  11  12
ENDBRANCH   8  11
ENDBRANCH   3   7
BRANCH   1  23
HETATM   23  C   UNL     1      43.352 -18.398   3.907  1.00  0.00     0.059 A 
HETATM   24  C   UNL     1      43.404 -19.531   3.083  1.00  0.00     0.047 A 
HETATM   25  C   UNL     1      44.287 -20.593   3.349  1.00  0.00     0.050 A 
HETATM   26  C   UNL     1      45.126 -20.516   4.468  1.00  0.00     0.018 A 
HETATM   27  C   UNL     1      45.093 -19.390   5.295  1.00  0.00     0.027 A 
HETATM   28  C   UNL     1      44.217 -18.337   5.012  1.00  0.00     0.060 A 
HETATM   29 CL   UNL     1      44.225 -16.965   6.070  1.00  0.00    -0.082 Cl
BRANCH  25  30
HETATM   30  C   UNL     1      44.301 -21.799   2.439  1.00  0.00     0.417 C 
HETATM   31  F   UNL     1      44.508 -22.971   3.104  1.00  0.00    -0.166 F 
HETATM   32  F   UNL     1      43.130 -21.958   1.764  1.00  0.00    -0.166 F 
HETATM   33  F   UNL     1      45.279 -21.735   1.494  1.00  0.00    -0.166 F 
ENDBRANCH  25  30
ENDBRANCH   1  23
TORSDOF 6
ENDMDL
MODEL 5
REMARK VINA RESULT:      -8.8      2.716      3.598
REMARK  6 active torsions:
REMARK  status: ('A' for Active; 'I' for Inactive)
REMARK    1  A    between atoms: C_2  and  C_3 
REMARK    2  A    between atoms: C_8  and  N_9 
REMARK       I    between atoms: N_9  and  C_10 
REMARK       I    between atoms: C_10  and  N_11 
REMARK    3  A    between atoms: N_11  and  N_12 
REMARK       I    between atoms: N_12  and  C_13 
REMARK    4  A    between atoms: C_13  and  C_14 
REMARK    5  A    between atoms: C_14  and  N_15 
REMARK       I    between atoms: N_15  and  C_16 
REMARK       I    between atoms: C_16  and  N_17 
REMARK    6  A    between atoms: N_17  and  C_18 
ROOT
HETATM    1  N   UNL     1      41.968 -16.564   5.977  1.00  0.00    -0.306 N 
HETATM    2  C   UNL     1      40.604 -16.696   5.958  1.00  0.00     0.339 C 
HETATM    3  N   UNL     1      39.909 -15.539   6.195  1.00  0.00    -0.249 N 
HETATM    4  O   UNL     1      39.979 -17.731   5.744  1.00  0.00    -0.245 OA
HETATM    5  H   UNL     1      42.309 -15.704   6.387  1.00  0.00     0.171 HD
HETATM    6  H   UNL     1      38.897 -15.618   6.299  1.00  0.00     0.192 HD
ENDROOT
BRANCH   3   7
HETATM    7  N   UNL     1      40.479 -14.294   6.514  1.00  0.00    -0.265 N 
HETATM    8  C   UNL     1      40.993 -13.598   5.426  1.00  0.00     0.253 C 
HETATM    9  O   UNL     1      40.795 -13.961   4.264  1.00  0.00    -0.270 OA
HETATM   10  H   UNL     1      41.028 -14.240   7.378  1.00  0.00     0.190 HD
BRANCH   8  11
HETATM   11  C   UNL     1      41.986 -12.487   5.763  1.00  0.00     0.228 C 
BRANCH  11  12
HETATM   12  N   UNL     1      42.947 -12.816   6.794  1.00  0.00    -0.334 N 
HETATM   13  C   UNL     1      44.012 -13.632   6.590  1.00  0.00     0.322 C 
HETATM   14  N   UNL     1      44.971 -13.676   7.550  1.00  0.00    -0.287 N 
HETATM   15  O   UNL     1      44.095 -14.339   5.585  1.00  0.00    -0.247 OA
HETATM   16  H   UNL     1      45.745 -14.301   7.387  1.00  0.00     0.172 HD
HETATM   17  H   UNL     1      42.979 -12.225   7.624  1.00  0.00     0.164 HD
BRANCH  14  18
HETATM   18  C   UNL     1      44.974 -12.946   8.704  1.00  0.00     0.174 A 
HETATM   19  S   UNL     1      46.062 -11.635   8.730  1.00  0.00    -0.062 SA
HETATM   20  C   UNL     1      45.548 -11.273  10.327  1.00  0.00     0.072 A 
HETATM   21  C   UNL     1      44.581 -12.174  10.718  1.00  0.00     0.126 A 
HETATM   22  N   UNL     1      44.246 -13.133   9.779  1.00  0.00    -0.236 NA
ENDBRANCH  14  18
ENDBRANCH  11  12
ENDBRANCH   8  11
ENDBRANCH   3   7
BRANCH   1  23
HETATM   23  C   UNL     1      42.934 -17.548   5.657  1.00  0.00     0.059 A 
HETATM   24  C   UNL     1      43.110 -18.040   4.357  1.00  0.00     0.047 A 
HETATM   25  C   UNL     1      44.089 -19.007   4.062  1.00  0.00     0.050 A 
HETATM   26  C   UNL     1      44.898 -19.492   5.098  1.00  0.00     0.018 A 
HETATM   27  C   UNL     1      44.742 -19.007   6.398  1.00  0.00     0.027 A 
HETATM   28  C   UNL     1      43.771 -18.038   6.674  1.00  0.00     0.060 A 
HETATM   29 CL   UNL     1      43.628 -17.470   8.304  1.00  0.00    -0.082 Cl
BRANCH  25  30
HETATM   30  C   UNL     1      44.235 -19.515   2.646  1.00  0.00     0.417 C 
HETATM   31  F   UNL     1      45.248 -20.417   2.502  1.00  0.00    -0.166 F 
HETATM   32  F   UNL     1      43.114 -20.142   2.198  1.00  0.00    -0.166 F 
HETATM   33  F   UNL     1      44.497 -18.521   1.755  1.00  0.00    -0.166 F 
ENDBRANCH  25  30
ENDBRANCH   1  23
TORSDOF 6
ENDMDL
MODEL 6
REMARK VINA RESULT:      -8.6      6.041     10.505
REMARK  6 active torsions:
REMARK  status: ('A' for Active; 'I' for Inactive)
REMARK    1  A    between atoms: C_2  and  C_3 
REMARK    2  A    between atoms: C_8  and  N_9 
REMARK       I    between atoms: N_9  and  C_10 
REMARK       I    between atoms: C_10  and  N_11 
REMARK    3  A    between atoms: N_11  and  N_12 
REMARK       I    between atoms: N_12  and  C_13 
REMARK    4  A    between atoms: C_13  and  C_14 
REMARK    5  A    between atoms: C_14  and  N_15 
REMARK       I    between atoms: N_15  and  C_16 
REMARK       I    between atoms: C_16  and  N_17 
REMARK    6  A    between atoms: N_17  and  C_18 
ROOT
HETATM    1  N   UNL     1      43.694 -11.933   9.419  1.00  0.00    -0.306 N 
HETATM    2  C   UNL     1      44.948 -11.871   8.872  1.00  0.00     0.339 C 
HETATM    3  N   UNL     1      45.287 -12.942   8.086  1.00  0.00    -0.249 N 
HETATM    4  O   UNL     1      45.759 -10.961   9.016  1.00  0.00    -0.245 OA
HETATM    5  H   UNL     1      43.254 -12.844   9.383  1.00  0.00     0.171 HD
HETATM    6  H   UNL     1      46.250 -12.986   7.752  1.00  0.00     0.192 HD
ENDROOT
BRANCH   3   7
HETATM    7  N   UNL     1      44.495 -14.083   7.874  1.00  0.00    -0.265 N 
HETATM    8  C   UNL     1      44.188 -14.334   6.542  1.00  0.00     0.253 C 
HETATM    9  O   UNL     1      44.721 -13.714   5.619  1.00  0.00    -0.270 OA
HETATM   10  H   UNL     1      43.742 -14.260   8.547  1.00  0.00     0.190 HD
BRANCH   8  11
HETATM   11  C   UNL     1      43.002 -15.269   6.302  1.00  0.00     0.228 C 
BRANCH  11  12
HETATM   12  N   UNL     1      43.044 -16.004   5.056  1.00  0.00    -0.334 N 
HETATM   13  C   UNL     1      43.604 -17.234   4.933  1.00  0.00     0.322 C 
HETATM   14  N   UNL     1      43.374 -17.925   3.787  1.00  0.00    -0.287 N 
HETATM   15  O   UNL     1      44.328 -17.701   5.815  1.00  0.00    -0.247 OA
HETATM   16  H   UNL     1      43.812 -18.830   3.709  1.00  0.00     0.172 HD
HETATM   17  H   UNL     1      42.417 -15.713   4.308  1.00  0.00     0.164 HD
BRANCH  14  18
HETATM   18  C   UNL     1      42.599 -17.500   2.746  1.00  0.00     0.174 A 
HETATM   19  S   UNL     1      43.412 -17.338   1.257  1.00  0.00    -0.062 SA
HETATM   20  C   UNL     1      41.943 -16.808   0.543  1.00  0.00     0.072 A 
HETATM   21  C   UNL     1      40.943 -16.800   1.492  1.00  0.00     0.126 A 
HETATM   22  N   UNL     1      41.321 -17.205   2.759  1.00  0.00    -0.236 NA
ENDBRANCH  14  18
ENDBRANCH  11  12
ENDBRANCH   8  11
ENDBRANCH   3   7
BRANCH   1  23
HETATM   23  C   UNL     1      43.032 -10.933  10.172  1.00  0.00     0.059 A 
HETATM   24  C   UNL     1      43.226 -10.771  11.550  1.00  0.00     0.047 A 
HETATM   25  C   UNL     1      42.568  -9.758  12.272  1.00  0.00     0.050 A 
HETATM   26  C   UNL     1      41.693  -8.899  11.594  1.00  0.00     0.018 A 
HETATM   27  C   UNL     1      41.493  -9.041  10.219  1.00  0.00     0.027 A 
HETATM   28  C   UNL     1      42.162 -10.047   9.513  1.00  0.00     0.060 A 
HETATM   29 CL   UNL     1      41.880 -10.170   7.809  1.00  0.00    -0.082 Cl
BRANCH  25  30
HETATM   30  C   UNL     1      42.802  -9.628  13.760  1.00  0.00     0.417 C 
HETATM   31  F   UNL     1      44.046  -9.164  14.069  1.00  0.00    -0.166 F 
HETATM   32  F   UNL     1      41.928  -8.771  14.353  1.00  0.00    -0.166 F 
HETATM   33  F   UNL     1      42.678 -10.814  14.417  1.00  0.00    -0.166 F 
ENDBRANCH  25  30
ENDBRANCH   1  23
TORSDOF 6
ENDMDL
MODEL 7
REMARK VINA RESULT:      -8.6      4.966      6.774
REMARK  6 active torsions:
REMARK  status: ('A' for Active; 'I' for Inactive)
REMARK    1  A    between atoms: C_2  and  C_3 
REMARK    2  A    between atoms: C_8  and  N_9 
REMARK       I    between atoms: N_9  and  C_10 
REMARK       I    between atoms: C_10  and  N_11 
REMARK    3  A    between atoms: N_11  and  N_12 
REMARK       I    between atoms: N_12  and  C_13 
REMARK    4  A    between atoms: C_13  and  C_14 
REMARK    5  A    between atoms: C_14  and  N_15 
REMARK       I    between atoms: N_15  and  C_16 
REMARK       I    between atoms: C_16  and  N_17 
REMARK    6  A    between atoms: N_17  and  C_18 
ROOT
HETATM    1  N   UNL     1      42.167 -16.126   5.762  1.00  0.00    -0.306 N 
HETATM    2  C   UNL     1      40.904 -16.071   6.291  1.00  0.00     0.339 C 
HETATM    3  N   UNL     1      40.400 -14.806   6.449  1.00  0.00    -0.249 N 
HETATM    4  O   UNL     1      40.210 -17.030   6.612  1.00  0.00    -0.245 OA
HETATM    5  H   UNL     1      42.672 -15.249   5.768  1.00  0.00     0.171 HD
HETATM    6  H   UNL     1      39.510 -14.719   6.941  1.00  0.00     0.192 HD
ENDROOT
BRANCH   3   7
HETATM    7  N   UNL     1      41.091 -13.611   6.185  1.00  0.00    -0.265 N 
HETATM    8  C   UNL     1      40.460 -12.765   5.281  1.00  0.00     0.253 C 
HETATM    9  O   UNL     1      39.306 -12.965   4.894  1.00  0.00    -0.270 OA
HETATM   10  H   UNL     1      42.112 -13.672   6.101  1.00  0.00     0.190 HD
BRANCH   8  11
HETATM   11  C   UNL     1      41.349 -11.701   4.640  1.00  0.00     0.228 C 
BRANCH  11  12
HETATM   12  N   UNL     1      41.761 -11.983   3.281  1.00  0.00    -0.334 N 
HETATM   13  C   UNL     1      42.350 -13.146   2.906  1.00  0.00     0.322 C 
HETATM   14  N   UNL     1      42.471 -13.397   1.577  1.00  0.00    -0.287 N 
HETATM   15  O   UNL     1      42.795 -13.938   3.739  1.00  0.00    -0.247 OA
HETATM   16  H   UNL     1      42.927 -14.259   1.319  1.00  0.00     0.172 HD
HETATM   17  H   UNL     1      41.371 -11.409   2.535  1.00  0.00     0.164 HD
BRANCH  14  18
HETATM   18  C   UNL     1      42.024 -12.587   0.573  1.00  0.00     0.174 A 
HETATM   19  S   UNL     1      40.728 -13.211  -0.340  1.00  0.00    -0.062 SA
HETATM   20  C   UNL     1      40.754 -11.790  -1.302  1.00  0.00     0.072 A 
HETATM   21  C   UNL     1      41.744 -10.943  -0.851  1.00  0.00     0.126 A 
HETATM   22  N   UNL     1      42.471 -11.401   0.233  1.00  0.00    -0.236 NA
ENDBRANCH  14  18
ENDBRANCH  11  12
ENDBRANCH   8  11
ENDBRANCH   3   7
BRANCH   1  23
HETATM   23  C   UNL     1      42.893 -17.280   5.382  1.00  0.00     0.059 A 
HETATM   24  C   UNL     1      42.952 -17.734   4.058  1.00  0.00     0.047 A 
HETATM   25  C   UNL     1      43.695 -18.875   3.703  1.00  0.00     0.050 A 
HETATM   26  C   UNL     1      44.382 -19.576   4.703  1.00  0.00     0.018 A 
HETATM   27  C   UNL     1      44.341 -19.133   6.027  1.00  0.00     0.027 A 
HETATM   28  C   UNL     1      43.606 -17.991   6.363  1.00  0.00     0.060 A 
HETATM   29 CL   UNL     1      43.597 -17.487   8.019  1.00  0.00    -0.082 Cl
BRANCH  25  30
HETATM   30  C   UNL     1      43.721 -19.333   2.263  1.00  0.00     0.417 C 
HETATM   31  F   UNL     1      44.346 -18.452   1.432  1.00  0.00    -0.166 F 
HETATM   32  F   UNL     1      44.370 -20.518   2.103  1.00  0.00    -0.166 F 
HETATM   33  F   UNL     1      42.475 -19.508   1.744  1.00  0.00    -0.166 F 
ENDBRANCH  25  30
ENDBRANCH   1  23
TORSDOF 6
ENDMDL
MODEL 8
REMARK VINA RESULT:      -8.6      6.177      7.965
REMARK  6 active torsions:
REMARK  status: ('A' for Active; 'I' for Inactive)
REMARK    1  A    between atoms: C_2  and  C_3 
REMARK    2  A    between atoms: C_8  and  N_9 
REMARK       I    between atoms: N_9  and  C_10 
REMARK       I    between atoms: C_10  and  N_11 
REMARK    3  A    between atoms: N_11  and  N_12 
REMARK       I    between atoms: N_12  and  C_13 
REMARK    4  A    between atoms: C_13  and  C_14 
REMARK    5  A    between atoms: C_14  and  N_15 
REMARK       I    between atoms: N_15  and  C_16 
REMARK       I    between atoms: C_16  and  N_17 
REMARK    6  A    between atoms: N_17  and  C_18 
ROOT
HETATM    1  N   UNL     1      42.103 -17.429   3.255  1.00  0.00    -0.306 N 
HETATM    2  C   UNL     1      41.059 -17.028   4.046  1.00  0.00     0.339 C 
HETATM    3  N   UNL     1      40.194 -16.144   3.455  1.00  0.00    -0.249 N 
HETATM    4  O   UNL     1      40.840 -17.392   5.198  1.00  0.00    -0.245 OA
HETATM    5  H   UNL     1      42.254 -16.865   2.428  1.00  0.00     0.171 HD
HETATM    6  H   UNL     1      39.469 -15.738   4.048  1.00  0.00     0.192 HD
ENDROOT
BRANCH   3   7
HETATM    7  N   UNL     1      40.340 -15.590   2.173  1.00  0.00    -0.265 N 
HETATM    8  C   UNL     1      39.819 -14.310   2.032  1.00  0.00     0.253 C 
HETATM    9  O   UNL     1      39.431 -13.651   3.000  1.00  0.00    -0.270 OA
HETATM   10  H   UNL     1      40.202 -16.219   1.374  1.00  0.00     0.190 HD
BRANCH   8  11
HETATM   11  C   UNL     1      39.559 -13.856   0.596  1.00  0.00     0.228 C 
BRANCH  11  12
HETATM   12  N   UNL     1      40.734 -13.427  -0.132  1.00  0.00    -0.334 N 
HETATM   13  C   UNL     1      41.444 -14.243  -0.952  1.00  0.00     0.322 C 
HETATM   14  N   UNL     1      42.374 -13.676  -1.762  1.00  0.00    -0.287 N 
HETATM   15  O   UNL     1      41.280 -15.465  -0.940  1.00  0.00    -0.247 OA
HETATM   16  H   UNL     1      42.902 -14.302  -2.351  1.00  0.00     0.172 HD
HETATM   17  H   UNL     1      40.891 -12.426  -0.241  1.00  0.00     0.164 HD
BRANCH  14  18
HETATM   18  C   UNL     1      42.644 -12.341  -1.848  1.00  0.00     0.174 A 
HETATM   19  S   UNL     1      42.286 -11.623  -3.351  1.00  0.00    -0.062 SA
HETATM   20  C   UNL     1      42.855 -10.122  -2.742  1.00  0.00     0.072 A 
HETATM   21  C   UNL     1      43.269 -10.280  -1.436  1.00  0.00     0.126 A 
HETATM   22  N   UNL     1      43.141 -11.557  -0.920  1.00  0.00    -0.236 NA
ENDBRANCH  14  18
ENDBRANCH  11  12
ENDBRANCH   8  11
ENDBRANCH   3   7
BRANCH   1  23
HETATM   23  C   UNL     1      43.080 -18.410   3.548  1.00  0.00     0.059 A 
HETATM   24  C   UNL     1      43.192 -19.605   2.824  1.00  0.00     0.047 A 
HETATM   25  C   UNL     1      44.183 -20.558   3.124  1.00  0.00     0.050 A 
HETATM   26  C   UNL     1      45.070 -20.305   4.179  1.00  0.00     0.018 A 
HETATM   27  C   UNL     1      44.978 -19.116   4.906  1.00  0.00     0.027 A 
HETATM   28  C   UNL     1      43.994 -18.174   4.589  1.00  0.00     0.060 A 
HETATM   29 CL   UNL     1      43.932 -16.716   5.521  1.00  0.00    -0.082 Cl
BRANCH  25  30
HETATM   30  C   UNL     1      44.259 -21.836   2.322  1.00  0.00     0.417 C 
HETATM   31  F   UNL     1      45.277 -21.841   1.416  1.00  0.00    -0.166 F 
HETATM   32  F   UNL     1      44.454 -22.932   3.104  1.00  0.00    -0.166 F 
HETATM   33  F   UNL     1      43.127 -22.076   1.606  1.00  0.00    -0.166 F 
ENDBRANCH  25  30
ENDBRANCH   1  23
TORSDOF 6
ENDMDL
MODEL 9
REMARK VINA RESULT:      -8.5      6.403     10.057
REMARK  6 active torsions:
REMARK  status: ('A' for Active; 'I' for Inactive)
REMARK    1  A    between atoms: C_2  and  C_3 
REMARK    2  A    between atoms: C_8  and  N_9 
REMARK       I    between atoms: N_9  and  C_10 
REMARK       I    between atoms: C_10  and  N_11 
REMARK    3  A    between atoms: N_11  and  N_12 
REMARK       I    between atoms: N_12  and  C_13 
REMARK    4  A    between atoms: C_13  and  C_14 
REMARK    5  A    between atoms: C_14  and  N_15 
REMARK       I    between atoms: N_15  and  C_16 
REMARK       I    between atoms: C_16  and  N_17 
REMARK    6  A    between atoms: N_17  and  C_18 
ROOT
HETATM    1  N   UNL     1      43.581 -11.842   9.683  1.00  0.00    -0.306 N 
HETATM    2  C   UNL     1      44.791 -11.729   9.050  1.00  0.00     0.339 C 
HETATM    3  N   UNL     1      45.149 -12.815   8.294  1.00  0.00    -0.249 N 
HETATM    4  O   UNL     1      45.547 -10.764   9.098  1.00  0.00    -0.245 OA
HETATM    5  H   UNL     1      43.202 -12.780   9.717  1.00  0.00     0.171 HD
HETATM    6  H   UNL     1      46.090 -12.815   7.898  1.00  0.00     0.192 HD
ENDROOT
BRANCH   3   7
HETATM    7  N   UNL     1      44.423 -14.013   8.187  1.00  0.00    -0.265 N 
HETATM    8  C   UNL     1      44.279 -14.489   6.889  1.00  0.00     0.253 C 
HETATM    9  O   UNL     1      44.896 -13.999   5.941  1.00  0.00    -0.270 OA
HETATM   10  H   UNL     1      43.602 -14.116   8.794  1.00  0.00     0.190 HD
BRANCH   8  11
HETATM   11  C   UNL     1      43.159 -15.507   6.679  1.00  0.00     0.228 C 
BRANCH  11  12
HETATM   12  N   UNL     1      41.949 -14.973   6.090  1.00  0.00    -0.334 N 
HETATM   13  C   UNL     1      40.774 -15.651   6.052  1.00  0.00     0.322 C 
HETATM   14  N   UNL     1      39.657 -14.967   5.697  1.00  0.00    -0.287 N 
HETATM   15  O   UNL     1      40.722 -16.858   6.297  1.00  0.00    -0.247 OA
HETATM   16  H   UNL     1      38.797 -15.493   5.659  1.00  0.00     0.172 HD
HETATM   17  H   UNL     1      41.899 -13.968   5.927  1.00  0.00     0.164 HD
BRANCH  14  18
HETATM   18  C   UNL     1      39.604 -13.636   5.397  1.00  0.00     0.174 A 
HETATM   19  S   UNL     1      39.743 -13.260   3.741  1.00  0.00    -0.062 SA
HETATM   20  C   UNL     1      39.620 -11.593   4.135  1.00  0.00     0.072 A 
HETATM   21  C   UNL     1      39.476 -11.449   5.499  1.00  0.00     0.126 A 
HETATM   22  N   UNL     1      39.460 -12.627   6.224  1.00  0.00    -0.236 NA
ENDBRANCH  14  18
ENDBRANCH  11  12
ENDBRANCH   8  11
ENDBRANCH   3   7
BRANCH   1  23
HETATM   23  C   UNL     1      42.903 -10.849  10.431  1.00  0.00     0.059 A 
HETATM   24  C   UNL     1      43.138 -10.640  11.796  1.00  0.00     0.047 A 
HETATM   25  C   UNL     1      42.464  -9.635  12.514  1.00  0.00     0.050 A 
HETATM   26  C   UNL     1      41.530  -8.833  11.844  1.00  0.00     0.018 A 
HETATM   27  C   UNL     1      41.289  -9.022  10.482  1.00  0.00     0.027 A 
HETATM   28  C   UNL     1      41.975 -10.019   9.779  1.00  0.00     0.060 A 
HETATM   29 CL   UNL     1      41.640 -10.202   8.090  1.00  0.00    -0.082 Cl
BRANCH  25  30
HETATM   30  C   UNL     1      42.742  -9.454  13.988  1.00  0.00     0.417 C 
HETATM   31  F   UNL     1      44.039  -9.127  14.253  1.00  0.00    -0.166 F 
HETATM   32  F   UNL     1      41.990  -8.466  14.544  1.00  0.00    -0.166 F 
HETATM   33  F   UNL     1      42.491 -10.578  14.713  1.00  0.00    -0.166 F 
ENDBRANCH  25  30
ENDBRANCH   1  23
TORSDOF 6
ENDMDL
MODEL 10
REMARK VINA RESULT:      -8.4      4.711      6.454
REMARK  6 active torsions:
REMARK  status: ('A' for Active; 'I' for Inactive)
REMARK    1  A    between atoms: C_2  and  C_3 
REMARK    2  A    between atoms: C_8  and  N_9 
REMARK       I    between atoms: N_9  and  C_10 
REMARK       I    between atoms: C_10  and  N_11 
REMARK    3  A    between atoms: N_11  and  N_12 
REMARK       I    between atoms: N_12  and  C_13 
REMARK    4  A    between atoms: C_13  and  C_14 
REMARK    5  A    between atoms: C_14  and  N_15 
REMARK       I    between atoms: N_15  and  C_16 
REMARK       I    between atoms: C_16  and  N_17 
REMARK    6  A    between atoms: N_17  and  C_18 
ROOT
HETATM    1  N   UNL     1      41.887 -16.061   4.843  1.00  0.00    -0.306 N 
HETATM    2  C   UNL     1      40.944 -16.127   5.835  1.00  0.00     0.339 C 
HETATM    3  N   UNL     1      40.681 -14.936   6.459  1.00  0.00    -0.249 N 
HETATM    4  O   UNL     1      40.333 -17.131   6.189  1.00  0.00    -0.245 OA
HETATM    5  H   UNL     1      42.445 -15.217   4.838  1.00  0.00     0.171 HD
HETATM    6  H   UNL     1      40.068 -14.965   7.275  1.00  0.00     0.192 HD
ENDROOT
BRANCH   3   7
HETATM    7  N   UNL     1      41.337 -13.719   6.210  1.00  0.00    -0.265 N 
HETATM    8  C   UNL     1      40.607 -12.813   5.450  1.00  0.00     0.253 C 
HETATM    9  O   UNL     1      39.417 -12.993   5.182  1.00  0.00    -0.270 OA
HETATM   10  H   UNL     1      42.342 -13.764   6.007  1.00  0.00     0.190 HD
BRANCH   8  11
HETATM   11  C   UNL     1      41.418 -11.695   4.795  1.00  0.00     0.228 C 
BRANCH  11  12
HETATM   12  N   UNL     1      41.657 -11.862   3.377  1.00  0.00    -0.334 N 
HETATM   13  C   UNL     1      42.359 -12.899   2.855  1.00  0.00     0.322 C 
HETATM   14  N   UNL     1      42.313 -13.083   1.510  1.00  0.00    -0.287 N 
HETATM   15  O   UNL     1      43.045 -13.633   3.568  1.00  0.00    -0.247 OA
HETATM   16  H   UNL     1      42.855 -13.850   1.140  1.00  0.00     0.172 HD
HETATM   17  H   UNL     1      41.072 -11.336   2.728  1.00  0.00     0.164 HD
BRANCH  14  18
HETATM   18  C   UNL     1      41.596 -12.326   0.629  1.00  0.00     0.174 A 
HETATM   19  S   UNL     1      40.475 -13.188  -0.322  1.00  0.00    -0.062 SA
HETATM   20  C   UNL     1      40.041 -11.718  -1.095  1.00  0.00     0.072 A 
HETATM   21  C   UNL     1      40.778 -10.680  -0.566  1.00  0.00     0.126 A 
HETATM   22  N   UNL     1      41.670 -11.032   0.432  1.00  0.00    -0.236 NA
ENDBRANCH  14  18
ENDBRANCH  11  12
ENDBRANCH   8  11
ENDBRANCH   3   7
BRANCH   1  23
HETATM   23  C   UNL     1      42.280 -17.093   3.957  1.00  0.00     0.059 A 
HETATM   24  C   UNL     1      43.239 -18.057   4.297  1.00  0.00     0.047 A 
HETATM   25  C   UNL     1      43.600 -19.083   3.404  1.00  0.00     0.050 A 
HETATM   26  C   UNL     1      42.989 -19.133   2.144  1.00  0.00     0.018 A 
HETATM   27  C   UNL     1      42.025 -18.186   1.792  1.00  0.00     0.027 A 
HETATM   28  C   UNL     1      41.669 -17.177   2.694  1.00  0.00     0.060 A 
HETATM   29 CL   UNL     1      40.463 -16.034   2.205  1.00  0.00    -0.082 Cl
BRANCH  25  30
HETATM   30  C   UNL     1      44.647 -20.094   3.810  1.00  0.00     0.417 C 
HETATM   31  F   UNL     1      45.452 -19.656   4.819  1.00  0.00    -0.166 F 
HETATM   32  F   UNL     1      44.104 -21.261   4.249  1.00  0.00    -0.166 F 
HETATM   33  F   UNL     1      45.484 -20.424   2.789  1.00  0.00    -0.166 F 
ENDBRANCH  25  30
ENDBRANCH   1  23
TORSDOF 6
ENDMDL
