MODEL 1
REMARK VINA RESULT:      -9.3      0.000      0.000
REMARK  7 active torsions:
REMARK  status: ('A' for Active; 'I' for Inactive)
REMARK    1  A    between atoms: C_5  and  C_6 
REMARK    2  A    between atoms: C_6  and  C_7 
REMARK    3  A    between atoms: C_7  and  N_8 
REMARK       I    between atoms: N_8  and  C_9 
REMARK    4  A    between atoms: C_9  and  C_10 
REMARK    5  A    between atoms: C_13  and  O_14 
REMARK    6  A    between atoms: C_15  and  C_16 
REMARK    7  A    between atoms: C_16  and  C_17 
ROOT
HETATM    1  C   UNL     1      41.277 -15.075   5.256  1.00  0.00     0.099 A 
HETATM    2  C   UNL     1      40.976 -15.189   3.911  1.00  0.00     0.171 A 
HETATM    3  N   UNL     1      40.021 -14.219   3.644  1.00  0.00    -0.192 N 
HETATM    4  C   UNL     1      39.579 -13.979   2.337  1.00  0.00     0.174 C 
HETATM    5  C   UNL     1      40.070 -14.699   1.307  1.00  0.00     0.023 C 
HETATM    6  C   UNL     1      40.998 -15.822   1.722  1.00  0.00     0.044 C 
HETATM    7  C   UNL     1      41.446 -16.830   0.686  1.00  0.00     0.071 C 
HETATM    8  N   UNL     1      41.444 -16.020   2.933  1.00  0.00    -0.233 NA
HETATM    9  N   UNL     1      39.646 -13.538   4.758  1.00  0.00    -0.175 NA
HETATM   10  C   UNL     1      40.415 -14.057   5.719  1.00  0.00     0.160 A 
ENDROOT
BRANCH   1  11
HETATM   11  C   UNL     1      42.260 -15.811   6.025  1.00  0.00     0.257 C 
HETATM   12  N   UNL     1      42.144 -17.180   5.946  1.00  0.00    -0.356 N 
HETATM   13  H   UNL     1      41.415 -17.548   5.337  1.00  0.00     0.162 HD
HETATM   14  O   UNL     1      43.139 -15.243   6.664  1.00  0.00    -0.267 OA
BRANCH  12  15
HETATM   15  C   UNL     1      43.140 -18.067   6.503  1.00  0.00     0.127 C 
BRANCH  15  16
HETATM   16  C   UNL     1      44.419 -18.079   5.668  1.00  0.00     0.058 C 
BRANCH  16  17
HETATM   17  C   UNL     1      44.352 -19.083   4.547  1.00  0.00    -0.057 A 
HETATM   18  C   UNL     1      43.857 -18.713   3.292  1.00  0.00     0.007 A 
HETATM   19  C   UNL     1      43.772 -19.649   2.258  1.00  0.00     0.007 A 
HETATM   20  C   UNL     1      44.171 -20.974   2.467  1.00  0.00    -0.062 A 
HETATM   21  C   UNL     1      44.097 -21.983   1.361  1.00  0.00     0.048 C 
HETATM   22  C   UNL     1      44.668 -21.344   3.721  1.00  0.00     0.007 A 
HETATM   23  C   UNL     1      44.754 -20.408   4.754  1.00  0.00     0.007 A 
ENDBRANCH  16  17
ENDBRANCH  15  16
ENDBRANCH  12  15
ENDBRANCH   1  11
BRANCH   4  24
HETATM   24  O   UNL     1      38.677 -12.941   2.139  1.00  0.00    -0.344 OA
HETATM   25  H   UNL     1      39.153 -12.282   1.588  1.00  0.00     0.219 HD
ENDBRANCH   4  24
BRANCH   5  26
HETATM   26  C   UNL     1      39.752 -14.414  -0.137  1.00  0.00     0.084 C 
BRANCH  26  27
HETATM   27  C   UNL     1      40.835 -13.669  -0.903  1.00  0.00    -0.047 A 
HETATM   28  C   UNL     1      41.381 -14.128  -2.121  1.00  0.00    -0.055 A 
HETATM   29  C   UNL     1      40.958 -15.418  -2.770  1.00  0.00     0.049 C 
HETATM   30  C   UNL     1      42.343 -13.344  -2.779  1.00  0.00     0.008 A 
HETATM   31  C   UNL     1      42.794 -12.143  -2.231  1.00  0.00     0.007 A 
HETATM   32  C   UNL     1      42.291 -11.694  -1.012  1.00  0.00    -0.061 A 
HETATM   33  C   UNL     1      42.803 -10.428  -0.392  1.00  0.00     0.048 C 
HETATM   34  C   UNL     1      41.331 -12.468  -0.349  1.00  0.00     0.014 A 
ENDBRANCH  26  27
ENDBRANCH   5  26
TORSDOF 7
ENDMDL
MODEL 2
REMARK VINA RESULT:      -9.0      4.899      8.806
REMARK  7 active torsions:
REMARK  status: ('A' for Active; 'I' for Inactive)
REMARK    1  A    between atoms: C_5  and  C_6 
REMARK    2  A    between atoms: C_6  and  C_7 
REMARK    3  A    between atoms: C_7  and  N_8 
REMARK       I    between atoms: N_8  and  C_9 
REMARK    4  A    between atoms: C_9  and  C_10 
REMARK    5  A    between atoms: C_13  and  O_14 
REMARK    6  A    between atoms: C_15  and  C_16 
REMARK    7  A    between atoms: C_16  and  C_17 
ROOT
HETATM    1  C   UNL     1      40.271 -12.226   6.477  1.00  0.00     0.099 A 
HETATM    2  C   UNL     1      41.239 -13.014   5.880  1.00  0.00     0.171 A 
HETATM    3  N   UNL     1      40.578 -13.800   4.947  1.00  0.00    -0.192 N 
HETATM    4  C   UNL     1      41.285 -14.635   4.074  1.00  0.00     0.174 C 
HETATM    5  C   UNL     1      42.631 -14.700   4.131  1.00  0.00     0.023 C 
HETATM    6  C   UNL     1      43.242 -13.914   5.274  1.00  0.00     0.044 C 
HETATM    7  C   UNL     1      44.716 -14.075   5.575  1.00  0.00     0.071 C 
HETATM    8  N   UNL     1      42.590 -13.103   6.062  1.00  0.00    -0.233 NA
HETATM    9  N   UNL     1      39.233 -13.605   4.962  1.00  0.00    -0.175 NA
HETATM   10  C   UNL     1      39.063 -12.650   5.881  1.00  0.00     0.160 A 
ENDROOT
BRANCH   1  11
HETATM   11  C   UNL     1      40.443 -11.188   7.473  1.00  0.00     0.257 C 
HETATM   12  N   UNL     1      41.520 -11.367   8.310  1.00  0.00    -0.356 N 
HETATM   13  H   UNL     1      42.112 -12.178   8.136  1.00  0.00     0.162 HD
HETATM   14  O   UNL     1      39.696 -10.217   7.531  1.00  0.00    -0.267 OA
BRANCH  12  15
HETATM   15  C   UNL     1      41.944 -10.347   9.243  1.00  0.00     0.127 C 
BRANCH  15  16
HETATM   16  C   UNL     1      43.051 -10.850  10.166  1.00  0.00     0.058 C 
BRANCH  16  17
HETATM   17  C   UNL     1      42.758 -10.553  11.614  1.00  0.00    -0.057 A 
HETATM   18  C   UNL     1      41.582 -11.019  12.210  1.00  0.00     0.007 A 
HETATM   19  C   UNL     1      41.297 -10.725  13.545  1.00  0.00     0.007 A 
HETATM   20  C   UNL     1      42.180  -9.948  14.304  1.00  0.00    -0.062 A 
HETATM   21  C   UNL     1      41.891  -9.637  15.742  1.00  0.00     0.048 C 
HETATM   22  C   UNL     1      43.358  -9.483  13.709  1.00  0.00     0.007 A 
HETATM   23  C   UNL     1      43.643  -9.778  12.374  1.00  0.00     0.007 A 
ENDBRANCH  16  17
ENDBRANCH  15  16
ENDBRANCH  12  15
ENDBRANCH   1  11
BRANCH   4  24
HETATM   24  O   UNL     1      40.560 -15.333   3.117  1.00  0.00    -0.344 OA
HETATM   25  H   UNL     1      39.818 -15.754   3.605  1.00  0.00     0.219 HD
ENDBRANCH   4  24
BRANCH   5  26
HETATM   26  C   UNL     1      43.474 -15.465   3.144  1.00  0.00     0.084 C 
BRANCH  26  27
HETATM   27  C   UNL     1      43.626 -16.949   3.439  1.00  0.00    -0.047 A 
HETATM   28  C   UNL     1      43.758 -17.931   2.434  1.00  0.00    -0.055 A 
HETATM   29  C   UNL     1      43.737 -17.603   0.965  1.00  0.00     0.049 C 
HETATM   30  C   UNL     1      43.945 -19.273   2.807  1.00  0.00     0.008 A 
HETATM   31  C   UNL     1      43.961 -19.654   4.149  1.00  0.00     0.007 A 
HETATM   32  C   UNL     1      43.796 -18.702   5.152  1.00  0.00    -0.061 A 
HETATM   33  C   UNL     1      43.766 -19.107   6.596  1.00  0.00     0.048 C 
HETATM   34  C   UNL     1      43.611 -17.362   4.790  1.00  0.00     0.014 A 
ENDBRANCH  26  27
ENDBRANCH   5  26
TORSDOF 7
ENDMDL
MODEL 3
REMARK VINA RESULT:      -8.7      4.716      8.748
REMARK  7 active torsions:
REMARK  status: ('A' for Active; 'I' for Inactive)
REMARK    1  A    between atoms: C_5  and  C_6 
REMARK    2  A    between atoms: C_6  and  C_7 
REMARK    3  A    between atoms: C_7  and  N_8 
REMARK       I    between atoms: N_8  and  C_9 
REMARK    4  A    between atoms: C_9  and  C_10 
REMARK    5  A    between atoms: C_13  and  O_14 
REMARK    6  A    between atoms: C_15  and  C_16 
REMARK    7  A    between atoms: C_16  and  C_17 
ROOT
HETATM    1  C   UNL     1      41.349 -12.208   5.724  1.00  0.00     0.099 A 
HETATM    2  C   UNL     1      41.187 -13.546   5.412  1.00  0.00     0.171 A 
HETATM    3  N   UNL     1      41.526 -13.675   4.073  1.00  0.00    -0.192 N 
HETATM    4  C   UNL     1      41.588 -14.932   3.459  1.00  0.00     0.174 C 
HETATM    5  C   UNL     1      41.306 -16.049   4.162  1.00  0.00     0.023 C 
HETATM    6  C   UNL     1      40.812 -15.788   5.570  1.00  0.00     0.044 C 
HETATM    7  C   UNL     1      40.264 -16.939   6.385  1.00  0.00     0.071 C 
HETATM    8  N   UNL     1      40.794 -14.622   6.156  1.00  0.00    -0.233 NA
HETATM    9  N   UNL     1      41.831 -12.483   3.496  1.00  0.00    -0.175 NA
HETATM   10  C   UNL     1      41.729 -11.611   4.503  1.00  0.00     0.160 A 
ENDROOT
BRANCH   1  11
HETATM   11  C   UNL     1      41.188 -11.558   7.009  1.00  0.00     0.257 C 
HETATM   12  N   UNL     1      42.350 -11.418   7.732  1.00  0.00    -0.356 N 
HETATM   13  H   UNL     1      43.211 -11.744   7.294  1.00  0.00     0.162 HD
HETATM   14  O   UNL     1      40.099 -11.142   7.392  1.00  0.00    -0.267 OA
BRANCH  12  15
HETATM   15  C   UNL     1      42.406 -10.641   8.950  1.00  0.00     0.127 C 
BRANCH  15  16
HETATM   16  C   UNL     1      43.304 -11.296   9.998  1.00  0.00     0.058 C 
BRANCH  16  17
HETATM   17  C   UNL     1      42.961 -10.847  11.395  1.00  0.00    -0.057 A 
HETATM   18  C   UNL     1      43.798  -9.960  12.080  1.00  0.00     0.007 A 
HETATM   19  C   UNL     1      43.495  -9.561  13.384  1.00  0.00     0.007 A 
HETATM   20  C   UNL     1      42.353 -10.051  14.028  1.00  0.00    -0.062 A 
HETATM   21  C   UNL     1      42.010  -9.620  15.422  1.00  0.00     0.048 C 
HETATM   22  C   UNL     1      41.514 -10.936  13.342  1.00  0.00     0.007 A 
HETATM   23  C   UNL     1      41.817 -11.334  12.038  1.00  0.00     0.007 A 
ENDBRANCH  16  17
ENDBRANCH  15  16
ENDBRANCH  12  15
ENDBRANCH   1  11
BRANCH   4  24
HETATM   24  O   UNL     1      42.008 -14.987   2.137  1.00  0.00    -0.344 OA
HETATM   25  H   UNL     1      42.718 -15.667   2.115  1.00  0.00     0.219 HD
ENDBRANCH   4  24
BRANCH   5  26
HETATM   26  C   UNL     1      41.480 -17.443   3.619  1.00  0.00     0.084 C 
BRANCH  26  27
HETATM   27  C   UNL     1      42.763 -18.144   4.038  1.00  0.00    -0.047 A 
HETATM   28  C   UNL     1      43.410 -19.118   3.246  1.00  0.00    -0.055 A 
HETATM   29  C   UNL     1      42.875 -19.575   1.916  1.00  0.00     0.049 C 
HETATM   30  C   UNL     1      44.619 -19.674   3.696  1.00  0.00     0.008 A 
HETATM   31  C   UNL     1      45.168 -19.310   4.925  1.00  0.00     0.007 A 
HETATM   32  C   UNL     1      44.524 -18.376   5.734  1.00  0.00    -0.061 A 
HETATM   33  C   UNL     1      45.082 -18.013   7.078  1.00  0.00     0.048 C 
HETATM   34  C   UNL     1      43.319 -17.816   5.293  1.00  0.00     0.014 A 
ENDBRANCH  26  27
ENDBRANCH   5  26
TORSDOF 7
ENDMDL
MODEL 4
REMARK VINA RESULT:      -8.7      1.972      7.711
REMARK  7 active torsions:
REMARK  status: ('A' for Active; 'I' for Inactive)
REMARK    1  A    between atoms: C_5  and  C_6 
REMARK    2  A    between atoms: C_6  and  C_7 
REMARK    3  A    between atoms: C_7  and  N_8 
REMARK       I    between atoms: N_8  and  C_9 
REMARK    4  A    between atoms: C_9  and  C_10 
REMARK    5  A    between atoms: C_13  and  O_14 
REMARK    6  A    between atoms: C_15  and  C_16 
REMARK    7  A    between atoms: C_16  and  C_17 
ROOT
HETATM    1  C   UNL     1      40.883 -12.654   1.552  1.00  0.00     0.099 A 
HETATM    2  C   UNL     1      41.319 -13.914   1.918  1.00  0.00     0.171 A 
HETATM    3  N   UNL     1      40.703 -14.203   3.126  1.00  0.00    -0.192 N 
HETATM    4  C   UNL     1      40.834 -15.462   3.724  1.00  0.00     0.174 C 
HETATM    5  C   UNL     1      41.577 -16.422   3.135  1.00  0.00     0.023 C 
HETATM    6  C   UNL     1      42.319 -15.962   1.898  1.00  0.00     0.044 C 
HETATM    7  C   UNL     1      43.348 -16.878   1.271  1.00  0.00     0.071 C 
HETATM    8  N   UNL     1      42.165 -14.803   1.316  1.00  0.00    -0.233 NA
HETATM    9  N   UNL     1      39.950 -13.169   3.585  1.00  0.00    -0.175 NA
HETATM   10  C   UNL     1      40.060 -12.247   2.624  1.00  0.00     0.160 A 
ENDROOT
BRANCH   1  11
HETATM   11  C   UNL     1      41.179 -11.914   0.341  1.00  0.00     0.257 C 
HETATM   12  N   UNL     1      42.327 -12.307  -0.306  1.00  0.00    -0.356 N 
HETATM   13  H   UNL     1      42.840 -13.092   0.095  1.00  0.00     0.162 HD
HETATM   14  O   UNL     1      40.435 -11.033  -0.076  1.00  0.00    -0.267 OA
BRANCH  12  15
HETATM   15  C   UNL     1      42.682 -11.801  -1.613  1.00  0.00     0.127 C 
BRANCH  15  16
HETATM   16  C   UNL     1      42.799 -12.924  -2.642  1.00  0.00     0.058 C 
BRANCH  16  17
HETATM   17  C   UNL     1      41.461 -13.537  -2.964  1.00  0.00    -0.057 A 
HETATM   18  C   UNL     1      40.345 -12.725  -3.189  1.00  0.00     0.007 A 
HETATM   19  C   UNL     1      39.098 -13.293  -3.464  1.00  0.00     0.007 A 
HETATM   20  C   UNL     1      38.945 -14.683  -3.507  1.00  0.00    -0.062 A 
HETATM   21  C   UNL     1      37.615 -15.303  -3.815  1.00  0.00     0.048 C 
HETATM   22  C   UNL     1      40.062 -15.496  -3.283  1.00  0.00     0.007 A 
HETATM   23  C   UNL     1      41.309 -14.928  -3.009  1.00  0.00     0.007 A 
ENDBRANCH  16  17
ENDBRANCH  15  16
ENDBRANCH  12  15
ENDBRANCH   1  11
BRANCH   4  24
HETATM   24  O   UNL     1      40.126 -15.700   4.894  1.00  0.00    -0.344 OA
HETATM   25  H   UNL     1      39.284 -15.203   4.797  1.00  0.00     0.219 HD
ENDBRANCH   4  24
BRANCH   5  26
HETATM   26  C   UNL     1      41.660 -17.840   3.638  1.00  0.00     0.084 C 
BRANCH  26  27
HETATM   27  C   UNL     1      42.762 -18.102   4.653  1.00  0.00    -0.047 A 
HETATM   28  C   UNL     1      43.899 -18.891   4.378  1.00  0.00    -0.055 A 
HETATM   29  C   UNL     1      44.119 -19.573   3.055  1.00  0.00     0.049 C 
HETATM   30  C   UNL     1      44.889 -19.034   5.365  1.00  0.00     0.008 A 
HETATM   31  C   UNL     1      44.748 -18.444   6.621  1.00  0.00     0.007 A 
HETATM   32  C   UNL     1      43.615 -17.690   6.920  1.00  0.00    -0.061 A 
HETATM   33  C   UNL     1      43.432 -17.090   8.282  1.00  0.00     0.048 C 
HETATM   34  C   UNL     1      42.624 -17.541   5.942  1.00  0.00     0.014 A 
ENDBRANCH  26  27
ENDBRANCH   5  26
TORSDOF 7
ENDMDL
MODEL 5
REMARK VINA RESULT:      -8.6      1.937      2.623
REMARK  7 active torsions:
REMARK  status: ('A' for Active; 'I' for Inactive)
REMARK    1  A    between atoms: C_5  and  C_6 
REMARK    2  A    between atoms: C_6  and  C_7 
REMARK    3  A    between atoms: C_7  and  N_8 
REMARK       I    between atoms: N_8  and  C_9 
REMARK    4  A    between atoms: C_9  and  C_10 
REMARK    5  A    between atoms: C_13  and  O_14 
REMARK    6  A    between atoms: C_15  and  C_16 
REMARK    7  A    between atoms: C_16  and  C_17 
ROOT
HETATM    1  C   UNL     1      43.182 -15.072   5.294  1.00  0.00     0.099 A 
HETATM    2  C   UNL     1      42.773 -15.181   3.977  1.00  0.00     0.171 A 
HETATM    3  N   UNL     1      42.699 -13.886   3.485  1.00  0.00    -0.192 N 
HETATM    4  C   UNL     1      42.427 -13.638   2.135  1.00  0.00     0.174 C 
HETATM    5  C   UNL     1      42.221 -14.662   1.281  1.00  0.00     0.023 C 
HETATM    6  C   UNL     1      42.183 -16.024   1.944  1.00  0.00     0.044 C 
HETATM    7  C   UNL     1      41.749 -17.227   1.134  1.00  0.00     0.071 C 
HETATM    8  N   UNL     1      42.477 -16.260   3.194  1.00  0.00    -0.233 NA
HETATM    9  N   UNL     1      42.973 -12.953   4.435  1.00  0.00    -0.175 NA
HETATM   10  C   UNL     1      43.270 -13.681   5.516  1.00  0.00     0.160 A 
ENDROOT
BRANCH   1  11
HETATM   11  C   UNL     1      43.474 -16.134   6.237  1.00  0.00     0.257 C 
HETATM   12  N   UNL     1      44.394 -17.057   5.795  1.00  0.00    -0.356 N 
HETATM   13  H   UNL     1      44.807 -16.897   4.878  1.00  0.00     0.162 HD
HETATM   14  O   UNL     1      42.957 -16.171   7.348  1.00  0.00    -0.267 OA
BRANCH  12  15
HETATM   15  C   UNL     1      44.932 -18.078   6.666  1.00  0.00     0.127 C 
BRANCH  15  16
HETATM   16  C   UNL     1      44.086 -19.349   6.638  1.00  0.00     0.058 C 
BRANCH  16  17
HETATM   17  C   UNL     1      44.175 -20.057   5.311  1.00  0.00    -0.057 A 
HETATM   18  C   UNL     1      44.632 -21.377   5.241  1.00  0.00     0.007 A 
HETATM   19  C   UNL     1      44.738 -22.028   4.009  1.00  0.00     0.007 A 
HETATM   20  C   UNL     1      44.397 -21.364   2.825  1.00  0.00    -0.062 A 
HETATM   21  C   UNL     1      44.493 -22.056   1.498  1.00  0.00     0.048 C 
HETATM   22  C   UNL     1      43.937 -20.044   2.895  1.00  0.00     0.007 A 
HETATM   23  C   UNL     1      43.831 -19.394   4.127  1.00  0.00     0.007 A 
ENDBRANCH  16  17
ENDBRANCH  15  16
ENDBRANCH  12  15
ENDBRANCH   1  11
BRANCH   4  24
HETATM   24  O   UNL     1      42.445 -12.318   1.702  1.00  0.00    -0.344 OA
HETATM   25  H   UNL     1      41.538 -12.139   1.369  1.00  0.00     0.219 HD
ENDBRANCH   4  24
BRANCH   5  26
HETATM   26  C   UNL     1      42.058 -14.490  -0.206  1.00  0.00     0.084 C 
BRANCH  26  27
HETATM   27  C   UNL     1      40.628 -14.277  -0.679  1.00  0.00    -0.047 A 
HETATM   28  C   UNL     1      40.213 -14.479  -2.013  1.00  0.00    -0.055 A 
HETATM   29  C   UNL     1      41.156 -14.904  -3.106  1.00  0.00     0.049 C 
HETATM   30  C   UNL     1      38.859 -14.304  -2.343  1.00  0.00     0.008 A 
HETATM   31  C   UNL     1      37.929 -13.897  -1.387  1.00  0.00     0.007 A 
HETATM   32  C   UNL     1      38.329 -13.659  -0.073  1.00  0.00    -0.061 A 
HETATM   33  C   UNL     1      37.346 -13.177   0.952  1.00  0.00     0.048 C 
HETATM   34  C   UNL     1      39.677 -13.832   0.265  1.00  0.00     0.014 A 
ENDBRANCH  26  27
ENDBRANCH   5  26
TORSDOF 7
ENDMDL
MODEL 6
REMARK VINA RESULT:      -8.5      2.309      8.235
REMARK  7 active torsions:
REMARK  status: ('A' for Active; 'I' for Inactive)
REMARK    1  A    between atoms: C_5  and  C_6 
REMARK    2  A    between atoms: C_6  and  C_7 
REMARK    3  A    between atoms: C_7  and  N_8 
REMARK       I    between atoms: N_8  and  C_9 
REMARK    4  A    between atoms: C_9  and  C_10 
REMARK    5  A    between atoms: C_13  and  O_14 
REMARK    6  A    between atoms: C_15  and  C_16 
REMARK    7  A    between atoms: C_16  and  C_17 
ROOT
HETATM    1  C   UNL     1      41.502 -13.463   0.661  1.00  0.00     0.099 A 
HETATM    2  C   UNL     1      41.885 -14.021   1.867  1.00  0.00     0.171 A 
HETATM    3  N   UNL     1      40.970 -15.027   2.138  1.00  0.00    -0.192 N 
HETATM    4  C   UNL     1      41.135 -15.881   3.235  1.00  0.00     0.174 C 
HETATM    5  C   UNL     1      42.191 -15.733   4.062  1.00  0.00     0.023 C 
HETATM    6  C   UNL     1      43.049 -14.521   3.762  1.00  0.00     0.044 C 
HETATM    7  C   UNL     1      44.134 -14.125   4.739  1.00  0.00     0.071 C 
HETATM    8  N   UNL     1      42.921 -13.750   2.716  1.00  0.00    -0.233 NA
HETATM    9  N   UNL     1      39.985 -15.098   1.205  1.00  0.00    -0.175 NA
HETATM   10  C   UNL     1      40.322 -14.157   0.318  1.00  0.00     0.160 A 
ENDROOT
BRANCH   1  11
HETATM   11  C   UNL     1      42.159 -12.417  -0.098  1.00  0.00     0.257 C 
HETATM   12  N   UNL     1      42.385 -12.723  -1.420  1.00  0.00    -0.356 N 
HETATM   13  H   UNL     1      42.044 -13.624  -1.752  1.00  0.00     0.162 HD
HETATM   14  O   UNL     1      42.455 -11.340   0.408  1.00  0.00    -0.267 OA
BRANCH  12  15
HETATM   15  C   UNL     1      42.869 -11.739  -2.362  1.00  0.00     0.127 C 
BRANCH  15  16
HETATM   16  C   UNL     1      42.130 -11.820  -3.695  1.00  0.00     0.058 C 
BRANCH  16  17
HETATM   17  C   UNL     1      40.893 -12.676  -3.604  1.00  0.00    -0.057 A 
HETATM   18  C   UNL     1      40.989 -14.070  -3.667  1.00  0.00     0.007 A 
HETATM   19  C   UNL     1      39.841 -14.864  -3.606  1.00  0.00     0.007 A 
HETATM   20  C   UNL     1      38.577 -14.276  -3.492  1.00  0.00    -0.062 A 
HETATM   21  C   UNL     1      37.339 -15.119  -3.412  1.00  0.00     0.048 C 
HETATM   22  C   UNL     1      38.480 -12.881  -3.427  1.00  0.00     0.007 A 
HETATM   23  C   UNL     1      39.628 -12.088  -3.487  1.00  0.00     0.007 A 
ENDBRANCH  16  17
ENDBRANCH  15  16
ENDBRANCH  12  15
ENDBRANCH   1  11
BRANCH   4  24
HETATM   24  O   UNL     1      40.219 -16.912   3.397  1.00  0.00    -0.344 OA
HETATM   25  H   UNL     1      40.360 -17.247   4.310  1.00  0.00     0.219 HD
ENDBRANCH   4  24
BRANCH   5  26
HETATM   26  C   UNL     1      42.516 -16.688   5.181  1.00  0.00     0.084 C 
BRANCH  26  27
HETATM   27  C   UNL     1      43.375 -17.879   4.784  1.00  0.00    -0.047 A 
HETATM   28  C   UNL     1      44.455 -18.350   5.560  1.00  0.00    -0.055 A 
HETATM   29  C   UNL     1      44.878 -17.701   6.850  1.00  0.00     0.049 C 
HETATM   30  C   UNL     1      45.159 -19.489   5.135  1.00  0.00     0.008 A 
HETATM   31  C   UNL     1      44.834 -20.136   3.942  1.00  0.00     0.007 A 
HETATM   32  C   UNL     1      43.793 -19.662   3.147  1.00  0.00    -0.061 A 
HETATM   33  C   UNL     1      43.466 -20.322   1.840  1.00  0.00     0.048 C 
HETATM   34  C   UNL     1      43.086 -18.527   3.564  1.00  0.00     0.014 A 
ENDBRANCH  26  27
ENDBRANCH   5  26
TORSDOF 7
ENDMDL
MODEL 7
REMARK VINA RESULT:      -8.3      1.910      2.715
REMARK  7 active torsions:
REMARK  status: ('A' for Active; 'I' for Inactive)
REMARK    1  A    between atoms: C_5  and  C_6 
REMARK    2  A    between atoms: C_6  and  C_7 
REMARK    3  A    between atoms: C_7  and  N_8 
REMARK       I    between atoms: N_8  and  C_9 
REMARK    4  A    between atoms: C_9  and  C_10 
REMARK    5  A    between atoms: C_13  and  O_14 
REMARK    6  A    between atoms: C_15  and  C_16 
REMARK    7  A    between atoms: C_16  and  C_17 
ROOT
HETATM    1  C   UNL     1      42.806 -16.013   3.780  1.00  0.00     0.099 A 
HETATM    2  C   UNL     1      42.202 -15.148   2.885  1.00  0.00     0.171 A 
HETATM    3  N   UNL     1      42.371 -15.710   1.629  1.00  0.00    -0.192 N 
HETATM    4  C   UNL     1      41.770 -15.146   0.497  1.00  0.00     0.174 C 
HETATM    5  C   UNL     1      41.018 -14.031   0.607  1.00  0.00     0.023 C 
HETATM    6  C   UNL     1      41.014 -13.420   1.994  1.00  0.00     0.044 C 
HETATM    7  C   UNL     1      40.386 -12.058   2.198  1.00  0.00     0.071 C 
HETATM    8  N   UNL     1      41.538 -13.966   3.057  1.00  0.00    -0.233 NA
HETATM    9  N   UNL     1      43.107 -16.851   1.664  1.00  0.00    -0.175 NA
HETATM   10  C   UNL     1      43.355 -17.026   2.965  1.00  0.00     0.160 A 
ENDROOT
BRANCH   1  11
HETATM   11  C   UNL     1      42.857 -15.923   5.226  1.00  0.00     0.257 C 
HETATM   12  N   UNL     1      42.368 -17.026   5.887  1.00  0.00    -0.356 N 
HETATM   13  H   UNL     1      42.052 -17.807   5.314  1.00  0.00     0.162 HD
HETATM   14  O   UNL     1      43.332 -14.947   5.797  1.00  0.00    -0.267 OA
BRANCH  12  15
HETATM   15  C   UNL     1      42.500 -17.182   7.318  1.00  0.00     0.127 C 
BRANCH  15  16
HETATM   16  C   UNL     1      43.831 -17.828   7.696  1.00  0.00     0.058 C 
BRANCH  16  17
HETATM   17  C   UNL     1      44.109 -19.066   6.885  1.00  0.00    -0.057 A 
HETATM   18  C   UNL     1      44.835 -18.984   5.692  1.00  0.00     0.007 A 
HETATM   19  C   UNL     1      45.073 -20.128   4.925  1.00  0.00     0.007 A 
HETATM   20  C   UNL     1      44.578 -21.372   5.335  1.00  0.00    -0.062 A 
HETATM   21  C   UNL     1      44.839 -22.608   4.528  1.00  0.00     0.048 C 
HETATM   22  C   UNL     1      43.854 -21.454   6.529  1.00  0.00     0.007 A 
HETATM   23  C   UNL     1      43.617 -20.311   7.296  1.00  0.00     0.007 A 
ENDBRANCH  16  17
ENDBRANCH  15  16
ENDBRANCH  12  15
ENDBRANCH   1  11
BRANCH   4  24
HETATM   24  O   UNL     1      41.922 -15.808  -0.715  1.00  0.00    -0.344 OA
HETATM   25  H   UNL     1      41.430 -15.268  -1.372  1.00  0.00     0.219 HD
ENDBRANCH   4  24
BRANCH   5  26
HETATM   26  C   UNL     1      40.229 -13.439  -0.531  1.00  0.00     0.084 C 
BRANCH  26  27
HETATM   27  C   UNL     1      41.054 -12.697  -1.572  1.00  0.00    -0.047 A 
HETATM   28  C   UNL     1      41.004 -12.985  -2.952  1.00  0.00    -0.055 A 
HETATM   29  C   UNL     1      40.143 -14.077  -3.527  1.00  0.00     0.049 C 
HETATM   30  C   UNL     1      41.766 -12.210  -3.842  1.00  0.00     0.008 A 
HETATM   31  C   UNL     1      42.599 -11.190  -3.381  1.00  0.00     0.007 A 
HETATM   32  C   UNL     1      42.686 -10.916  -2.018  1.00  0.00    -0.061 A 
HETATM   33  C   UNL     1      43.612  -9.852  -1.508  1.00  0.00     0.048 C 
HETATM   34  C   UNL     1      41.928 -11.683  -1.124  1.00  0.00     0.014 A 
ENDBRANCH  26  27
ENDBRANCH   5  26
TORSDOF 7
ENDMDL
MODEL 8
REMARK VINA RESULT:      -8.3      1.508      2.296
REMARK  7 active torsions:
REMARK  status: ('A' for Active; 'I' for Inactive)
REMARK    1  A    between atoms: C_5  and  C_6 
REMARK    2  A    between atoms: C_6  and  C_7 
REMARK    3  A    between atoms: C_7  and  N_8 
REMARK       I    between atoms: N_8  and  C_9 
REMARK    4  A    between atoms: C_9  and  C_10 
REMARK    5  A    between atoms: C_13  and  O_14 
REMARK    6  A    between atoms: C_15  and  C_16 
REMARK    7  A    between atoms: C_16  and  C_17 
ROOT
HETATM    1  C   UNL     1      42.352 -14.008   5.485  1.00  0.00     0.099 A 
HETATM    2  C   UNL     1      41.445 -14.371   4.506  1.00  0.00     0.171 A 
HETATM    3  N   UNL     1      40.596 -13.286   4.342  1.00  0.00    -0.192 N 
HETATM    4  C   UNL     1      39.625 -13.272   3.334  1.00  0.00     0.174 C 
HETATM    5  C   UNL     1      39.490 -14.326   2.502  1.00  0.00     0.023 C 
HETATM    6  C   UNL     1      40.365 -15.511   2.854  1.00  0.00     0.044 C 
HETATM    7  C   UNL     1      40.155 -16.825   2.133  1.00  0.00     0.071 C 
HETATM    8  N   UNL     1      41.299 -15.510   3.767  1.00  0.00    -0.233 NA
HETATM    9  N   UNL     1      40.869 -12.277   5.210  1.00  0.00    -0.175 NA
HETATM   10  C   UNL     1      41.933 -12.721   5.886  1.00  0.00     0.160 A 
ENDROOT
BRANCH   1  11
HETATM   11  C   UNL     1      43.487 -14.758   5.984  1.00  0.00     0.257 C 
HETATM   12  N   UNL     1      43.345 -16.125   5.923  1.00  0.00    -0.356 N 
HETATM   13  H   UNL     1      42.486 -16.483   5.506  1.00  0.00     0.162 HD
HETATM   14  O   UNL     1      44.500 -14.201   6.395  1.00  0.00    -0.267 OA
BRANCH  12  15
HETATM   15  C   UNL     1      44.440 -17.024   6.212  1.00  0.00     0.127 C 
BRANCH  15  16
HETATM   16  C   UNL     1      43.949 -18.444   6.483  1.00  0.00     0.058 C 
BRANCH  16  17
HETATM   17  C   UNL     1      44.083 -19.328   5.270  1.00  0.00    -0.057 A 
HETATM   18  C   UNL     1      44.628 -20.611   5.384  1.00  0.00     0.007 A 
HETATM   19  C   UNL     1      44.775 -21.423   4.257  1.00  0.00     0.007 A 
HETATM   20  C   UNL     1      44.389 -20.960   2.994  1.00  0.00    -0.062 A 
HETATM   21  C   UNL     1      44.529 -21.828   1.779  1.00  0.00     0.048 C 
HETATM   22  C   UNL     1      43.841 -19.678   2.880  1.00  0.00     0.007 A 
HETATM   23  C   UNL     1      43.694 -18.866   4.007  1.00  0.00     0.007 A 
ENDBRANCH  16  17
ENDBRANCH  15  16
ENDBRANCH  12  15
ENDBRANCH   1  11
BRANCH   4  24
HETATM   24  O   UNL     1      38.864 -12.120   3.183  1.00  0.00    -0.344 OA
HETATM   25  H   UNL     1      39.442 -11.383   3.481  1.00  0.00     0.219 HD
ENDBRANCH   4  24
BRANCH   5  26
HETATM   26  C   UNL     1      38.567 -14.337   1.311  1.00  0.00     0.084 C 
BRANCH  26  27
HETATM   27  C   UNL     1      39.007 -13.463   0.146  1.00  0.00    -0.047 A 
HETATM   28  C   UNL     1      38.234 -12.395  -0.357  1.00  0.00    -0.055 A 
HETATM   29  C   UNL     1      36.884 -12.030   0.199  1.00  0.00     0.049 C 
HETATM   30  C   UNL     1      38.748 -11.613  -1.405  1.00  0.00     0.008 A 
HETATM   31  C   UNL     1      39.986 -11.899  -1.981  1.00  0.00     0.007 A 
HETATM   32  C   UNL     1      40.745 -12.972  -1.519  1.00  0.00    -0.061 A 
HETATM   33  C   UNL     1      42.055 -13.316  -2.161  1.00  0.00     0.048 C 
HETATM   34  C   UNL     1      40.241 -13.756  -0.474  1.00  0.00     0.014 A 
ENDBRANCH  26  27
ENDBRANCH   5  26
TORSDOF 7
ENDMDL
MODEL 9
REMARK VINA RESULT:      -8.1      1.864      7.253
REMARK  7 active torsions:
REMARK  status: ('A' for Active; 'I' for Inactive)
REMARK    1  A    between atoms: C_5  and  C_6 
REMARK    2  A    between atoms: C_6  and  C_7 
REMARK    3  A    between atoms: C_7  and  N_8 
REMARK       I    between atoms: N_8  and  C_9 
REMARK    4  A    between atoms: C_9  and  C_10 
REMARK    5  A    between atoms: C_13  and  O_14 
REMARK    6  A    between atoms: C_15  and  C_16 
REMARK    7  A    between atoms: C_16  and  C_17 
ROOT
HETATM    1  C   UNL     1      40.496 -11.841   3.825  1.00  0.00     0.099 A 
HETATM    2  C   UNL     1      40.866 -13.157   3.615  1.00  0.00     0.171 A 
HETATM    3  N   UNL     1      40.434 -13.863   4.728  1.00  0.00    -0.192 N 
HETATM    4  C   UNL     1      40.543 -15.257   4.789  1.00  0.00     0.174 C 
HETATM    5  C   UNL     1      41.084 -15.944   3.761  1.00  0.00     0.023 C 
HETATM    6  C   UNL     1      41.651 -15.071   2.661  1.00  0.00     0.044 C 
HETATM    7  C   UNL     1      42.469 -15.710   1.560  1.00  0.00     0.071 C 
HETATM    8  N   UNL     1      41.512 -13.775   2.583  1.00  0.00    -0.233 NA
HETATM    9  N   UNL     1      39.868 -13.059   5.667  1.00  0.00    -0.175 NA
HETATM   10  C   UNL     1      39.904 -11.847   5.107  1.00  0.00     0.160 A 
ENDROOT
BRANCH   1  11
HETATM   11  C   UNL     1      40.655 -10.707   2.935  1.00  0.00     0.257 C 
HETATM   12  N   UNL     1      41.444 -10.948   1.834  1.00  0.00    -0.356 N 
HETATM   13  H   UNL     1      41.810 -11.893   1.724  1.00  0.00     0.162 HD
HETATM   14  O   UNL     1      40.097  -9.636   3.146  1.00  0.00    -0.267 OA
BRANCH  12  15
HETATM   15  C   UNL     1      41.569  -9.992   0.757  1.00  0.00     0.127 C 
BRANCH  15  16
HETATM   16  C   UNL     1      40.591 -10.286  -0.378  1.00  0.00     0.058 C 
BRANCH  16  17
HETATM   17  C   UNL     1      40.698 -11.710  -0.859  1.00  0.00    -0.057 A 
HETATM   18  C   UNL     1      41.810 -12.129  -1.597  1.00  0.00     0.007 A 
HETATM   19  C   UNL     1      41.899 -13.442  -2.064  1.00  0.00     0.007 A 
HETATM   20  C   UNL     1      40.870 -14.356  -1.810  1.00  0.00    -0.062 A 
HETATM   21  C   UNL     1      40.961 -15.773  -2.295  1.00  0.00     0.048 C 
HETATM   22  C   UNL     1      39.758 -13.939  -1.070  1.00  0.00     0.007 A 
HETATM   23  C   UNL     1      39.670 -12.626  -0.603  1.00  0.00     0.007 A 
ENDBRANCH  16  17
ENDBRANCH  15  16
ENDBRANCH  12  15
ENDBRANCH   1  11
BRANCH   4  24
HETATM   24  O   UNL     1      40.019 -15.900   5.903  1.00  0.00    -0.344 OA
HETATM   25  H   UNL     1      40.772 -15.998   6.527  1.00  0.00     0.219 HD
ENDBRANCH   4  24
BRANCH   5  26
HETATM   26  C   UNL     1      41.114 -17.449   3.686  1.00  0.00     0.084 C 
BRANCH  26  27
HETATM   27  C   UNL     1      42.373 -18.097   4.241  1.00  0.00    -0.047 A 
HETATM   28  C   UNL     1      43.237 -18.902   3.468  1.00  0.00    -0.055 A 
HETATM   29  C   UNL     1      42.981 -19.216   2.019  1.00  0.00     0.049 C 
HETATM   30  C   UNL     1      44.404 -19.417   4.057  1.00  0.00     0.008 A 
HETATM   31  C   UNL     1      44.701 -19.180   5.399  1.00  0.00     0.007 A 
HETATM   32  C   UNL     1      43.840 -18.417   6.185  1.00  0.00    -0.061 A 
HETATM   33  C   UNL     1      44.126 -18.195   7.641  1.00  0.00     0.048 C 
HETATM   34  C   UNL     1      42.675 -17.898   5.606  1.00  0.00     0.014 A 
ENDBRANCH  26  27
ENDBRANCH   5  26
TORSDOF 7
ENDMDL
MODEL 10
REMARK VINA RESULT:      -7.9      4.825      8.300
REMARK  7 active torsions:
REMARK  status: ('A' for Active; 'I' for Inactive)
REMARK    1  A    between atoms: C_5  and  C_6 
REMARK    2  A    between atoms: C_6  and  C_7 
REMARK    3  A    between atoms: C_7  and  N_8 
REMARK       I    between atoms: N_8  and  C_9 
REMARK    4  A    between atoms: C_9  and  C_10 
REMARK    5  A    between atoms: C_13  and  O_14 
REMARK    6  A    between atoms: C_15  and  C_16 
REMARK    7  A    between atoms: C_16  and  C_17 
ROOT
HETATM    1  C   UNL     1      39.883 -12.684   5.382  1.00  0.00     0.099 A 
HETATM    2  C   UNL     1      40.438 -11.777   6.266  1.00  0.00     0.171 A 
HETATM    3  N   UNL     1      39.661 -10.631   6.184  1.00  0.00    -0.192 N 
HETATM    4  C   UNL     1      39.877  -9.546   7.043  1.00  0.00     0.174 C 
HETATM    5  C   UNL     1      40.858  -9.593   7.967  1.00  0.00     0.023 C 
HETATM    6  C   UNL     1      41.736 -10.825   7.880  1.00  0.00     0.044 C 
HETATM    7  C   UNL     1      42.994 -10.895   8.716  1.00  0.00     0.071 C 
HETATM    8  N   UNL     1      41.511 -11.854   7.109  1.00  0.00    -0.233 NA
HETATM    9  N   UNL     1      38.682 -10.733   5.247  1.00  0.00    -0.175 NA
HETATM   10  C   UNL     1      38.821 -11.976   4.779  1.00  0.00     0.160 A 
ENDROOT
BRANCH   1  11
HETATM   11  C   UNL     1      40.278 -14.057   5.134  1.00  0.00     0.257 C 
HETATM   12  N   UNL     1      40.439 -14.822   6.266  1.00  0.00    -0.356 N 
HETATM   13  H   UNL     1      40.236 -14.376   7.159  1.00  0.00     0.162 HD
HETATM   14  O   UNL     1      40.421 -14.493   3.996  1.00  0.00    -0.267 OA
BRANCH  12  15
HETATM   15  C   UNL     1      40.658 -16.250   6.201  1.00  0.00     0.127 C 
BRANCH  15  16
HETATM   16  C   UNL     1      42.100 -16.617   6.547  1.00  0.00     0.058 C 
BRANCH  16  17
HETATM   17  C   UNL     1      42.711 -17.535   5.520  1.00  0.00    -0.057 A 
HETATM   18  C   UNL     1      42.221 -17.559   4.210  1.00  0.00     0.007 A 
HETATM   19  C   UNL     1      42.770 -18.427   3.263  1.00  0.00     0.007 A 
HETATM   20  C   UNL     1      43.812 -19.292   3.614  1.00  0.00    -0.062 A 
HETATM   21  C   UNL     1      44.419 -20.218   2.602  1.00  0.00     0.048 C 
HETATM   22  C   UNL     1      44.304 -19.267   4.924  1.00  0.00     0.007 A 
HETATM   23  C   UNL     1      43.755 -18.399   5.871  1.00  0.00     0.007 A 
ENDBRANCH  16  17
ENDBRANCH  15  16
ENDBRANCH  12  15
ENDBRANCH   1  11
BRANCH   4  24
HETATM   24  O   UNL     1      39.010  -8.465   6.951  1.00  0.00    -0.344 OA
HETATM   25  H   UNL     1      39.545  -7.678   7.196  1.00  0.00     0.219 HD
ENDBRANCH   4  24
BRANCH   5  26
HETATM   26  C   UNL     1      41.070  -8.532   9.015  1.00  0.00     0.084 C 
BRANCH  26  27
HETATM   27  C   UNL     1      40.946  -9.011  10.454  1.00  0.00    -0.047 A 
HETATM   28  C   UNL     1      39.723  -9.402  11.039  1.00  0.00    -0.055 A 
HETATM   29  C   UNL     1      38.413  -9.359  10.300  1.00  0.00     0.049 C 
HETATM   30  C   UNL     1      39.718  -9.879  12.361  1.00  0.00     0.008 A 
HETATM   31  C   UNL     1      40.891  -9.934  13.114  1.00  0.00     0.007 A 
HETATM   32  C   UNL     1      42.101  -9.519  12.561  1.00  0.00    -0.061 A 
HETATM   33  C   UNL     1      43.360  -9.530  13.377  1.00  0.00     0.048 C 
HETATM   34  C   UNL     1      42.116  -9.043  11.244  1.00  0.00     0.014 A 
ENDBRANCH  26  27
ENDBRANCH   5  26
TORSDOF 7
ENDMDL
