MODEL 1
REMARK VINA RESULT:      -8.7      0.000      0.000
REMARK  4 active torsions:
REMARK  status: ('A' for Active; 'I' for Inactive)
REMARK       I    between atoms: C_2  and  N_3 
REMARK    1  A    between atoms: N_3  and  C_4 
REMARK    2  A    between atoms: C_4  and  C_5 
REMARK       I    between atoms: C_5  and  N_6 
REMARK    3  A    between atoms: N_6  and  C_7 
REMARK    4  A    between atoms: C_20  and  C_21 
ROOT
HETATM    1  C   UNL     1      42.709 -16.377   5.930  1.00  0.00     0.272 C 
HETATM    2  N   UNL     1      43.168 -16.016   4.686  1.00  0.00    -0.322 N 
HETATM    3  O   UNL     1      41.584 -16.819   6.160  1.00  0.00    -0.266 OA
HETATM    4  H   UNL     1      43.830 -15.242   4.675  1.00  0.00     0.169 HD
ENDROOT
BRANCH   1   5
HETATM    5  C   UNL     1      43.709 -16.212   7.058  1.00  0.00     0.104 C 
HETATM    6  C   UNL     1      44.434 -17.296   7.411  1.00  0.00     0.046 C 
BRANCH   5   7
HETATM    7  N   UNL     1      43.917 -15.036   7.764  1.00  0.00    -0.323 N 
HETATM    8  C   UNL     1      44.685 -13.943   7.430  1.00  0.00     0.218 C 
HETATM    9  C   UNL     1      44.555 -12.794   8.400  1.00  0.00     0.117 C 
HETATM   10  O   UNL     1      45.464 -13.880   6.486  1.00  0.00    -0.274 OA
HETATM   11  H   UNL     1      43.439 -14.983   8.655  1.00  0.00     0.169 HD
ENDBRANCH   5   7
BRANCH   6  12
HETATM   12  C   UNL     1      44.409 -18.613   6.761  1.00  0.00    -0.034 A 
HETATM   13  C   UNL     1      43.743 -19.684   7.367  1.00  0.00     0.011 A 
HETATM   14  C   UNL     1      43.737 -20.942   6.760  1.00  0.00     0.001 A 
HETATM   15  C   UNL     1      44.399 -21.135   5.548  1.00  0.00     0.000 A 
HETATM   16  C   UNL     1      45.064 -20.072   4.940  1.00  0.00     0.001 A 
HETATM   17  C   UNL     1      45.066 -18.812   5.541  1.00  0.00     0.011 A 
ENDBRANCH   6  12
ENDBRANCH   1   5
BRANCH   2  18
HETATM   18  C   UNL     1      42.576 -16.378   3.463  1.00  0.00     0.035 A 
HETATM   19  C   UNL     1      41.586 -15.598   2.856  1.00  0.00     0.042 A 
HETATM   20  C   UNL     1      40.978 -16.022   1.669  1.00  0.00    -0.021 A 
HETATM   21  C   UNL     1      39.903 -15.244   1.098  1.00  0.00     0.010 A 
HETATM   22  C   UNL     1      41.385 -17.221   1.073  1.00  0.00     0.012 A 
HETATM   23  C   UNL     1      38.665 -14.852   1.650  1.00  0.00     0.152 A 
HETATM   24  C   UNL     1      39.910 -14.685  -0.160  1.00  0.00     0.123 A 
HETATM   25  N   UNL     1      37.936 -14.118   0.802  1.00  0.00    -0.187 NA
HETATM   26  N   UNL     1      38.727 -14.017  -0.281  1.00  0.00    -0.289 N 
HETATM   27  H   UNL     1      38.393 -13.471  -1.068  1.00  0.00     0.188 HD
HETATM   28  C   UNL     1      42.367 -18.004   1.679  1.00  0.00     0.003 A 
HETATM   29  C   UNL     1      42.949 -17.592   2.881  1.00  0.00     0.029 A 
ENDBRANCH   2  18
TORSDOF 4
ENDMDL
MODEL 2
REMARK VINA RESULT:      -8.7      2.869      7.326
REMARK  4 active torsions:
REMARK  status: ('A' for Active; 'I' for Inactive)
REMARK       I    between atoms: C_2  and  N_3 
REMARK    1  A    between atoms: N_3  and  C_4 
REMARK    2  A    between atoms: C_4  and  C_5 
REMARK       I    between atoms: C_5  and  N_6 
REMARK    3  A    between atoms: N_6  and  C_7 
REMARK    4  A    between atoms: C_20  and  C_21 
ROOT
HETATM    1  C   UNL     1      41.963 -17.108   1.058  1.00  0.00     0.272 C 
HETATM    2  N   UNL     1      43.251 -17.497   1.335  1.00  0.00    -0.322 N 
HETATM    3  O   UNL     1      40.960 -17.770   1.321  1.00  0.00    -0.266 OA
HETATM    4  H   UNL     1      43.953 -17.181   0.668  1.00  0.00     0.169 HD
ENDROOT
BRANCH   1   5
HETATM    5  C   UNL     1      41.828 -15.751   0.395  1.00  0.00     0.104 C 
HETATM    6  C   UNL     1      41.805 -14.664   1.198  1.00  0.00     0.046 C 
BRANCH   5   7
HETATM    7  N   UNL     1      41.708 -15.548  -0.972  1.00  0.00    -0.323 N 
HETATM    8  C   UNL     1      40.741 -14.859  -1.670  1.00  0.00     0.218 C 
HETATM    9  C   UNL     1      41.026 -14.747  -3.147  1.00  0.00     0.117 C 
HETATM   10  O   UNL     1      39.699 -14.418  -1.198  1.00  0.00    -0.274 OA
HETATM   11  H   UNL     1      42.435 -15.975  -1.533  1.00  0.00     0.169 HD
ENDBRANCH   5   7
BRANCH   6  12
HETATM   12  C   UNL     1      41.973 -14.654   2.657  1.00  0.00    -0.034 A 
HETATM   13  C   UNL     1      43.246 -14.493   3.217  1.00  0.00     0.011 A 
HETATM   14  C   UNL     1      43.409 -14.504   4.604  1.00  0.00     0.001 A 
HETATM   15  C   UNL     1      42.303 -14.680   5.436  1.00  0.00     0.000 A 
HETATM   16  C   UNL     1      41.034 -14.840   4.883  1.00  0.00     0.001 A 
HETATM   17  C   UNL     1      40.867 -14.822   3.497  1.00  0.00     0.011 A 
ENDBRANCH   6  12
ENDBRANCH   1   5
BRANCH   2  18
HETATM   18  C   UNL     1      43.619 -18.524   2.222  1.00  0.00     0.035 A 
HETATM   19  C   UNL     1      43.645 -18.336   3.608  1.00  0.00     0.042 A 
HETATM   20  C   UNL     1      44.074 -19.365   4.455  1.00  0.00    -0.021 A 
HETATM   21  C   UNL     1      44.168 -19.128   5.877  1.00  0.00     0.010 A 
HETATM   22  C   UNL     1      44.454 -20.596   3.910  1.00  0.00     0.012 A 
HETATM   23  C   UNL     1      44.905 -18.163   6.596  1.00  0.00     0.152 A 
HETATM   24  C   UNL     1      43.489 -19.832   6.845  1.00  0.00     0.123 A 
HETATM   25  N   UNL     1      44.721 -18.259   7.917  1.00  0.00    -0.187 NA
HETATM   26  N   UNL     1      43.841 -19.269   8.036  1.00  0.00    -0.289 N 
HETATM   27  H   UNL     1      43.521 -19.517   8.966  1.00  0.00     0.188 HD
HETATM   28  C   UNL     1      44.436 -20.784   2.528  1.00  0.00     0.003 A 
HETATM   29  C   UNL     1      44.036 -19.744   1.685  1.00  0.00     0.029 A 
ENDBRANCH   2  18
TORSDOF 4
ENDMDL
MODEL 3
REMARK VINA RESULT:      -8.2      2.378      4.614
REMARK  4 active torsions:
REMARK  status: ('A' for Active; 'I' for Inactive)
REMARK       I    between atoms: C_2  and  N_3 
REMARK    1  A    between atoms: N_3  and  C_4 
REMARK    2  A    between atoms: C_4  and  C_5 
REMARK       I    between atoms: C_5  and  N_6 
REMARK    3  A    between atoms: N_6  and  C_7 
REMARK    4  A    between atoms: C_20  and  C_21 
ROOT
HETATM    1  C   UNL     1      43.384 -18.096   3.303  1.00  0.00     0.272 C 
HETATM    2  N   UNL     1      42.108 -17.975   3.799  1.00  0.00    -0.322 N 
HETATM    3  O   UNL     1      43.907 -17.309   2.516  1.00  0.00    -0.266 OA
HETATM    4  H   UNL     1      41.630 -18.854   3.984  1.00  0.00     0.169 HD
ENDROOT
BRANCH   1   5
HETATM    5  C   UNL     1      44.161 -19.295   3.810  1.00  0.00     0.104 C 
HETATM    6  C   UNL     1      44.565 -19.277   5.099  1.00  0.00     0.046 C 
BRANCH   5   7
HETATM    7  N   UNL     1      44.502 -20.399   3.041  1.00  0.00    -0.323 N 
HETATM    8  C   UNL     1      43.779 -21.033   2.056  1.00  0.00     0.218 C 
HETATM    9  C   UNL     1      44.545 -22.125   1.352  1.00  0.00     0.117 C 
HETATM   10  O   UNL     1      42.604 -20.815   1.782  1.00  0.00    -0.274 OA
HETATM   11  H   UNL     1      45.412 -20.794   3.242  1.00  0.00     0.169 HD
ENDBRANCH   5   7
BRANCH   6  12
HETATM   12  C   UNL     1      44.264 -18.238   6.093  1.00  0.00    -0.034 A 
HETATM   13  C   UNL     1      43.326 -18.482   7.103  1.00  0.00     0.011 A 
HETATM   14  C   UNL     1      43.024 -17.488   8.036  1.00  0.00     0.001 A 
HETATM   15  C   UNL     1      43.653 -16.245   7.961  1.00  0.00     0.000 A 
HETATM   16  C   UNL     1      44.588 -15.997   6.957  1.00  0.00     0.001 A 
HETATM   17  C   UNL     1      44.897 -16.992   6.028  1.00  0.00     0.011 A 
ENDBRANCH   6  12
ENDBRANCH   1   5
BRANCH   2  18
HETATM   18  C   UNL     1      41.324 -16.809   3.753  1.00  0.00     0.035 A 
HETATM   19  C   UNL     1      40.698 -16.379   2.579  1.00  0.00     0.042 A 
HETATM   20  C   UNL     1      39.974 -15.181   2.559  1.00  0.00    -0.021 A 
HETATM   21  C   UNL     1      39.401 -14.712   1.318  1.00  0.00     0.010 A 
HETATM   22  C   UNL     1      39.856 -14.425   3.730  1.00  0.00     0.012 A 
HETATM   23  C   UNL     1      40.012 -14.420   0.081  1.00  0.00     0.152 A 
HETATM   24  C   UNL     1      38.062 -14.479   1.102  1.00  0.00     0.123 A 
HETATM   25  N   UNL     1      39.133 -14.017  -0.842  1.00  0.00    -0.187 NA
HETATM   26  N   UNL     1      37.955 -14.081  -0.198  1.00  0.00    -0.289 N 
HETATM   27  H   UNL     1      37.114 -13.841  -0.713  1.00  0.00     0.188 HD
HETATM   28  C   UNL     1      40.484 -14.848   4.901  1.00  0.00     0.003 A 
HETATM   29  C   UNL     1      41.231 -16.029   4.908  1.00  0.00     0.029 A 
ENDBRANCH   2  18
TORSDOF 4
ENDMDL
MODEL 4
REMARK VINA RESULT:      -8.1      3.070      5.240
REMARK  4 active torsions:
REMARK  status: ('A' for Active; 'I' for Inactive)
REMARK       I    between atoms: C_2  and  N_3 
REMARK    1  A    between atoms: N_3  and  C_4 
REMARK    2  A    between atoms: C_4  and  C_5 
REMARK       I    between atoms: C_5  and  N_6 
REMARK    3  A    between atoms: N_6  and  C_7 
REMARK    4  A    between atoms: C_20  and  C_21 
ROOT
HETATM    1  C   UNL     1      43.463 -17.717   2.207  1.00  0.00     0.272 C 
HETATM    2  N   UNL     1      42.140 -17.398   2.018  1.00  0.00    -0.322 N 
HETATM    3  O   UNL     1      44.407 -17.133   1.676  1.00  0.00    -0.266 OA
HETATM    4  H   UNL     1      41.495 -18.184   2.055  1.00  0.00     0.169 HD
ENDROOT
BRANCH   1   5
HETATM    5  C   UNL     1      43.718 -18.868   3.161  1.00  0.00     0.104 C 
HETATM    6  C   UNL     1      43.392 -18.685   4.459  1.00  0.00     0.046 C 
BRANCH   5   7
HETATM    7  N   UNL     1      44.279 -20.085   2.799  1.00  0.00    -0.323 N 
HETATM    8  C   UNL     1      43.741 -21.102   2.043  1.00  0.00     0.218 C 
HETATM    9  C   UNL     1      44.713 -22.220   1.755  1.00  0.00     0.117 C 
HETATM   10  O   UNL     1      42.576 -21.174   1.670  1.00  0.00    -0.274 OA
HETATM   11  H   UNL     1      45.215 -20.244   3.150  1.00  0.00     0.169 HD
ENDBRANCH   5   7
BRANCH   6  12
HETATM   12  C   UNL     1      42.741 -17.503   5.038  1.00  0.00    -0.034 A 
HETATM   13  C   UNL     1      41.367 -17.515   5.302  1.00  0.00     0.011 A 
HETATM   14  C   UNL     1      40.744 -16.384   5.832  1.00  0.00     0.001 A 
HETATM   15  C   UNL     1      41.489 -15.235   6.096  1.00  0.00     0.000 A 
HETATM   16  C   UNL     1      42.858 -15.217   5.834  1.00  0.00     0.001 A 
HETATM   17  C   UNL     1      43.485 -16.349   5.311  1.00  0.00     0.011 A 
ENDBRANCH   6  12
ENDBRANCH   1   5
BRANCH   2  18
HETATM   18  C   UNL     1      41.663 -16.196   1.466  1.00  0.00     0.035 A 
HETATM   19  C   UNL     1      41.241 -16.103   0.136  1.00  0.00     0.042 A 
HETATM   20  C   UNL     1      40.828 -14.875  -0.393  1.00  0.00    -0.021 A 
HETATM   21  C   UNL     1      40.470 -14.781  -1.790  1.00  0.00     0.010 A 
HETATM   22  C   UNL     1      40.815 -13.739   0.424  1.00  0.00     0.012 A 
HETATM   23  C   UNL     1      41.218 -15.084  -2.948  1.00  0.00     0.152 A 
HETATM   24  C   UNL     1      39.244 -14.379  -2.268  1.00  0.00     0.123 A 
HETATM   25  N   UNL     1      40.526 -14.874  -4.072  1.00  0.00    -0.187 NA
HETATM   26  N   UNL     1      39.325 -14.465  -3.627  1.00  0.00    -0.289 N 
HETATM   27  H   UNL     1      38.604 -14.265  -4.312  1.00  0.00     0.188 HD
HETATM   28  C   UNL     1      41.241 -13.827   1.749  1.00  0.00     0.003 A 
HETATM   29  C   UNL     1      41.682 -15.049   2.264  1.00  0.00     0.029 A 
ENDBRANCH   2  18
TORSDOF 4
ENDMDL
MODEL 5
REMARK VINA RESULT:      -7.8      2.773      7.357
REMARK  4 active torsions:
REMARK  status: ('A' for Active; 'I' for Inactive)
REMARK       I    between atoms: C_2  and  N_3 
REMARK    1  A    between atoms: N_3  and  C_4 
REMARK    2  A    between atoms: C_4  and  C_5 
REMARK       I    between atoms: C_5  and  N_6 
REMARK    3  A    between atoms: N_6  and  C_7 
REMARK    4  A    between atoms: C_20  and  C_21 
ROOT
HETATM    1  C   UNL     1      40.494 -15.770   1.563  1.00  0.00     0.272 C 
HETATM    2  N   UNL     1      41.861 -15.907   1.610  1.00  0.00    -0.322 N 
HETATM    3  O   UNL     1      39.693 -16.586   2.018  1.00  0.00    -0.266 OA
HETATM    4  H   UNL     1      42.364 -15.507   0.820  1.00  0.00     0.169 HD
ENDROOT
BRANCH   1   5
HETATM    5  C   UNL     1      39.996 -14.498   0.907  1.00  0.00     0.104 C 
HETATM    6  C   UNL     1      39.989 -13.372   1.655  1.00  0.00     0.046 C 
BRANCH   5   7
HETATM    7  N   UNL     1      39.530 -14.410  -0.397  1.00  0.00    -0.323 N 
HETATM    8  C   UNL     1      40.181 -14.693  -1.577  1.00  0.00     0.218 C 
HETATM    9  C   UNL     1      39.294 -14.602  -2.794  1.00  0.00     0.117 C 
HETATM   10  O   UNL     1      41.377 -14.937  -1.690  1.00  0.00    -0.274 OA
HETATM   11  H   UNL     1      38.576 -14.085  -0.488  1.00  0.00     0.169 HD
ENDBRANCH   5   7
BRANCH   6  12
HETATM   12  C   UNL     1      40.489 -13.235   3.029  1.00  0.00    -0.034 A 
HETATM   13  C   UNL     1      39.679 -13.599   4.111  1.00  0.00     0.011 A 
HETATM   14  C   UNL     1      40.145 -13.449   5.419  1.00  0.00     0.001 A 
HETATM   15  C   UNL     1      41.419 -12.931   5.651  1.00  0.00     0.000 A 
HETATM   16  C   UNL     1      42.229 -12.566   4.577  1.00  0.00     0.001 A 
HETATM   17  C   UNL     1      41.768 -12.722   3.269  1.00  0.00     0.011 A 
ENDBRANCH   6  12
ENDBRANCH   1   5
BRANCH   2  18
HETATM   18  C   UNL     1      42.562 -16.802   2.437  1.00  0.00     0.035 A 
HETATM   19  C   UNL     1      42.585 -16.666   3.829  1.00  0.00     0.042 A 
HETATM   20  C   UNL     1      43.344 -17.542   4.614  1.00  0.00    -0.021 A 
HETATM   21  C   UNL     1      43.419 -17.340   6.043  1.00  0.00     0.010 A 
HETATM   22  C   UNL     1      44.061 -18.575   4.001  1.00  0.00     0.012 A 
HETATM   23  C   UNL     1      43.851 -16.222   6.786  1.00  0.00     0.152 A 
HETATM   24  C   UNL     1      43.029 -18.255   6.994  1.00  0.00     0.123 A 
HETATM   25  N   UNL     1      43.760 -16.418   8.105  1.00  0.00    -0.187 NA
HETATM   26  N   UNL     1      43.239 -17.654   8.201  1.00  0.00    -0.289 N 
HETATM   27  H   UNL     1      43.049 -18.023   9.127  1.00  0.00     0.188 HD
HETATM   28  C   UNL     1      44.046 -18.709   2.613  1.00  0.00     0.003 A 
HETATM   29  C   UNL     1      43.312 -17.813   1.831  1.00  0.00     0.029 A 
ENDBRANCH   2  18
TORSDOF 4
ENDMDL
MODEL 6
REMARK VINA RESULT:      -7.7      2.091      3.117
REMARK  4 active torsions:
REMARK  status: ('A' for Active; 'I' for Inactive)
REMARK       I    between atoms: C_2  and  N_3 
REMARK    1  A    between atoms: N_3  and  C_4 
REMARK    2  A    between atoms: C_4  and  C_5 
REMARK       I    between atoms: C_5  and  N_6 
REMARK    3  A    between atoms: N_6  and  C_7 
REMARK    4  A    between atoms: C_20  and  C_21 
ROOT
HETATM    1  C   UNL     1      42.158 -16.163   4.520  1.00  0.00     0.272 C 
HETATM    2  N   UNL     1      42.175 -15.082   3.672  1.00  0.00    -0.322 N 
HETATM    3  O   UNL     1      41.226 -16.959   4.621  1.00  0.00    -0.266 OA
HETATM    4  H   UNL     1      42.685 -14.270   4.013  1.00  0.00     0.169 HD
ENDROOT
BRANCH   1   5
HETATM    5  C   UNL     1      43.411 -16.345   5.354  1.00  0.00     0.104 C 
HETATM    6  C   UNL     1      44.214 -17.390   5.054  1.00  0.00     0.046 C 
BRANCH   5   7
HETATM    7  N   UNL     1      43.780 -15.530   6.415  1.00  0.00    -0.323 N 
HETATM    8  C   UNL     1      44.275 -14.245   6.395  1.00  0.00     0.218 C 
HETATM    9  C   UNL     1      44.435 -13.638   7.768  1.00  0.00     0.117 C 
HETATM   10  O   UNL     1      44.628 -13.631   5.394  1.00  0.00    -0.274 OA
HETATM   11  H   UNL     1      43.675 -15.947   7.331  1.00  0.00     0.169 HD
ENDBRANCH   5   7
BRANCH   6  12
HETATM   12  C   UNL     1      44.037 -18.335   3.943  1.00  0.00    -0.034 A 
HETATM   13  C   UNL     1      44.072 -19.713   4.181  1.00  0.00     0.011 A 
HETATM   14  C   UNL     1      43.926 -20.612   3.122  1.00  0.00     0.001 A 
HETATM   15  C   UNL     1      43.748 -20.138   1.823  1.00  0.00     0.000 A 
HETATM   16  C   UNL     1      43.713 -18.766   1.581  1.00  0.00     0.001 A 
HETATM   17  C   UNL     1      43.852 -17.865   2.638  1.00  0.00     0.011 A 
ENDBRANCH   6  12
ENDBRANCH   1   5
BRANCH   2  18
HETATM   18  C   UNL     1      41.307 -14.889   2.582  1.00  0.00     0.035 A 
HETATM   19  C   UNL     1      41.779 -14.694   1.280  1.00  0.00     0.042 A 
HETATM   20  C   UNL     1      40.886 -14.445   0.232  1.00  0.00    -0.021 A 
HETATM   21  C   UNL     1      41.395 -14.168  -1.092  1.00  0.00     0.010 A 
HETATM   22  C   UNL     1      39.511 -14.419   0.486  1.00  0.00     0.012 A 
HETATM   23  C   UNL     1      42.278 -13.161  -1.540  1.00  0.00     0.152 A 
HETATM   24  C   UNL     1      41.113 -14.903  -2.220  1.00  0.00     0.123 A 
HETATM   25  N   UNL     1      42.521 -13.242  -2.852  1.00  0.00    -0.187 NA
HETATM   26  N   UNL     1      41.816 -14.321  -3.234  1.00  0.00    -0.289 N 
HETATM   27  H   UNL     1      41.865 -14.604  -4.207  1.00  0.00     0.188 HD
HETATM   28  C   UNL     1      39.037 -14.607   1.784  1.00  0.00     0.003 A 
HETATM   29  C   UNL     1      39.934 -14.824   2.833  1.00  0.00     0.029 A 
ENDBRANCH   2  18
TORSDOF 4
ENDMDL
MODEL 7
REMARK VINA RESULT:      -7.7      3.583      7.398
REMARK  4 active torsions:
REMARK  status: ('A' for Active; 'I' for Inactive)
REMARK       I    between atoms: C_2  and  N_3 
REMARK    1  A    between atoms: N_3  and  C_4 
REMARK    2  A    between atoms: C_4  and  C_5 
REMARK       I    between atoms: C_5  and  N_6 
REMARK    3  A    between atoms: N_6  and  C_7 
REMARK    4  A    between atoms: C_20  and  C_21 
ROOT
HETATM    1  C   UNL     1      41.859 -15.353   1.207  1.00  0.00     0.272 C 
HETATM    2  N   UNL     1      42.970 -15.580   1.983  1.00  0.00    -0.322 N 
HETATM    3  O   UNL     1      41.010 -16.201   0.935  1.00  0.00    -0.266 OA
HETATM    4  H   UNL     1      43.795 -15.041   1.729  1.00  0.00     0.169 HD
ENDROOT
BRANCH   1   5
HETATM    5  C   UNL     1      41.715 -13.936   0.688  1.00  0.00     0.104 C 
HETATM    6  C   UNL     1      41.343 -12.984   1.571  1.00  0.00     0.046 C 
BRANCH   5   7
HETATM    7  N   UNL     1      41.918 -13.552  -0.630  1.00  0.00    -0.323 N 
HETATM    8  C   UNL     1      41.155 -13.822  -1.745  1.00  0.00     0.218 C 
HETATM    9  C   UNL     1      41.633 -13.115  -2.989  1.00  0.00     0.117 C 
HETATM   10  O   UNL     1      40.211 -14.602  -1.791  1.00  0.00    -0.274 OA
HETATM   11  H   UNL     1      42.751 -12.999  -0.790  1.00  0.00     0.169 HD
ENDBRANCH   5   7
BRANCH   6  12
HETATM   12  C   UNL     1      41.134 -13.165   3.014  1.00  0.00    -0.034 A 
HETATM   13  C   UNL     1      42.100 -12.725   3.925  1.00  0.00     0.011 A 
HETATM   14  C   UNL     1      41.912 -12.917   5.296  1.00  0.00     0.001 A 
HETATM   15  C   UNL     1      40.760 -13.552   5.760  1.00  0.00     0.000 A 
HETATM   16  C   UNL     1      39.795 -13.993   4.857  1.00  0.00     0.001 A 
HETATM   17  C   UNL     1      39.978 -13.796   3.486  1.00  0.00     0.011 A 
ENDBRANCH   6  12
ENDBRANCH   1   5
BRANCH   2  18
HETATM   18  C   UNL     1      43.155 -16.682   2.838  1.00  0.00     0.035 A 
HETATM   19  C   UNL     1      43.549 -17.935   2.360  1.00  0.00     0.042 A 
HETATM   20  C   UNL     1      43.665 -19.023   3.233  1.00  0.00    -0.021 A 
HETATM   21  C   UNL     1      43.996 -20.329   2.711  1.00  0.00     0.010 A 
HETATM   22  C   UNL     1      43.410 -18.844   4.598  1.00  0.00     0.012 A 
HETATM   23  C   UNL     1      43.344 -21.117   1.739  1.00  0.00     0.152 A 
HETATM   24  C   UNL     1      45.096 -21.072   3.073  1.00  0.00     0.123 A 
HETATM   25  N   UNL     1      43.971 -22.276   1.516  1.00  0.00    -0.187 NA
HETATM   26  N   UNL     1      45.042 -22.211   2.326  1.00  0.00    -0.289 N 
HETATM   27  H   UNL     1      45.698 -22.985   2.313  1.00  0.00     0.188 HD
HETATM   28  C   UNL     1      43.012 -17.596   5.076  1.00  0.00     0.003 A 
HETATM   29  C   UNL     1      42.867 -16.521   4.195  1.00  0.00     0.029 A 
ENDBRANCH   2  18
TORSDOF 4
ENDMDL
MODEL 8
REMARK VINA RESULT:      -7.5      2.634      7.472
REMARK  4 active torsions:
REMARK  status: ('A' for Active; 'I' for Inactive)
REMARK       I    between atoms: C_2  and  N_3 
REMARK    1  A    between atoms: N_3  and  C_4 
REMARK    2  A    between atoms: C_4  and  C_5 
REMARK       I    between atoms: C_5  and  N_6 
REMARK    3  A    between atoms: N_6  and  C_7 
REMARK    4  A    between atoms: C_20  and  C_21 
ROOT
HETATM    1  C   UNL     1      40.938 -15.145   1.649  1.00  0.00     0.272 C 
HETATM    2  N   UNL     1      42.280 -15.429   1.735  1.00  0.00    -0.322 N 
HETATM    3  O   UNL     1      40.044 -15.990   1.637  1.00  0.00    -0.266 OA
HETATM    4  H   UNL     1      42.893 -14.782   1.242  1.00  0.00     0.169 HD
ENDROOT
BRANCH   1   5
HETATM    5  C   UNL     1      40.595 -13.670   1.584  1.00  0.00     0.104 C 
HETATM    6  C   UNL     1      40.272 -13.158   0.376  1.00  0.00     0.046 C 
BRANCH   5   7
HETATM    7  N   UNL     1      40.608 -12.806   2.670  1.00  0.00    -0.323 N 
HETATM    8  C   UNL     1      41.653 -12.463   3.499  1.00  0.00     0.218 C 
HETATM    9  C   UNL     1      41.306 -11.383   4.494  1.00  0.00     0.117 C 
HETATM   10  O   UNL     1      42.757 -12.997   3.513  1.00  0.00    -0.274 OA
HETATM   11  H   UNL     1      39.718 -12.373   2.881  1.00  0.00     0.169 HD
ENDBRANCH   5   7
BRANCH   6  12
HETATM   12  C   UNL     1      40.144 -13.906  -0.882  1.00  0.00    -0.034 A 
HETATM   13  C   UNL     1      41.265 -14.517  -1.455  1.00  0.00     0.011 A 
HETATM   14  C   UNL     1      41.149 -15.209  -2.662  1.00  0.00     0.001 A 
HETATM   15  C   UNL     1      39.913 -15.290  -3.304  1.00  0.00     0.000 A 
HETATM   16  C   UNL     1      38.793 -14.684  -2.738  1.00  0.00     0.001 A 
HETATM   17  C   UNL     1      38.906 -13.997  -1.528  1.00  0.00     0.011 A 
ENDBRANCH   6  12
ENDBRANCH   1   5
BRANCH   2  18
HETATM   18  C   UNL     1      42.828 -16.660   2.135  1.00  0.00     0.035 A 
HETATM   19  C   UNL     1      43.041 -16.978   3.480  1.00  0.00     0.042 A 
HETATM   20  C   UNL     1      43.644 -18.190   3.836  1.00  0.00    -0.021 A 
HETATM   21  C   UNL     1      43.928 -18.468   5.225  1.00  0.00     0.010 A 
HETATM   22  C   UNL     1      44.011 -19.099   2.838  1.00  0.00     0.012 A 
HETATM   23  C   UNL     1      44.704 -17.751   6.161  1.00  0.00     0.152 A 
HETATM   24  C   UNL     1      43.435 -19.538   5.936  1.00  0.00     0.123 A 
HETATM   25  N   UNL     1      44.717 -18.330   7.365  1.00  0.00    -0.187 NA
HETATM   26  N   UNL     1      43.922 -19.402   7.203  1.00  0.00    -0.289 N 
HETATM   27  H   UNL     1      43.753 -19.998   8.007  1.00  0.00     0.188 HD
HETATM   28  C   UNL     1      43.806 -18.783   1.495  1.00  0.00     0.003 A 
HETATM   29  C   UNL     1      43.232 -17.558   1.143  1.00  0.00     0.029 A 
ENDBRANCH   2  18
TORSDOF 4
ENDMDL
MODEL 9
REMARK VINA RESULT:      -7.4      3.021      7.206
REMARK  4 active torsions:
REMARK  status: ('A' for Active; 'I' for Inactive)
REMARK       I    between atoms: C_2  and  N_3 
REMARK    1  A    between atoms: N_3  and  C_4 
REMARK    2  A    between atoms: C_4  and  C_5 
REMARK       I    between atoms: C_5  and  N_6 
REMARK    3  A    between atoms: N_6  and  C_7 
REMARK    4  A    between atoms: C_20  and  C_21 
ROOT
HETATM    1  C   UNL     1      41.163 -14.385   0.867  1.00  0.00     0.272 C 
HETATM    2  N   UNL     1      40.344 -14.468   1.967  1.00  0.00    -0.322 N 
HETATM    3  O   UNL     1      42.101 -13.598   0.750  1.00  0.00    -0.266 OA
HETATM    4  H   UNL     1      39.380 -14.730   1.771  1.00  0.00     0.169 HD
ENDROOT
BRANCH   1   5
HETATM    5  C   UNL     1      40.850 -15.367  -0.245  1.00  0.00     0.104 C 
HETATM    6  C   UNL     1      41.363 -16.613  -0.139  1.00  0.00     0.046 C 
BRANCH   5   7
HETATM    7  N   UNL     1      40.092 -15.073  -1.370  1.00  0.00    -0.323 N 
HETATM    8  C   UNL     1      40.506 -14.672  -2.620  1.00  0.00     0.218 C 
HETATM    9  C   UNL     1      39.385 -14.577  -3.626  1.00  0.00     0.117 C 
HETATM   10  O   UNL     1      41.649 -14.350  -2.924  1.00  0.00    -0.274 OA
HETATM   11  H   UNL     1      39.091 -15.162  -1.245  1.00  0.00     0.169 HD
ENDBRANCH   5   7
BRANCH   6  12
HETATM   12  C   UNL     1      42.140 -17.143   0.989  1.00  0.00    -0.034 A 
HETATM   13  C   UNL     1      41.490 -17.564   2.154  1.00  0.00     0.011 A 
HETATM   14  C   UNL     1      42.230 -18.048   3.235  1.00  0.00     0.001 A 
HETATM   15  C   UNL     1      43.621 -18.111   3.157  1.00  0.00     0.000 A 
HETATM   16  C   UNL     1      44.273 -17.694   1.999  1.00  0.00     0.001 A 
HETATM   17  C   UNL     1      43.535 -17.215   0.914  1.00  0.00     0.011 A 
ENDBRANCH   6  12
ENDBRANCH   1   5
BRANCH   2  18
HETATM   18  C   UNL     1      40.621 -13.920   3.232  1.00  0.00     0.035 A 
HETATM   19  C   UNL     1      41.692 -14.362   4.016  1.00  0.00     0.042 A 
HETATM   20  C   UNL     1      41.900 -13.833   5.295  1.00  0.00    -0.021 A 
HETATM   21  C   UNL     1      42.963 -14.356   6.122  1.00  0.00     0.010 A 
HETATM   22  C   UNL     1      41.044 -12.837   5.779  1.00  0.00     0.012 A 
HETATM   23  C   UNL     1      43.208 -15.671   6.572  1.00  0.00     0.152 A 
HETATM   24  C   UNL     1      44.010 -13.620   6.626  1.00  0.00     0.123 A 
HETATM   25  N   UNL     1      44.314 -15.758   7.318  1.00  0.00    -0.187 NA
HETATM   26  N   UNL     1      44.790 -14.501   7.317  1.00  0.00    -0.289 N 
HETATM   27  H   UNL     1      45.658 -14.318   7.809  1.00  0.00     0.188 HD
HETATM   28  C   UNL     1      39.972 -12.399   5.002  1.00  0.00     0.003 A 
HETATM   29  C   UNL     1      39.750 -12.952   3.738  1.00  0.00     0.029 A 
ENDBRANCH   2  18
TORSDOF 4
ENDMDL
MODEL 10
REMARK VINA RESULT:      -7.4      3.410      5.336
REMARK  4 active torsions:
REMARK  status: ('A' for Active; 'I' for Inactive)
REMARK       I    between atoms: C_2  and  N_3 
REMARK    1  A    between atoms: N_3  and  C_4 
REMARK    2  A    between atoms: C_4  and  C_5 
REMARK       I    between atoms: C_5  and  N_6 
REMARK    3  A    between atoms: N_6  and  C_7 
REMARK    4  A    between atoms: C_20  and  C_21 
ROOT
HETATM    1  C   UNL     1      43.118 -17.520   1.626  1.00  0.00     0.272 C 
HETATM    2  N   UNL     1      41.878 -17.180   1.142  1.00  0.00    -0.322 N 
HETATM    3  O   UNL     1      44.163 -16.932   1.350  1.00  0.00    -0.266 OA
HETATM    4  H   UNL     1      41.238 -17.959   1.001  1.00  0.00     0.169 HD
ENDROOT
BRANCH   1   5
HETATM    5  C   UNL     1      43.137 -18.703   2.575  1.00  0.00     0.104 C 
HETATM    6  C   UNL     1      42.856 -18.463   3.875  1.00  0.00     0.046 C 
BRANCH   5   7
HETATM    7  N   UNL     1      43.439 -20.006   2.208  1.00  0.00    -0.323 N 
HETATM    8  C   UNL     1      44.421 -20.843   2.690  1.00  0.00     0.218 C 
HETATM    9  C   UNL     1      44.351 -22.242   2.130  1.00  0.00     0.117 C 
HETATM   10  O   UNL     1      45.326 -20.516   3.450  1.00  0.00    -0.274 OA
HETATM   11  H   UNL     1      42.855 -20.390   1.475  1.00  0.00     0.169 HD
ENDBRANCH   5   7
BRANCH   6  12
HETATM   12  C   UNL     1      42.458 -17.176   4.459  1.00  0.00    -0.034 A 
HETATM   13  C   UNL     1      41.103 -16.846   4.577  1.00  0.00     0.011 A 
HETATM   14  C   UNL     1      40.725 -15.613   5.113  1.00  0.00     0.001 A 
HETATM   15  C   UNL     1      41.697 -14.704   5.528  1.00  0.00     0.000 A 
HETATM   16  C   UNL     1      43.048 -15.027   5.412  1.00  0.00     0.001 A 
HETATM   17  C   UNL     1      43.429 -16.262   4.883  1.00  0.00     0.011 A 
ENDBRANCH   6  12
ENDBRANCH   1   5
BRANCH   2  18
HETATM   18  C   UNL     1      41.549 -15.956   0.533  1.00  0.00     0.035 A 
HETATM   19  C   UNL     1      41.465 -14.763   1.258  1.00  0.00     0.042 A 
HETATM   20  C   UNL     1      41.077 -13.576   0.626  1.00  0.00    -0.021 A 
HETATM   21  C   UNL     1      40.919 -12.369   1.406  1.00  0.00     0.010 A 
HETATM   22  C   UNL     1      40.797 -13.581  -0.744  1.00  0.00     0.012 A 
HETATM   23  C   UNL     1      40.097 -12.103   2.522  1.00  0.00     0.152 A 
HETATM   24  C   UNL     1      41.610 -11.197   1.201  1.00  0.00     0.123 A 
HETATM   25  N   UNL     1      40.243 -10.854   2.977  1.00  0.00    -0.187 NA
HETATM   26  N   UNL     1      41.183 -10.335   2.167  1.00  0.00    -0.289 N 
HETATM   27  H   UNL     1      41.487  -9.382   2.337  1.00  0.00     0.188 HD
HETATM   28  C   UNL     1      40.873 -14.770  -1.469  1.00  0.00     0.003 A 
HETATM   29  C   UNL     1      41.232 -15.959  -0.828  1.00  0.00     0.029 A 
ENDBRANCH   2  18
TORSDOF 4
ENDMDL
