MODEL 1
REMARK VINA RESULT:      -8.9      0.000      0.000
REMARK  7 active torsions:
REMARK  status: ('A' for Active; 'I' for Inactive)
REMARK    1  A    between atoms: O_2  and  C_3 
REMARK    2  A    between atoms: C_4  and  O_5 
REMARK    3  A    between atoms: C_7  and  C_8 
REMARK       I    between atoms: C_8  and  N_9 
REMARK    4  A    between atoms: N_9  and  C_10 
REMARK    5  A    between atoms: C_10  and  C_11 
REMARK    6  A    between atoms: C_11  and  N_12 
REMARK    7  A    between atoms: C_11  and  C_18 
ROOT
HETATM    1  C   UNL     1      43.470 -14.852   5.783  1.00  0.00     0.239 C 
ENDROOT
BRANCH   1   2
HETATM    2  C   UNL     1      44.519 -14.105   6.672  1.00  0.00     0.161 C 
BRANCH   2   3
HETATM    3  N   UNL     1      43.951 -13.312   7.755  1.00  0.00    -0.354 N 
HETATM    4  C   UNL     1      44.712 -12.599   8.649  1.00  0.00     0.254 C 
HETATM    5  O   UNL     1      45.924 -12.490   8.492  1.00  0.00    -0.268 OA
HETATM    6  H   UNL     1      42.948 -13.360   7.924  1.00  0.00     0.162 HD
BRANCH   4   7
HETATM    7  C   UNL     1      44.025 -11.924   9.792  1.00  0.00     0.068 A 
HETATM    8  C   UNL     1      43.188 -10.795   9.667  1.00  0.00     0.117 A 
HETATM    9  C   UNL     1      42.681 -10.171  10.830  1.00  0.00     0.102 A 
HETATM   10  C   UNL     1      42.937 -10.738  12.085  1.00  0.00     0.040 A 
HETATM   11  C   UNL     1      43.724 -11.882  12.202  1.00  0.00     0.004 A 
HETATM   12  C   UNL     1      44.278 -12.462  11.064  1.00  0.00     0.020 A 
BRANCH   8  13
HETATM   13  O   UNL     1      42.979 -10.299   8.397  1.00  0.00    -0.352 OA
HETATM   14  C   UNL     1      41.692 -10.586   7.842  1.00  0.00     0.210 C 
ENDBRANCH   8  13
BRANCH   9  15
HETATM   15  O   UNL     1      41.978  -9.006  10.660  1.00  0.00    -0.353 OA
HETATM   16  C   UNL     1      40.651  -8.944  11.170  1.00  0.00     0.210 C 
ENDBRANCH   9  15
ENDBRANCH   4   7
ENDBRANCH   2   3
ENDBRANCH   1   2
BRANCH   1  17
HETATM   17  N   UNL     1      42.037 -14.382   6.096  1.00  0.00    -0.061 N 
HETATM   18  H   UNL     1      42.058 -14.066   7.074  1.00  0.00     0.280 HD
HETATM   19  C   UNL     1      40.962 -15.431   5.911  1.00  0.00     0.236 C 
HETATM   20  C   UNL     1      40.470 -15.190   4.503  1.00  0.00     0.029 C 
HETATM   21  C   UNL     1      40.402 -13.681   4.433  1.00  0.00     0.029 C 
HETATM   22  C   UNL     1      41.584 -13.189   5.256  1.00  0.00     0.236 C 
ENDBRANCH   1  17
BRANCH   1  23
HETATM   23  C   UNL     1      43.682 -16.363   5.914  1.00  0.00    -0.015 A 
HETATM   24  C   UNL     1      43.726 -17.220   4.766  1.00  0.00    -0.018 A 
HETATM   25  C   UNL     1      43.909 -18.614   4.972  1.00  0.00    -0.025 A 
HETATM   26  C   UNL     1      43.602 -16.787   3.420  1.00  0.00     0.013 A 
HETATM   27  C   UNL     1      43.944 -19.499   3.882  1.00  0.00     0.012 A 
HETATM   28  C   UNL     1      44.063 -19.124   6.267  1.00  0.00     0.012 A 
HETATM   29  C   UNL     1      43.807 -19.038   2.576  1.00  0.00     0.001 A 
HETATM   30  C   UNL     1      43.640 -17.682   2.345  1.00  0.00     0.001 A 
HETATM   31  C   UNL     1      44.043 -18.286   7.374  1.00  0.00     0.002 A 
HETATM   32  C   UNL     1      43.855 -16.921   7.200  1.00  0.00     0.010 A 
ENDBRANCH   1  23
TORSDOF 7
ENDMDL
MODEL 2
REMARK VINA RESULT:      -8.4      4.577      7.849
REMARK  7 active torsions:
REMARK  status: ('A' for Active; 'I' for Inactive)
REMARK    1  A    between atoms: O_2  and  C_3 
REMARK    2  A    between atoms: C_4  and  O_5 
REMARK    3  A    between atoms: C_7  and  C_8 
REMARK       I    between atoms: C_8  and  N_9 
REMARK    4  A    between atoms: N_9  and  C_10 
REMARK    5  A    between atoms: C_10  and  C_11 
REMARK    6  A    between atoms: C_11  and  N_12 
REMARK    7  A    between atoms: C_11  and  C_18 
ROOT
HETATM    1  C   UNL     1      42.320 -16.567   4.321  1.00  0.00     0.239 C 
ENDROOT
BRANCH   1   2
HETATM    2  C   UNL     1      42.771 -15.780   3.048  1.00  0.00     0.161 C 
BRANCH   2   3
HETATM    3  N   UNL     1      41.729 -15.584   2.046  1.00  0.00    -0.354 N 
HETATM    4  C   UNL     1      41.369 -14.350   1.561  1.00  0.00     0.254 C 
HETATM    5  O   UNL     1      42.013 -13.349   1.858  1.00  0.00    -0.268 OA
HETATM    6  H   UNL     1      41.169 -16.384   1.758  1.00  0.00     0.162 HD
BRANCH   4   7
HETATM    7  C   UNL     1      40.203 -14.262   0.630  1.00  0.00     0.068 A 
HETATM    8  C   UNL     1      40.304 -14.248  -0.777  1.00  0.00     0.117 A 
HETATM    9  C   UNL     1      39.142 -14.048  -1.558  1.00  0.00     0.102 A 
HETATM   10  C   UNL     1      37.894 -13.962  -0.927  1.00  0.00     0.040 A 
HETATM   11  C   UNL     1      37.792 -14.026   0.461  1.00  0.00     0.004 A 
HETATM   12  C   UNL     1      38.941 -14.158   1.236  1.00  0.00     0.020 A 
BRANCH   8  13
HETATM   13  O   UNL     1      41.567 -14.344  -1.322  1.00  0.00    -0.352 OA
HETATM   14  C   UNL     1      42.172 -13.093  -1.668  1.00  0.00     0.210 C 
ENDBRANCH   8  13
BRANCH   9  15
HETATM   15  O   UNL     1      39.312 -13.917  -2.911  1.00  0.00    -0.353 OA
HETATM   16  C   UNL     1      39.088 -15.061  -3.728  1.00  0.00     0.210 C 
ENDBRANCH   9  15
ENDBRANCH   4   7
ENDBRANCH   2   3
ENDBRANCH   1   2
BRANCH   1  17
HETATM   17  N   UNL     1      42.036 -15.614   5.497  1.00  0.00    -0.061 N 
HETATM   18  H   UNL     1      42.604 -15.965   6.279  1.00  0.00     0.280 HD
HETATM   19  C   UNL     1      40.584 -15.516   5.911  1.00  0.00     0.236 C 
HETATM   20  C   UNL     1      40.076 -14.320   5.140  1.00  0.00     0.029 C 
HETATM   21  C   UNL     1      41.212 -13.332   5.280  1.00  0.00     0.029 C 
HETATM   22  C   UNL     1      42.480 -14.174   5.242  1.00  0.00     0.236 C 
ENDBRANCH   1  17
BRANCH   1  23
HETATM   23  C   UNL     1      43.347 -17.660   4.629  1.00  0.00    -0.015 A 
HETATM   24  C   UNL     1      43.542 -18.781   3.756  1.00  0.00    -0.018 A 
HETATM   25  C   UNL     1      44.503 -19.761   4.121  1.00  0.00    -0.025 A 
HETATM   26  C   UNL     1      42.845 -18.995   2.537  1.00  0.00     0.013 A 
HETATM   27  C   UNL     1      44.720 -20.886   3.308  1.00  0.00     0.012 A 
HETATM   28  C   UNL     1      45.252 -19.617   5.294  1.00  0.00     0.012 A 
HETATM   29  C   UNL     1      44.009 -21.068   2.126  1.00  0.00     0.001 A 
HETATM   30  C   UNL     1      43.074 -20.121   1.739  1.00  0.00     0.001 A 
HETATM   31  C   UNL     1      45.076 -18.517   6.125  1.00  0.00     0.002 A 
HETATM   32  C   UNL     1      44.135 -17.550   5.796  1.00  0.00     0.010 A 
ENDBRANCH   1  23
TORSDOF 7
ENDMDL
MODEL 3
REMARK VINA RESULT:      -8.3      4.375      7.601
REMARK  7 active torsions:
REMARK  status: ('A' for Active; 'I' for Inactive)
REMARK    1  A    between atoms: O_2  and  C_3 
REMARK    2  A    between atoms: C_4  and  O_5 
REMARK    3  A    between atoms: C_7  and  C_8 
REMARK       I    between atoms: C_8  and  N_9 
REMARK    4  A    between atoms: N_9  and  C_10 
REMARK    5  A    between atoms: C_10  and  C_11 
REMARK    6  A    between atoms: C_11  and  N_12 
REMARK    7  A    between atoms: C_11  and  C_18 
ROOT
HETATM    1  C   UNL     1      42.575 -15.835   4.555  1.00  0.00     0.239 C 
ENDROOT
BRANCH   1   2
HETATM    2  C   UNL     1      43.419 -14.771   3.780  1.00  0.00     0.161 C 
BRANCH   2   3
HETATM    3  N   UNL     1      43.052 -14.598   2.380  1.00  0.00    -0.354 N 
HETATM    4  C   UNL     1      42.311 -13.538   1.918  1.00  0.00     0.254 C 
HETATM    5  O   UNL     1      42.032 -12.600   2.658  1.00  0.00    -0.268 OA
HETATM    6  H   UNL     1      43.267 -15.344   1.720  1.00  0.00     0.162 HD
BRANCH   4   7
HETATM    7  C   UNL     1      41.891 -13.532   0.483  1.00  0.00     0.068 A 
HETATM    8  C   UNL     1      41.330 -14.638  -0.189  1.00  0.00     0.117 A 
HETATM    9  C   UNL     1      41.073 -14.553  -1.578  1.00  0.00     0.102 A 
HETATM   10  C   UNL     1      41.289 -13.340  -2.246  1.00  0.00     0.040 A 
HETATM   11  C   UNL     1      41.796 -12.234  -1.567  1.00  0.00     0.004 A 
HETATM   12  C   UNL     1      42.111 -12.334  -0.215  1.00  0.00     0.020 A 
BRANCH   8  13
HETATM   13  O   UNL     1      41.142 -15.794   0.539  1.00  0.00    -0.352 OA
HETATM   14  C   UNL     1      39.980 -15.798   1.375  1.00  0.00     0.210 C 
ENDBRANCH   8  13
BRANCH   9  15
HETATM   15  O   UNL     1      40.647 -15.693  -2.207  1.00  0.00    -0.353 OA
HETATM   16  C   UNL     1      39.928 -15.556  -3.427  1.00  0.00     0.210 C 
ENDBRANCH   9  15
ENDBRANCH   4   7
ENDBRANCH   2   3
ENDBRANCH   1   2
BRANCH   1  17
HETATM   17  N   UNL     1      41.905 -15.221   5.798  1.00  0.00    -0.061 N 
HETATM   18  H   UNL     1      42.372 -15.654   6.606  1.00  0.00     0.280 HD
HETATM   19  C   UNL     1      40.408 -15.425   5.890  1.00  0.00     0.236 C 
HETATM   20  C   UNL     1      39.840 -14.171   5.268  1.00  0.00     0.029 C 
HETATM   21  C   UNL     1      40.728 -13.089   5.841  1.00  0.00     0.029 C 
HETATM   22  C   UNL     1      42.114 -13.712   5.926  1.00  0.00     0.236 C 
ENDBRANCH   1  17
BRANCH   1  23
HETATM   23  C   UNL     1      43.450 -17.057   4.850  1.00  0.00    -0.015 A 
HETATM   24  C   UNL     1      43.546 -18.155   3.933  1.00  0.00    -0.018 A 
HETATM   25  C   UNL     1      44.367 -19.259   4.287  1.00  0.00    -0.025 A 
HETATM   26  C   UNL     1      42.882 -18.232   2.681  1.00  0.00     0.013 A 
HETATM   27  C   UNL     1      44.483 -20.367   3.431  1.00  0.00     0.012 A 
HETATM   28  C   UNL     1      45.077 -19.256   5.494  1.00  0.00     0.012 A 
HETATM   29  C   UNL     1      43.807 -20.411   2.216  1.00  0.00     0.001 A 
HETATM   30  C   UNL     1      43.010 -19.342   1.839  1.00  0.00     0.001 A 
HETATM   31  C   UNL     1      44.998 -18.180   6.368  1.00  0.00     0.002 A 
HETATM   32  C   UNL     1      44.194 -17.092   6.050  1.00  0.00     0.010 A 
ENDBRANCH   1  23
TORSDOF 7
ENDMDL
MODEL 4
REMARK VINA RESULT:      -8.3      5.126      8.223
REMARK  7 active torsions:
REMARK  status: ('A' for Active; 'I' for Inactive)
REMARK    1  A    between atoms: O_2  and  C_3 
REMARK    2  A    between atoms: C_4  and  O_5 
REMARK    3  A    between atoms: C_7  and  C_8 
REMARK       I    between atoms: C_8  and  N_9 
REMARK    4  A    between atoms: N_9  and  C_10 
REMARK    5  A    between atoms: C_10  and  C_11 
REMARK    6  A    between atoms: C_11  and  N_12 
REMARK    7  A    between atoms: C_11  and  C_18 
ROOT
HETATM    1  C   UNL     1      42.149 -16.929   3.186  1.00  0.00     0.239 C 
ENDROOT
BRANCH   1   2
HETATM    2  C   UNL     1      42.801 -15.545   2.859  1.00  0.00     0.161 C 
BRANCH   2   3
HETATM    3  N   UNL     1      42.729 -15.149   1.457  1.00  0.00    -0.354 N 
HETATM    4  C   UNL     1      41.575 -14.713   0.853  1.00  0.00     0.254 C 
HETATM    5  O   UNL     1      40.562 -14.507   1.514  1.00  0.00    -0.268 OA
HETATM    6  H   UNL     1      43.545 -15.292   0.865  1.00  0.00     0.162 HD
BRANCH   4   7
HETATM    7  C   UNL     1      41.594 -14.453  -0.619  1.00  0.00     0.068 A 
HETATM    8  C   UNL     1      42.109 -13.284  -1.217  1.00  0.00     0.117 A 
HETATM    9  C   UNL     1      41.973 -13.097  -2.612  1.00  0.00     0.102 A 
HETATM   10  C   UNL     1      41.415 -14.117  -3.394  1.00  0.00     0.040 A 
HETATM   11  C   UNL     1      40.952 -15.292  -2.806  1.00  0.00     0.004 A 
HETATM   12  C   UNL     1      41.026 -15.452  -1.425  1.00  0.00     0.020 A 
BRANCH   8  13
HETATM   13  O   UNL     1      42.648 -12.330  -0.381  1.00  0.00    -0.352 OA
HETATM   14  C   UNL     1      41.738 -11.307   0.035  1.00  0.00     0.210 C 
ENDBRANCH   8  13
BRANCH   9  15
HETATM   15  O   UNL     1      42.376 -11.891  -3.124  1.00  0.00    -0.353 OA
HETATM   16  C   UNL     1      41.491 -11.208  -4.006  1.00  0.00     0.210 C 
ENDBRANCH   9  15
ENDBRANCH   4   7
ENDBRANCH   2   3
ENDBRANCH   1   2
BRANCH   1  17
HETATM   17  N   UNL     1      40.825 -16.755   3.954  1.00  0.00    -0.061 N 
HETATM   18  H   UNL     1      40.083 -16.987   3.281  1.00  0.00     0.280 HD
HETATM   19  C   UNL     1      40.592 -15.376   4.532  1.00  0.00     0.236 C 
HETATM   20  C   UNL     1      41.112 -15.492   5.946  1.00  0.00     0.029 C 
HETATM   21  C   UNL     1      40.593 -16.845   6.377  1.00  0.00     0.029 C 
HETATM   22  C   UNL     1      40.667 -17.717   5.132  1.00  0.00     0.236 C 
ENDBRANCH   1  17
BRANCH   1  23
HETATM   23  C   UNL     1      43.176 -17.816   3.894  1.00  0.00    -0.015 A 
HETATM   24  C   UNL     1      43.543 -19.103   3.380  1.00  0.00    -0.018 A 
HETATM   25  C   UNL     1      44.492 -19.873   4.104  1.00  0.00    -0.025 A 
HETATM   26  C   UNL     1      43.031 -19.681   2.188  1.00  0.00     0.013 A 
HETATM   27  C   UNL     1      44.874 -21.147   3.651  1.00  0.00     0.012 A 
HETATM   28  C   UNL     1      45.065 -19.370   5.278  1.00  0.00     0.012 A 
HETATM   29  C   UNL     1      44.341 -21.685   2.484  1.00  0.00     0.001 A 
HETATM   30  C   UNL     1      43.423 -20.951   1.750  1.00  0.00     0.001 A 
HETATM   31  C   UNL     1      44.724 -18.112   5.759  1.00  0.00     0.002 A 
HETATM   32  C   UNL     1      43.791 -17.344   5.075  1.00  0.00     0.010 A 
ENDBRANCH   1  23
TORSDOF 7
ENDMDL
MODEL 5
REMARK VINA RESULT:      -8.1      4.276      7.186
REMARK  7 active torsions:
REMARK  status: ('A' for Active; 'I' for Inactive)
REMARK    1  A    between atoms: O_2  and  C_3 
REMARK    2  A    between atoms: C_4  and  O_5 
REMARK    3  A    between atoms: C_7  and  C_8 
REMARK       I    between atoms: C_8  and  N_9 
REMARK    4  A    between atoms: N_9  and  C_10 
REMARK    5  A    between atoms: C_10  and  C_11 
REMARK    6  A    between atoms: C_11  and  N_12 
REMARK    7  A    between atoms: C_11  and  C_18 
ROOT
HETATM    1  C   UNL     1      42.482 -16.270   4.353  1.00  0.00     0.239 C 
ENDROOT
BRANCH   1   2
HETATM    2  C   UNL     1      43.155 -15.355   3.278  1.00  0.00     0.161 C 
BRANCH   2   3
HETATM    3  N   UNL     1      42.339 -15.092   2.099  1.00  0.00    -0.354 N 
HETATM    4  C   UNL     1      42.103 -13.832   1.608  1.00  0.00     0.254 C 
HETATM    5  O   UNL     1      42.690 -12.859   2.072  1.00  0.00    -0.268 OA
HETATM    6  H   UNL     1      41.835 -15.866   1.668  1.00  0.00     0.162 HD
BRANCH   4   7
HETATM    7  C   UNL     1      41.149 -13.676   0.467  1.00  0.00     0.068 A 
HETATM    8  C   UNL     1      39.787 -13.337   0.606  1.00  0.00     0.117 A 
HETATM    9  C   UNL     1      38.951 -13.327  -0.535  1.00  0.00     0.102 A 
HETATM   10  C   UNL     1      39.508 -13.560  -1.800  1.00  0.00     0.040 A 
HETATM   11  C   UNL     1      40.865 -13.846  -1.939  1.00  0.00     0.004 A 
HETATM   12  C   UNL     1      41.677 -13.920  -0.811  1.00  0.00     0.020 A 
BRANCH   8  13
HETATM   13  O   UNL     1      39.316 -13.117   1.883  1.00  0.00    -0.352 OA
HETATM   14  C   UNL     1      39.305 -11.746   2.294  1.00  0.00     0.210 C 
ENDBRANCH   8  13
BRANCH   9  15
HETATM   15  O   UNL     1      37.613 -13.116  -0.329  1.00  0.00    -0.353 OA
HETATM   16  C   UNL     1      37.072 -11.848  -0.687  1.00  0.00     0.210 C 
ENDBRANCH   9  15
ENDBRANCH   4   7
ENDBRANCH   2   3
ENDBRANCH   1   2
BRANCH   1  17
HETATM   17  N   UNL     1      42.019 -15.451   5.573  1.00  0.00    -0.061 N 
HETATM   18  H   UNL     1      42.568 -15.805   6.367  1.00  0.00     0.280 HD
HETATM   19  C   UNL     1      40.540 -15.539   5.883  1.00  0.00     0.236 C 
HETATM   20  C   UNL     1      39.956 -14.342   5.168  1.00  0.00     0.029 C 
HETATM   21  C   UNL     1      40.967 -13.257   5.465  1.00  0.00     0.029 C 
HETATM   22  C   UNL     1      42.318 -13.957   5.460  1.00  0.00     0.236 C 
ENDBRANCH   1  17
BRANCH   1  23
HETATM   23  C   UNL     1      43.425 -17.428   4.693  1.00  0.00    -0.015 A 
HETATM   24  C   UNL     1      43.574 -18.559   3.824  1.00  0.00    -0.018 A 
HETATM   25  C   UNL     1      44.456 -19.600   4.218  1.00  0.00    -0.025 A 
HETATM   26  C   UNL     1      42.906 -18.727   2.583  1.00  0.00     0.013 A 
HETATM   27  C   UNL     1      44.627 -20.736   3.411  1.00  0.00     0.012 A 
HETATM   28  C   UNL     1      45.174 -19.505   5.417  1.00  0.00     0.012 A 
HETATM   29  C   UNL     1      43.944 -20.871   2.205  1.00  0.00     0.001 A 
HETATM   30  C   UNL     1      43.087 -19.865   1.790  1.00  0.00     0.001 A 
HETATM   31  C   UNL     1      45.043 -18.396   6.243  1.00  0.00     0.002 A 
HETATM   32  C   UNL     1      44.179 -17.369   5.886  1.00  0.00     0.010 A 
ENDBRANCH   1  23
TORSDOF 7
ENDMDL
MODEL 6
REMARK VINA RESULT:      -8.0      5.113      8.725
REMARK  7 active torsions:
REMARK  status: ('A' for Active; 'I' for Inactive)
REMARK    1  A    between atoms: O_2  and  C_3 
REMARK    2  A    between atoms: C_4  and  O_5 
REMARK    3  A    between atoms: C_7  and  C_8 
REMARK       I    between atoms: C_8  and  N_9 
REMARK    4  A    between atoms: N_9  and  C_10 
REMARK    5  A    between atoms: C_10  and  C_11 
REMARK    6  A    between atoms: C_11  and  N_12 
REMARK    7  A    between atoms: C_11  and  C_18 
ROOT
HETATM    1  C   UNL     1      41.404 -16.074   3.086  1.00  0.00     0.239 C 
ENDROOT
BRANCH   1   2
HETATM    2  C   UNL     1      40.184 -16.313   2.137  1.00  0.00     0.161 C 
BRANCH   2   3
HETATM    3  N   UNL     1      40.238 -15.586   0.875  1.00  0.00    -0.354 N 
HETATM    4  C   UNL     1      39.392 -14.550   0.563  1.00  0.00     0.254 C 
HETATM    5  O   UNL     1      38.623 -14.094   1.404  1.00  0.00    -0.268 OA
HETATM    6  H   UNL     1      40.865 -15.917   0.144  1.00  0.00     0.162 HD
BRANCH   4   7
HETATM    7  C   UNL     1      39.459 -13.961  -0.810  1.00  0.00     0.068 A 
HETATM    8  C   UNL     1      40.631 -13.441  -1.399  1.00  0.00     0.117 A 
HETATM    9  C   UNL     1      40.553 -12.806  -2.661  1.00  0.00     0.102 A 
HETATM   10  C   UNL     1      39.334 -12.789  -3.351  1.00  0.00     0.040 A 
HETATM   11  C   UNL     1      38.189 -13.348  -2.787  1.00  0.00     0.004 A 
HETATM   12  C   UNL     1      38.248 -13.916  -1.518  1.00  0.00     0.020 A 
BRANCH   8  13
HETATM   13  O   UNL     1      41.793 -13.501  -0.659  1.00  0.00    -0.352 OA
HETATM   14  C   UNL     1      42.075 -12.333   0.118  1.00  0.00     0.210 C 
ENDBRANCH   8  13
BRANCH   9  15
HETATM   15  O   UNL     1      41.693 -12.208  -3.131  1.00  0.00    -0.353 OA
HETATM   16  C   UNL     1      41.581 -11.349  -4.261  1.00  0.00     0.210 C 
ENDBRANCH   9  15
ENDBRANCH   4   7
ENDBRANCH   2   3
ENDBRANCH   1   2
BRANCH   1  17
HETATM   17  N   UNL     1      42.058 -14.705   2.823  1.00  0.00    -0.061 N 
HETATM   18  H   UNL     1      41.901 -14.512   1.825  1.00  0.00     0.280 HD
HETATM   19  C   UNL     1      43.536 -14.626   3.142  1.00  0.00     0.236 C 
HETATM   20  C   UNL     1      43.564 -14.092   4.556  1.00  0.00     0.029 C 
HETATM   21  C   UNL     1      42.501 -13.017   4.522  1.00  0.00     0.029 C 
HETATM   22  C   UNL     1      41.416 -13.557   3.601  1.00  0.00     0.236 C 
ENDBRANCH   1  17
BRANCH   1  23
HETATM   23  C   UNL     1      42.364 -17.263   2.984  1.00  0.00    -0.015 A 
HETATM   24  C   UNL     1      42.897 -17.905   4.150  1.00  0.00    -0.018 A 
HETATM   25  C   UNL     1      43.795 -18.991   3.970  1.00  0.00    -0.025 A 
HETATM   26  C   UNL     1      42.595 -17.543   5.489  1.00  0.00     0.013 A 
HETATM   27  C   UNL     1      44.357 -19.644   5.079  1.00  0.00     0.012 A 
HETATM   28  C   UNL     1      44.129 -19.429   2.683  1.00  0.00     0.012 A 
HETATM   29  C   UNL     1      44.047 -19.253   6.378  1.00  0.00     0.001 A 
HETATM   30  C   UNL     1      43.163 -18.206   6.583  1.00  0.00     0.001 A 
HETATM   31  C   UNL     1      43.592 -18.818   1.557  1.00  0.00     0.002 A 
HETATM   32  C   UNL     1      42.720 -17.747   1.705  1.00  0.00     0.010 A 
ENDBRANCH   1  23
TORSDOF 7
ENDMDL
MODEL 7
REMARK VINA RESULT:      -7.8      4.396      7.440
REMARK  7 active torsions:
REMARK  status: ('A' for Active; 'I' for Inactive)
REMARK    1  A    between atoms: O_2  and  C_3 
REMARK    2  A    between atoms: C_4  and  O_5 
REMARK    3  A    between atoms: C_7  and  C_8 
REMARK       I    between atoms: C_8  and  N_9 
REMARK    4  A    between atoms: N_9  and  C_10 
REMARK    5  A    between atoms: C_10  and  C_11 
REMARK    6  A    between atoms: C_11  and  N_12 
REMARK    7  A    between atoms: C_11  and  C_18 
ROOT
HETATM    1  C   UNL     1      42.494 -15.855   4.452  1.00  0.00     0.239 C 
ENDROOT
BRANCH   1   2
HETATM    2  C   UNL     1      43.277 -14.844   3.553  1.00  0.00     0.161 C 
BRANCH   2   3
HETATM    3  N   UNL     1      42.723 -14.653   2.218  1.00  0.00    -0.354 N 
HETATM    4  C   UNL     1      42.109 -13.493   1.813  1.00  0.00     0.254 C 
HETATM    5  O   UNL     1      42.118 -12.497   2.529  1.00  0.00    -0.268 OA
HETATM    6  H   UNL     1      42.698 -15.446   1.579  1.00  0.00     0.162 HD
BRANCH   4   7
HETATM    7  C   UNL     1      41.469 -13.458   0.462  1.00  0.00     0.068 A 
HETATM    8  C   UNL     1      41.875 -12.613  -0.592  1.00  0.00     0.117 A 
HETATM    9  C   UNL     1      41.125 -12.584  -1.791  1.00  0.00     0.102 A 
HETATM   10  C   UNL     1      40.046 -13.464  -1.950  1.00  0.00     0.040 A 
HETATM   11  C   UNL     1      39.678 -14.333  -0.925  1.00  0.00     0.004 A 
HETATM   12  C   UNL     1      40.375 -14.318   0.280  1.00  0.00     0.020 A 
BRANCH   8  13
HETATM   13  O   UNL     1      42.949 -11.780  -0.359  1.00  0.00    -0.352 OA
HETATM   14  C   UNL     1      42.614 -10.403  -0.160  1.00  0.00     0.210 C 
ENDBRANCH   8  13
BRANCH   9  15
HETATM   15  O   UNL     1      41.486 -11.657  -2.733  1.00  0.00    -0.353 OA
HETATM   16  C   UNL     1      40.669 -11.527  -3.892  1.00  0.00     0.210 C 
ENDBRANCH   9  15
ENDBRANCH   4   7
ENDBRANCH   2   3
ENDBRANCH   1   2
BRANCH   1  17
HETATM   17  N   UNL     1      41.887 -15.156   5.683  1.00  0.00    -0.061 N 
HETATM   18  H   UNL     1      42.334 -15.595   6.498  1.00  0.00     0.280 HD
HETATM   19  C   UNL     1      40.381 -15.250   5.800  1.00  0.00     0.236 C 
HETATM   20  C   UNL     1      39.894 -13.979   5.144  1.00  0.00     0.029 C 
HETATM   21  C   UNL     1      40.864 -12.945   5.671  1.00  0.00     0.029 C 
HETATM   22  C   UNL     1      42.204 -13.662   5.759  1.00  0.00     0.236 C 
ENDBRANCH   1  17
BRANCH   1  23
HETATM   23  C   UNL     1      43.401 -17.043   4.786  1.00  0.00    -0.015 A 
HETATM   24  C   UNL     1      43.534 -18.163   3.901  1.00  0.00    -0.018 A 
HETATM   25  C   UNL     1      44.383 -19.233   4.291  1.00  0.00    -0.025 A 
HETATM   26  C   UNL     1      42.879 -18.294   2.648  1.00  0.00     0.013 A 
HETATM   27  C   UNL     1      44.536 -20.361   3.467  1.00  0.00     0.012 A 
HETATM   28  C   UNL     1      45.086 -19.176   5.500  1.00  0.00     0.012 A 
HETATM   29  C   UNL     1      43.867 -20.459   2.250  1.00  0.00     0.001 A 
HETATM   30  C   UNL     1      43.043 -19.424   1.839  1.00  0.00     0.001 A 
HETATM   31  C   UNL     1      44.972 -18.077   6.343  1.00  0.00     0.002 A 
HETATM   32  C   UNL     1      44.140 -17.023   5.990  1.00  0.00     0.010 A 
ENDBRANCH   1  23
TORSDOF 7
ENDMDL
MODEL 8
REMARK VINA RESULT:      -7.6      5.022      8.505
REMARK  7 active torsions:
REMARK  status: ('A' for Active; 'I' for Inactive)
REMARK    1  A    between atoms: O_2  and  C_3 
REMARK    2  A    between atoms: C_4  and  O_5 
REMARK    3  A    between atoms: C_7  and  C_8 
REMARK       I    between atoms: C_8  and  N_9 
REMARK    4  A    between atoms: N_9  and  C_10 
REMARK    5  A    between atoms: C_10  and  C_11 
REMARK    6  A    between atoms: C_11  and  N_12 
REMARK    7  A    between atoms: C_11  and  C_18 
ROOT
HETATM    1  C   UNL     1      41.811 -15.583   3.470  1.00  0.00     0.239 C 
ENDROOT
BRANCH   1   2
HETATM    2  C   UNL     1      42.512 -14.598   2.476  1.00  0.00     0.161 C 
BRANCH   2   3
HETATM    3  N   UNL     1      41.953 -14.585   1.130  1.00  0.00    -0.354 N 
HETATM    4  C   UNL     1      41.894 -13.459   0.346  1.00  0.00     0.254 C 
HETATM    5  O   UNL     1      42.441 -12.420   0.702  1.00  0.00    -0.268 OA
HETATM    6  H   UNL     1      41.494 -15.425   0.781  1.00  0.00     0.162 HD
BRANCH   4   7
HETATM    7  C   UNL     1      41.187 -13.540  -0.969  1.00  0.00     0.068 A 
HETATM    8  C   UNL     1      39.822 -13.859  -1.123  1.00  0.00     0.117 A 
HETATM    9  C   UNL     1      39.285 -14.017  -2.422  1.00  0.00     0.102 A 
HETATM   10  C   UNL     1      40.092 -13.760  -3.537  1.00  0.00     0.040 A 
HETATM   11  C   UNL     1      41.428 -13.396  -3.381  1.00  0.00     0.004 A 
HETATM   12  C   UNL     1      41.977 -13.303  -2.105  1.00  0.00     0.020 A 
BRANCH   8  13
HETATM   13  O   UNL     1      39.092 -14.092   0.024  1.00  0.00    -0.352 OA
HETATM   14  C   UNL     1      38.382 -12.956   0.529  1.00  0.00     0.210 C 
ENDBRANCH   8  13
BRANCH   9  15
HETATM   15  O   UNL     1      37.988 -14.450  -2.515  1.00  0.00    -0.353 OA
HETATM   16  C   UNL     1      37.632 -15.264  -3.627  1.00  0.00     0.210 C 
ENDBRANCH   9  15
ENDBRANCH   4   7
ENDBRANCH   2   3
ENDBRANCH   1   2
BRANCH   1  17
HETATM   17  N   UNL     1      41.699 -14.970   4.878  1.00  0.00    -0.061 N 
HETATM   18  H   UNL     1      42.396 -15.465   5.450  1.00  0.00     0.280 HD
HETATM   19  C   UNL     1      40.331 -15.074   5.518  1.00  0.00     0.236 C 
HETATM   20  C   UNL     1      39.673 -13.761   5.163  1.00  0.00     0.029 C 
HETATM   21  C   UNL     1      40.791 -12.765   5.375  1.00  0.00     0.029 C 
HETATM   22  C   UNL     1      42.057 -13.485   4.933  1.00  0.00     0.236 C 
ENDBRANCH   1  17
BRANCH   1  23
HETATM   23  C   UNL     1      42.525 -16.937   3.426  1.00  0.00    -0.015 A 
HETATM   24  C   UNL     1      43.414 -17.355   4.471  1.00  0.00    -0.018 A 
HETATM   25  C   UNL     1      44.051 -18.619   4.348  1.00  0.00    -0.025 A 
HETATM   26  C   UNL     1      43.714 -16.601   5.636  1.00  0.00     0.013 A 
HETATM   27  C   UNL     1      44.942 -19.069   5.336  1.00  0.00     0.012 A 
HETATM   28  C   UNL     1      43.793 -19.438   3.242  1.00  0.00     0.012 A 
HETATM   29  C   UNL     1      45.221 -18.296   6.460  1.00  0.00     0.001 A 
HETATM   30  C   UNL     1      44.604 -17.065   6.611  1.00  0.00     0.001 A 
HETATM   31  C   UNL     1      42.914 -19.038   2.245  1.00  0.00     0.002 A 
HETATM   32  C   UNL     1      42.286 -17.802   2.335  1.00  0.00     0.010 A 
ENDBRANCH   1  23
TORSDOF 7
ENDMDL
MODEL 9
REMARK VINA RESULT:      -7.5      3.252      4.457
REMARK  7 active torsions:
REMARK  status: ('A' for Active; 'I' for Inactive)
REMARK    1  A    between atoms: O_2  and  C_3 
REMARK    2  A    between atoms: C_4  and  O_5 
REMARK    3  A    between atoms: C_7  and  C_8 
REMARK       I    between atoms: C_8  and  N_9 
REMARK    4  A    between atoms: N_9  and  C_10 
REMARK    5  A    between atoms: C_10  and  C_11 
REMARK    6  A    between atoms: C_11  and  N_12 
REMARK    7  A    between atoms: C_11  and  C_18 
ROOT
HETATM    1  C   UNL     1      43.244 -15.735   2.934  1.00  0.00     0.239 C 
ENDROOT
BRANCH   1   2
HETATM    2  C   UNL     1      43.787 -14.326   3.341  1.00  0.00     0.161 C 
BRANCH   2   3
HETATM    3  N   UNL     1      42.877 -13.530   4.155  1.00  0.00    -0.354 N 
HETATM    4  C   UNL     1      42.053 -12.559   3.640  1.00  0.00     0.254 C 
HETATM    5  O   UNL     1      41.948 -12.407   2.427  1.00  0.00    -0.268 OA
HETATM    6  H   UNL     1      42.916 -13.623   5.169  1.00  0.00     0.162 HD
BRANCH   4   7
HETATM    7  C   UNL     1      41.255 -11.722   4.587  1.00  0.00     0.068 A 
HETATM    8  C   UNL     1      40.604 -12.218   5.736  1.00  0.00     0.117 A 
HETATM    9  C   UNL     1      39.783 -11.355   6.499  1.00  0.00     0.102 A 
HETATM   10  C   UNL     1      39.704  -9.999   6.159  1.00  0.00     0.040 A 
HETATM   11  C   UNL     1      40.388  -9.502   5.051  1.00  0.00     0.004 A 
HETATM   12  C   UNL     1      41.145 -10.362   4.261  1.00  0.00     0.020 A 
BRANCH   8  13
HETATM   13  O   UNL     1      40.735 -13.564   6.008  1.00  0.00    -0.352 OA
HETATM   14  C   UNL     1      39.757 -14.403   5.385  1.00  0.00     0.210 C 
ENDBRANCH   8  13
BRANCH   9  15
HETATM   15  O   UNL     1      39.075 -11.915   7.531  1.00  0.00    -0.353 OA
HETATM   16  C   UNL     1      39.249 -11.372   8.835  1.00  0.00     0.210 C 
ENDBRANCH   9  15
ENDBRANCH   4   7
ENDBRANCH   2   3
ENDBRANCH   1   2
BRANCH   1  17
HETATM   17  N   UNL     1      41.828 -15.638   2.336  1.00  0.00    -0.061 N 
HETATM   18  H   UNL     1      41.393 -14.824   2.790  1.00  0.00     0.280 HD
HETATM   19  C   UNL     1      40.963 -16.865   2.527  1.00  0.00     0.236 C 
HETATM   20  C   UNL     1      41.180 -17.652   1.255  1.00  0.00     0.029 C 
HETATM   21  C   UNL     1      41.148 -16.575   0.193  1.00  0.00     0.029 C 
HETATM   22  C   UNL     1      41.813 -15.364   0.833  1.00  0.00     0.236 C 
ENDBRANCH   1  17
BRANCH   1  23
HETATM   23  C   UNL     1      43.360 -16.685   4.129  1.00  0.00    -0.015 A 
HETATM   24  C   UNL     1      43.815 -18.037   3.977  1.00  0.00    -0.018 A 
HETATM   25  C   UNL     1      43.878 -18.860   5.133  1.00  0.00    -0.025 A 
HETATM   26  C   UNL     1      44.215 -18.629   2.751  1.00  0.00     0.013 A 
HETATM   27  C   UNL     1      44.303 -20.196   5.036  1.00  0.00     0.012 A 
HETATM   28  C   UNL     1      43.525 -18.350   6.388  1.00  0.00     0.012 A 
HETATM   29  C   UNL     1      44.676 -20.745   3.813  1.00  0.00     0.001 A 
HETATM   30  C   UNL     1      44.636 -19.961   2.672  1.00  0.00     0.001 A 
HETATM   31  C   UNL     1      43.107 -17.033   6.533  1.00  0.00     0.002 A 
HETATM   32  C   UNL     1      43.026 -16.210   5.417  1.00  0.00     0.010 A 
ENDBRANCH   1  23
TORSDOF 7
ENDMDL
MODEL 10
REMARK VINA RESULT:      -7.5      4.888      8.131
REMARK  7 active torsions:
REMARK  status: ('A' for Active; 'I' for Inactive)
REMARK    1  A    between atoms: O_2  and  C_3 
REMARK    2  A    between atoms: C_4  and  O_5 
REMARK    3  A    between atoms: C_7  and  C_8 
REMARK       I    between atoms: C_8  and  N_9 
REMARK    4  A    between atoms: N_9  and  C_10 
REMARK    5  A    between atoms: C_10  and  C_11 
REMARK    6  A    between atoms: C_11  and  N_12 
REMARK    7  A    between atoms: C_11  and  C_18 
ROOT
HETATM    1  C   UNL     1      42.667 -16.714   3.796  1.00  0.00     0.239 C 
ENDROOT
BRANCH   1   2
HETATM    2  C   UNL     1      42.968 -15.753   2.601  1.00  0.00     0.161 C 
BRANCH   2   3
HETATM    3  N   UNL     1      41.802 -15.072   2.051  1.00  0.00    -0.354 N 
HETATM    4  C   UNL     1      40.923 -15.664   1.177  1.00  0.00     0.254 C 
HETATM    5  O   UNL     1      41.009 -16.861   0.917  1.00  0.00    -0.268 OA
HETATM    6  H   UNL     1      41.678 -14.080   2.242  1.00  0.00     0.162 HD
BRANCH   4   7
HETATM    7  C   UNL     1      39.834 -14.829   0.584  1.00  0.00     0.068 A 
HETATM    8  C   UNL     1      39.890 -14.237  -0.695  1.00  0.00     0.117 A 
HETATM    9  C   UNL     1      38.848 -13.374  -1.109  1.00  0.00     0.102 A 
HETATM   10  C   UNL     1      37.731 -13.196  -0.283  1.00  0.00     0.040 A 
HETATM   11  C   UNL     1      37.657 -13.823   0.959  1.00  0.00     0.004 A 
HETATM   12  C   UNL     1      38.709 -14.621   1.397  1.00  0.00     0.020 A 
BRANCH   8  13
HETATM   13  O   UNL     1      41.021 -14.464  -1.451  1.00  0.00    -0.352 OA
HETATM   14  C   UNL     1      40.902 -15.518  -2.412  1.00  0.00     0.210 C 
ENDBRANCH   8  13
BRANCH   9  15
HETATM   15  O   UNL     1      39.011 -12.726  -2.306  1.00  0.00    -0.353 OA
HETATM   16  C   UNL     1      38.162 -13.094  -3.388  1.00  0.00     0.210 C 
ENDBRANCH   9  15
ENDBRANCH   4   7
ENDBRANCH   2   3
ENDBRANCH   1   2
BRANCH   1  17
HETATM   17  N   UNL     1      42.983 -16.044   5.147  1.00  0.00    -0.061 N 
HETATM   18  H   UNL     1      43.633 -16.682   5.625  1.00  0.00     0.280 HD
HETATM   19  C   UNL     1      41.782 -15.769   6.025  1.00  0.00     0.236 C 
HETATM   20  C   UNL     1      41.413 -14.344   5.684  1.00  0.00     0.029 C 
HETATM   21  C   UNL     1      42.761 -13.664   5.611  1.00  0.00     0.029 C 
HETATM   22  C   UNL     1      43.700 -14.702   5.013  1.00  0.00     0.236 C 
ENDBRANCH   1  17
BRANCH   1  23
HETATM   23  C   UNL     1      43.389 -18.045   3.569  1.00  0.00    -0.015 A 
HETATM   24  C   UNL     1      43.614 -18.974   4.637  1.00  0.00    -0.018 A 
HETATM   25  C   UNL     1      44.307 -20.180   4.348  1.00  0.00    -0.025 A 
HETATM   26  C   UNL     1      43.195 -18.788   5.981  1.00  0.00     0.013 A 
HETATM   27  C   UNL     1      44.567 -21.116   5.362  1.00  0.00     0.012 A 
HETATM   28  C   UNL     1      44.736 -20.455   3.044  1.00  0.00     0.012 A 
HETATM   29  C   UNL     1      44.150 -20.893   6.671  1.00  0.00     0.001 A 
HETATM   30  C   UNL     1      43.461 -19.731   6.979  1.00  0.00     0.001 A 
HETATM   31  C   UNL     1      44.494 -19.562   2.007  1.00  0.00     0.002 A 
HETATM   32  C   UNL     1      43.829 -18.371   2.266  1.00  0.00     0.010 A 
ENDBRANCH   1  23
TORSDOF 7
ENDMDL
