MODEL 1
REMARK VINA RESULT:      -9.2      0.000      0.000
REMARK  6 active torsions:
REMARK  status: ('A' for Active; 'I' for Inactive)
REMARK    1  A    between atoms: C_2  and  O_3 
REMARK    2  A    between atoms: O_3  and  C_4 
REMARK    3  A    between atoms: C_5  and  O_6 
REMARK    4  A    between atoms: O_6  and  C_7 
REMARK    5  A    between atoms: C_7  and  C_8 
REMARK    6  A    between atoms: C_18  and  C_19 
ROOT
HETATM    1  C   UNL     1      41.180 -15.871   4.198  1.00  0.00     0.103 A 
HETATM    2  C   UNL     1      41.439 -17.042   3.480  1.00  0.00     0.112 A 
HETATM    3  C   UNL     1      40.837 -17.291   2.248  1.00  0.00     0.041 A 
HETATM    4  C   UNL     1      39.991 -16.333   1.695  1.00  0.00     0.014 A 
HETATM    5  C   UNL     1      39.717 -15.130   2.377  1.00  0.00    -0.013 A 
HETATM    6  C   UNL     1      40.311 -14.926   3.641  1.00  0.00     0.050 A 
ENDROOT
BRANCH   5   7
HETATM    7  C   UNL     1      38.785 -14.122   1.716  1.00  0.00     0.219 C 
HETATM    8  N   UNL     1      39.195 -12.768   1.991  1.00  0.00    -0.332 N 
HETATM    9  C   UNL     1      40.026 -12.040   1.187  1.00  0.00     0.256 C 
HETATM   10  H   UNL     1      39.165 -12.451   2.948  1.00  0.00     0.165 HD
HETATM   11  O   UNL     1      40.586 -11.024   1.583  1.00  0.00    -0.267 OA
HETATM   12  C   UNL     1      40.156 -12.527  -0.174  1.00  0.00     0.073 A 
HETATM   13  C   UNL     1      39.434 -13.632  -0.558  1.00  0.00     0.088 A 
HETATM   14  C   UNL     1      40.937 -12.000  -1.249  1.00  0.00    -0.023 A 
HETATM   15  S   UNL     1      39.672 -14.032  -2.193  1.00  0.00    -0.074 SA
HETATM   16  N   UNL     1      38.632 -14.314   0.285  1.00  0.00    -0.358 N 
HETATM   17  C   UNL     1      40.750 -12.732  -2.407  1.00  0.00     0.018 A 
HETATM   18  C   UNL     1      41.413 -12.454  -3.712  1.00  0.00     0.281 C 
HETATM   19  N   UNL     1      42.015 -11.052  -3.740  1.00  0.00    -0.070 N 
HETATM   20  C   UNL     1      42.754 -10.734  -2.441  1.00  0.00     0.239 C 
HETATM   21  H   UNL     1      42.723 -11.063  -4.484  1.00  0.00     0.279 HD
HETATM   22  C   UNL     1      41.014 -10.001  -4.128  1.00  0.00     0.270 C 
HETATM   23  C   UNL     1      41.830 -10.794  -1.212  1.00  0.00     0.068 C 
HETATM   24  H   UNL     1      38.242 -15.213   0.014  1.00  0.00     0.162 HD
ENDBRANCH   5   7
BRANCH   1  25
HETATM   25  O   UNL     1      41.784 -15.755   5.421  1.00  0.00    -0.349 OA
BRANCH  25  26
HETATM   26  C   UNL     1      42.994 -15.001   5.464  1.00  0.00     0.171 C 
HETATM   27  C   UNL     1      43.967 -15.724   6.378  1.00  0.00     0.034 C 
ENDBRANCH  25  26
ENDBRANCH   1  25
BRANCH   2  28
HETATM   28  O   UNL     1      42.301 -18.010   3.999  1.00  0.00    -0.272 OA
BRANCH  28  29
HETATM   29  C   UNL     1      43.444 -18.119   3.235  1.00  0.00     0.300 C 
HETATM   30  O   UNL     1      44.107 -17.220   2.739  1.00  0.00    -0.259 OA
BRANCH  29  31
HETATM   31  C   UNL     1      43.848 -19.537   3.153  1.00  0.00     0.061 A 
HETATM   32  C   UNL     1      44.479 -20.224   4.197  1.00  0.00     0.050 A 
HETATM   33 CL   UNL     1      44.835 -19.505   5.727  1.00  0.00    -0.083 Cl
HETATM   34  C   UNL     1      44.792 -21.580   4.043  1.00  0.00     0.025 A 
HETATM   35  C   UNL     1      44.464 -22.252   2.863  1.00  0.00     0.002 A 
HETATM   36  C   UNL     1      43.815 -21.575   1.832  1.00  0.00     0.001 A 
HETATM   37  C   UNL     1      43.504 -20.222   1.976  1.00  0.00     0.019 A 
ENDBRANCH  29  31
ENDBRANCH  28  29
ENDBRANCH   2  28
TORSDOF 6
ENDMDL
MODEL 2
REMARK VINA RESULT:      -8.9      1.979      2.575
REMARK  6 active torsions:
REMARK  status: ('A' for Active; 'I' for Inactive)
REMARK    1  A    between atoms: C_2  and  O_3 
REMARK    2  A    between atoms: O_3  and  C_4 
REMARK    3  A    between atoms: C_5  and  O_6 
REMARK    4  A    between atoms: O_6  and  C_7 
REMARK    5  A    between atoms: C_7  and  C_8 
REMARK    6  A    between atoms: C_18  and  C_19 
ROOT
HETATM    1  C   UNL     1      41.748 -16.574   5.898  1.00  0.00     0.103 A 
HETATM    2  C   UNL     1      42.007 -17.462   4.850  1.00  0.00     0.112 A 
HETATM    3  C   UNL     1      41.752 -17.120   3.523  1.00  0.00     0.041 A 
HETATM    4  C   UNL     1      41.270 -15.848   3.227  1.00  0.00     0.014 A 
HETATM    5  C   UNL     1      41.013 -14.914   4.251  1.00  0.00    -0.013 A 
HETATM    6  C   UNL     1      41.243 -15.307   5.588  1.00  0.00     0.050 A 
ENDROOT
BRANCH   5   7
HETATM    7  C   UNL     1      40.489 -13.538   3.860  1.00  0.00     0.219 C 
HETATM    8  N   UNL     1      41.466 -12.801   3.098  1.00  0.00    -0.332 N 
HETATM    9  C   UNL     1      41.537 -12.806   1.734  1.00  0.00     0.256 C 
HETATM   10  H   UNL     1      42.329 -12.550   3.555  1.00  0.00     0.165 HD
HETATM   11  O   UNL     1      42.536 -12.421   1.135  1.00  0.00    -0.267 OA
HETATM   12  C   UNL     1      40.336 -13.248   1.051  1.00  0.00     0.073 A 
HETATM   13  C   UNL     1      39.233 -13.591   1.798  1.00  0.00     0.088 A 
HETATM   14  C   UNL     1      40.088 -13.368  -0.352  1.00  0.00    -0.023 A 
HETATM   15  S   UNL     1      37.905 -14.040   0.835  1.00  0.00    -0.074 SA
HETATM   16  N   UNL     1      39.225 -13.572   3.147  1.00  0.00    -0.358 N 
HETATM   17  C   UNL     1      38.792 -13.784  -0.596  1.00  0.00     0.018 A 
HETATM   18  C   UNL     1      38.206 -14.010  -1.946  1.00  0.00     0.281 C 
HETATM   19  N   UNL     1      39.057 -13.363  -3.035  1.00  0.00    -0.070 N 
HETATM   20  C   UNL     1      40.546 -13.624  -2.811  1.00  0.00     0.239 C 
HETATM   21  H   UNL     1      38.805 -13.838  -3.911  1.00  0.00     0.279 HD
HETATM   22  C   UNL     1      38.731 -11.911  -3.237  1.00  0.00     0.270 C 
HETATM   23  C   UNL     1      41.043 -13.061  -1.468  1.00  0.00     0.068 C 
HETATM   24  H   UNL     1      38.453 -13.982   3.665  1.00  0.00     0.162 HD
ENDBRANCH   5   7
BRANCH   1  25
HETATM   25  O   UNL     1      41.986 -17.035   7.165  1.00  0.00    -0.349 OA
BRANCH  25  26
HETATM   26  C   UNL     1      43.237 -16.677   7.748  1.00  0.00     0.171 C 
HETATM   27  C   UNL     1      43.822 -17.915   8.403  1.00  0.00     0.034 C 
ENDBRANCH  25  26
ENDBRANCH   1  25
BRANCH   2  28
HETATM   28  O   UNL     1      42.512 -18.737   5.115  1.00  0.00    -0.272 OA
BRANCH  28  29
HETATM   29  C   UNL     1      43.847 -18.822   4.779  1.00  0.00     0.300 C 
HETATM   30  O   UNL     1      44.723 -17.988   4.953  1.00  0.00    -0.259 OA
BRANCH  29  31
HETATM   31  C   UNL     1      44.130 -20.161   4.223  1.00  0.00     0.061 A 
HETATM   32  C   UNL     1      44.067 -20.461   2.856  1.00  0.00     0.050 A 
HETATM   33 CL   UNL     1      43.680 -19.291   1.645  1.00  0.00    -0.083 Cl
HETATM   34  C   UNL     1      44.389 -21.750   2.417  1.00  0.00     0.025 A 
HETATM   35  C   UNL     1      44.788 -22.730   3.329  1.00  0.00     0.002 A 
HETATM   36  C   UNL     1      44.874 -22.426   4.686  1.00  0.00     0.001 A 
HETATM   37  C   UNL     1      44.549 -21.145   5.133  1.00  0.00     0.019 A 
ENDBRANCH  29  31
ENDBRANCH  28  29
ENDBRANCH   2  28
TORSDOF 6
ENDMDL
MODEL 3
REMARK VINA RESULT:      -8.5      1.948      2.971
REMARK  6 active torsions:
REMARK  status: ('A' for Active; 'I' for Inactive)
REMARK    1  A    between atoms: C_2  and  O_3 
REMARK    2  A    between atoms: O_3  and  C_4 
REMARK    3  A    between atoms: C_5  and  O_6 
REMARK    4  A    between atoms: O_6  and  C_7 
REMARK    5  A    between atoms: C_7  and  C_8 
REMARK    6  A    between atoms: C_18  and  C_19 
ROOT
HETATM    1  C   UNL     1      43.313 -15.941   2.980  1.00  0.00     0.103 A 
HETATM    2  C   UNL     1      43.359 -16.194   4.354  1.00  0.00     0.112 A 
HETATM    3  C   UNL     1      42.806 -15.308   5.278  1.00  0.00     0.041 A 
HETATM    4  C   UNL     1      42.152 -14.166   4.822  1.00  0.00     0.014 A 
HETATM    5  C   UNL     1      42.066 -13.883   3.443  1.00  0.00    -0.013 A 
HETATM    6  C   UNL     1      42.671 -14.780   2.537  1.00  0.00     0.050 A 
ENDROOT
BRANCH   5   7
HETATM    7  C   UNL     1      41.334 -12.619   3.010  1.00  0.00     0.219 C 
HETATM    8  N   UNL     1      42.089 -11.886   2.025  1.00  0.00    -0.332 N 
HETATM    9  C   UNL     1      41.945 -12.044   0.676  1.00  0.00     0.256 C 
HETATM   10  H   UNL     1      42.979 -11.501   2.303  1.00  0.00     0.165 HD
HETATM   11  O   UNL     1      42.786 -11.638  -0.118  1.00  0.00    -0.267 OA
HETATM   12  C   UNL     1      40.709 -12.676   0.254  1.00  0.00     0.073 A 
HETATM   13  C   UNL     1      39.784 -13.033   1.206  1.00  0.00     0.088 A 
HETATM   14  C   UNL     1      40.259 -12.983  -1.069  1.00  0.00    -0.023 A 
HETATM   15  S   UNL     1      38.381 -13.717   0.530  1.00  0.00    -0.074 SA
HETATM   16  N   UNL     1      39.985 -12.857   2.528  1.00  0.00    -0.358 N 
HETATM   17  C   UNL     1      38.996 -13.547  -1.048  1.00  0.00     0.018 A 
HETATM   18  C   UNL     1      38.235 -13.984  -2.251  1.00  0.00     0.281 C 
HETATM   19  N   UNL     1      38.825 -13.391  -3.527  1.00  0.00    -0.070 N 
HETATM   20  C   UNL     1      40.351 -13.479  -3.532  1.00  0.00     0.239 C 
HETATM   21  H   UNL     1      38.495 -13.986  -4.295  1.00  0.00     0.279 HD
HETATM   22  C   UNL     1      38.309 -12.010  -3.814  1.00  0.00     0.270 C 
HETATM   23  C   UNL     1      40.985 -12.718  -2.355  1.00  0.00     0.068 C 
HETATM   24  H   UNL     1      39.356 -13.276   3.207  1.00  0.00     0.162 HD
ENDBRANCH   5   7
BRANCH   1  25
HETATM   25  O   UNL     1      43.934 -16.852   2.169  1.00  0.00    -0.349 OA
BRANCH  25  26
HETATM   26  C   UNL     1      43.201 -17.293   1.028  1.00  0.00     0.171 C 
HETATM   27  C   UNL     1      41.908 -17.924   1.514  1.00  0.00     0.034 C 
ENDBRANCH  25  26
ENDBRANCH   1  25
BRANCH   2  28
HETATM   28  O   UNL     1      43.988 -17.342   4.839  1.00  0.00    -0.272 OA
BRANCH  28  29
HETATM   29  C   UNL     1      43.085 -18.371   5.006  1.00  0.00     0.300 C 
HETATM   30  O   UNL     1      41.880 -18.292   5.202  1.00  0.00    -0.259 OA
BRANCH  29  31
HETATM   31  C   UNL     1      43.773 -19.664   4.823  1.00  0.00     0.061 A 
HETATM   32  C   UNL     1      44.087 -20.530   5.878  1.00  0.00     0.050 A 
HETATM   33 CL   UNL     1      43.679 -20.205   7.525  1.00  0.00    -0.083 Cl
HETATM   34  C   UNL     1      44.707 -21.755   5.605  1.00  0.00     0.025 A 
HETATM   35  C   UNL     1      44.997 -22.124   4.290  1.00  0.00     0.002 A 
HETATM   36  C   UNL     1      44.663 -21.273   3.237  1.00  0.00     0.001 A 
HETATM   37  C   UNL     1      44.050 -20.048   3.501  1.00  0.00     0.019 A 
ENDBRANCH  29  31
ENDBRANCH  28  29
ENDBRANCH   2  28
TORSDOF 6
ENDMDL
MODEL 4
REMARK VINA RESULT:      -8.5      1.952      2.673
REMARK  6 active torsions:
REMARK  status: ('A' for Active; 'I' for Inactive)
REMARK    1  A    between atoms: C_2  and  O_3 
REMARK    2  A    between atoms: O_3  and  C_4 
REMARK    3  A    between atoms: C_5  and  O_6 
REMARK    4  A    between atoms: O_6  and  C_7 
REMARK    5  A    between atoms: C_7  and  C_8 
REMARK    6  A    between atoms: C_18  and  C_19 
ROOT
HETATM    1  C   UNL     1      42.858 -15.417   2.608  1.00  0.00     0.103 A 
HETATM    2  C   UNL     1      43.119 -16.725   2.191  1.00  0.00     0.112 A 
HETATM    3  C   UNL     1      42.337 -17.352   1.223  1.00  0.00     0.041 A 
HETATM    4  C   UNL     1      41.298 -16.646   0.623  1.00  0.00     0.014 A 
HETATM    5  C   UNL     1      41.012 -15.318   0.999  1.00  0.00    -0.013 A 
HETATM    6  C   UNL     1      41.797 -14.726   2.011  1.00  0.00     0.050 A 
ENDROOT
BRANCH   5   7
HETATM    7  C   UNL     1      39.863 -14.601   0.301  1.00  0.00     0.219 C 
HETATM    8  N   UNL     1      39.735 -13.241   0.762  1.00  0.00    -0.332 N 
HETATM    9  C   UNL     1      40.339 -12.170   0.167  1.00  0.00     0.256 C 
HETATM   10  H   UNL     1      39.489 -13.092   1.729  1.00  0.00     0.165 HD
HETATM   11  O   UNL     1      40.456 -11.091   0.738  1.00  0.00    -0.267 OA
HETATM   12  C   UNL     1      40.782 -12.387  -1.198  1.00  0.00     0.073 A 
HETATM   13  C   UNL     1      40.544 -13.604  -1.790  1.00  0.00     0.088 A 
HETATM   14  C   UNL     1      41.441 -11.481  -2.087  1.00  0.00    -0.023 A 
HETATM   15  S   UNL     1      41.088 -13.666  -3.400  1.00  0.00    -0.074 SA
HETATM   16  N   UNL     1      39.947 -14.630  -1.148  1.00  0.00    -0.358 N 
HETATM   17  C   UNL     1      41.653 -12.062  -3.324  1.00  0.00     0.018 A 
HETATM   18  C   UNL     1      42.315 -11.394  -4.479  1.00  0.00     0.281 C 
HETATM   19  N   UNL     1      42.382  -9.883  -4.283  1.00  0.00    -0.070 N 
HETATM   20  C   UNL     1      42.812  -9.521  -2.862  1.00  0.00     0.239 C 
HETATM   21  H   UNL     1      43.126  -9.549  -4.908  1.00  0.00     0.279 HD
HETATM   22  C   UNL     1      41.124  -9.188  -4.719  1.00  0.00     0.270 C 
HETATM   23  C   UNL     1      41.839 -10.063  -1.800  1.00  0.00     0.068 C 
HETATM   24  H   UNL     1      39.933 -15.559  -1.559  1.00  0.00     0.162 HD
ENDBRANCH   5   7
BRANCH   1  25
HETATM   25  O   UNL     1      43.657 -14.919   3.602  1.00  0.00    -0.349 OA
BRANCH  25  26
HETATM   26  C   UNL     1      42.992 -14.337   4.722  1.00  0.00     0.171 C 
HETATM   27  C   UNL     1      43.969 -14.302   5.883  1.00  0.00     0.034 C 
ENDBRANCH  25  26
ENDBRANCH   1  25
BRANCH   2  28
HETATM   28  O   UNL     1      44.169 -17.449   2.759  1.00  0.00    -0.272 OA
BRANCH  28  29
HETATM   29  C   UNL     1      43.698 -18.542   3.456  1.00  0.00     0.300 C 
HETATM   30  O   UNL     1      43.394 -19.642   3.016  1.00  0.00    -0.259 OA
BRANCH  29  31
HETATM   31  C   UNL     1      43.684 -18.237   4.901  1.00  0.00     0.061 A 
HETATM   32  C   UNL     1      42.537 -17.836   5.596  1.00  0.00     0.050 A 
HETATM   33 CL   UNL     1      40.985 -17.679   4.854  1.00  0.00    -0.083 Cl
HETATM   34  C   UNL     1      42.610 -17.604   6.974  1.00  0.00     0.025 A 
HETATM   35  C   UNL     1      43.814 -17.787   7.660  1.00  0.00     0.002 A 
HETATM   36  C   UNL     1      44.950 -18.209   6.973  1.00  0.00     0.001 A 
HETATM   37  C   UNL     1      44.887 -18.437   5.598  1.00  0.00     0.019 A 
ENDBRANCH  29  31
ENDBRANCH  28  29
ENDBRANCH   2  28
TORSDOF 6
ENDMDL
MODEL 5
REMARK VINA RESULT:      -8.4      1.926      2.483
REMARK  6 active torsions:
REMARK  status: ('A' for Active; 'I' for Inactive)
REMARK    1  A    between atoms: C_2  and  O_3 
REMARK    2  A    between atoms: O_3  and  C_4 
REMARK    3  A    between atoms: C_5  and  O_6 
REMARK    4  A    between atoms: O_6  and  C_7 
REMARK    5  A    between atoms: C_7  and  C_8 
REMARK    6  A    between atoms: C_18  and  C_19 
ROOT
HETATM    1  C   UNL     1      43.045 -14.907   5.200  1.00  0.00     0.103 A 
HETATM    2  C   UNL     1      43.220 -15.938   4.273  1.00  0.00     0.112 A 
HETATM    3  C   UNL     1      42.754 -15.830   2.964  1.00  0.00     0.041 A 
HETATM    4  C   UNL     1      42.140 -14.650   2.553  1.00  0.00     0.014 A 
HETATM    5  C   UNL     1      41.960 -13.577   3.450  1.00  0.00    -0.013 A 
HETATM    6  C   UNL     1      42.406 -13.734   4.780  1.00  0.00     0.050 A 
ENDROOT
BRANCH   5   7
HETATM    7  C   UNL     1      41.283 -12.313   2.936  1.00  0.00     0.219 C 
HETATM    8  N   UNL     1      42.066 -11.679   1.905  1.00  0.00    -0.332 N 
HETATM    9  C   UNL     1      41.910 -11.917   0.569  1.00  0.00     0.256 C 
HETATM   10  H   UNL     1      42.973 -11.316   2.157  1.00  0.00     0.165 HD
HETATM   11  O   UNL     1      42.766 -11.600  -0.250  1.00  0.00    -0.267 OA
HETATM   12  C   UNL     1      40.646 -12.520   0.189  1.00  0.00     0.073 A 
HETATM   13  C   UNL     1      39.710 -12.773   1.163  1.00  0.00     0.088 A 
HETATM   14  C   UNL     1      40.178 -12.891  -1.110  1.00  0.00    -0.023 A 
HETATM   15  S   UNL     1      38.275 -13.436   0.535  1.00  0.00    -0.074 SA
HETATM   16  N   UNL     1      39.923 -12.521   2.471  1.00  0.00    -0.358 N 
HETATM   17  C   UNL     1      38.892 -13.396  -1.051  1.00  0.00     0.018 A 
HETATM   18  C   UNL     1      38.108 -13.876  -2.223  1.00  0.00     0.281 C 
HETATM   19  N   UNL     1      38.719 -13.393  -3.535  1.00  0.00    -0.070 N 
HETATM   20  C   UNL     1      40.239 -13.549  -3.536  1.00  0.00     0.239 C 
HETATM   21  H   UNL     1      38.360 -14.022  -4.263  1.00  0.00     0.279 HD
HETATM   22  C   UNL     1      38.263 -12.012  -3.911  1.00  0.00     0.270 C 
HETATM   23  C   UNL     1      40.911 -12.743  -2.411  1.00  0.00     0.068 C 
HETATM   24  H   UNL     1      39.279 -12.867   3.177  1.00  0.00     0.162 HD
ENDBRANCH   5   7
BRANCH   1  25
HETATM   25  O   UNL     1      43.494 -15.142   6.471  1.00  0.00    -0.349 OA
BRANCH  25  26
HETATM   26  C   UNL     1      44.790 -14.641   6.791  1.00  0.00     0.171 C 
HETATM   27  C   UNL     1      44.622 -13.489   7.765  1.00  0.00     0.034 C 
ENDBRANCH  25  26
ENDBRANCH   1  25
BRANCH   2  28
HETATM   28  O   UNL     1      43.853 -17.124   4.650  1.00  0.00    -0.272 OA
BRANCH  28  29
HETATM   29  C   UNL     1      42.964 -18.178   4.667  1.00  0.00     0.300 C 
HETATM   30  O   UNL     1      41.840 -18.209   5.148  1.00  0.00    -0.259 OA
BRANCH  29  31
HETATM   31  C   UNL     1      43.531 -19.313   3.912  1.00  0.00     0.061 A 
HETATM   32  C   UNL     1      44.199 -20.387   4.514  1.00  0.00     0.050 A 
HETATM   33 CL   UNL     1      44.415 -20.532   6.222  1.00  0.00    -0.083 Cl
HETATM   34  C   UNL     1      44.671 -21.439   3.720  1.00  0.00     0.025 A 
HETATM   35  C   UNL     1      44.465 -21.431   2.339  1.00  0.00     0.002 A 
HETATM   36  C   UNL     1      43.779 -20.375   1.742  1.00  0.00     0.001 A 
HETATM   37  C   UNL     1      43.310 -19.320   2.525  1.00  0.00     0.019 A 
ENDBRANCH  29  31
ENDBRANCH  28  29
ENDBRANCH   2  28
TORSDOF 6
ENDMDL
MODEL 6
REMARK VINA RESULT:      -8.4      5.716      8.681
REMARK  6 active torsions:
REMARK  status: ('A' for Active; 'I' for Inactive)
REMARK    1  A    between atoms: C_2  and  O_3 
REMARK    2  A    between atoms: O_3  and  C_4 
REMARK    3  A    between atoms: C_5  and  O_6 
REMARK    4  A    between atoms: O_6  and  C_7 
REMARK    5  A    between atoms: C_7  and  C_8 
REMARK    6  A    between atoms: C_18  and  C_19 
ROOT
HETATM    1  C   UNL     1      42.388 -14.264   5.660  1.00  0.00     0.103 A 
HETATM    2  C   UNL     1      41.195 -14.878   5.269  1.00  0.00     0.112 A 
HETATM    3  C   UNL     1      39.971 -14.216   5.355  1.00  0.00     0.041 A 
HETATM    4  C   UNL     1      39.939 -12.897   5.798  1.00  0.00     0.014 A 
HETATM    5  C   UNL     1      41.121 -12.233   6.184  1.00  0.00    -0.013 A 
HETATM    6  C   UNL     1      42.339 -12.945   6.123  1.00  0.00     0.050 A 
ENDROOT
BRANCH   5   7
HETATM    7  C   UNL     1      41.017 -10.788   6.655  1.00  0.00     0.219 C 
HETATM    8  N   UNL     1      39.767 -10.545   7.331  1.00  0.00    -0.332 N 
HETATM    9  C   UNL     1      39.590 -10.659   8.681  1.00  0.00     0.256 C 
HETATM   10  H   UNL     1      38.916 -10.628   6.795  1.00  0.00     0.165 HD
HETATM   11  O   UNL     1      38.475 -10.737   9.185  1.00  0.00    -0.267 OA
HETATM   12  C   UNL     1      40.807 -10.630   9.470  1.00  0.00     0.073 A 
HETATM   13  C   UNL     1      42.012 -10.463   8.831  1.00  0.00     0.088 A 
HETATM   14  C   UNL     1      40.964 -10.726  10.889  1.00  0.00    -0.023 A 
HETATM   15  S   UNL     1      43.324 -10.407   9.912  1.00  0.00    -0.074 SA
HETATM   16  N   UNL     1      42.125 -10.362   7.491  1.00  0.00    -0.358 N 
HETATM   17  C   UNL     1      42.293 -10.609  11.252  1.00  0.00     0.018 A 
HETATM   18  C   UNL     1      42.805 -10.664  12.650  1.00  0.00     0.281 C 
HETATM   19  N   UNL     1      41.679 -10.474  13.662  1.00  0.00    -0.070 N 
HETATM   20  C   UNL     1      40.443 -11.288  13.283  1.00  0.00     0.239 C 
HETATM   21  H   UNL     1      42.026 -10.861  14.547  1.00  0.00     0.279 HD
HETATM   22  C   UNL     1      41.380  -9.025  13.926  1.00  0.00     0.270 C 
HETATM   23  C   UNL     1      39.877 -10.889  11.910  1.00  0.00     0.068 C 
HETATM   24  H   UNL     1      43.037 -10.401   7.044  1.00  0.00     0.162 HD
ENDBRANCH   5   7
BRANCH   1  25
HETATM   25  O   UNL     1      43.523 -15.026   5.583  1.00  0.00    -0.349 OA
BRANCH  25  26
HETATM   26  C   UNL     1      44.245 -15.218   6.798  1.00  0.00     0.171 C 
HETATM   27  C   UNL     1      43.637 -16.406   7.522  1.00  0.00     0.034 C 
ENDBRANCH  25  26
ENDBRANCH   1  25
BRANCH   2  28
HETATM   28  O   UNL     1      41.200 -16.193   4.800  1.00  0.00    -0.272 OA
BRANCH  28  29
HETATM   29  C   UNL     1      41.529 -16.242   3.462  1.00  0.00     0.300 C 
HETATM   30  O   UNL     1      41.321 -15.397   2.603  1.00  0.00    -0.259 OA
BRANCH  29  31
HETATM   31  C   UNL     1      42.288 -17.479   3.186  1.00  0.00     0.061 A 
HETATM   32  C   UNL     1      42.215 -18.177   1.974  1.00  0.00     0.050 A 
HETATM   33 CL   UNL     1      41.251 -17.660   0.637  1.00  0.00    -0.083 Cl
HETATM   34  C   UNL     1      43.001 -19.321   1.788  1.00  0.00     0.025 A 
HETATM   35  C   UNL     1      43.866 -19.757   2.795  1.00  0.00     0.002 A 
HETATM   36  C   UNL     1      43.956 -19.048   3.991  1.00  0.00     0.001 A 
HETATM   37  C   UNL     1      43.173 -17.911   4.187  1.00  0.00     0.019 A 
ENDBRANCH  29  31
ENDBRANCH  28  29
ENDBRANCH   2  28
TORSDOF 6
ENDMDL
MODEL 7
REMARK VINA RESULT:      -8.3      2.251      3.359
REMARK  6 active torsions:
REMARK  status: ('A' for Active; 'I' for Inactive)
REMARK    1  A    between atoms: C_2  and  O_3 
REMARK    2  A    between atoms: O_3  and  C_4 
REMARK    3  A    between atoms: C_5  and  O_6 
REMARK    4  A    between atoms: O_6  and  C_7 
REMARK    5  A    between atoms: C_7  and  C_8 
REMARK    6  A    between atoms: C_18  and  C_19 
ROOT
HETATM    1  C   UNL     1      41.091 -16.333   3.154  1.00  0.00     0.103 A 
HETATM    2  C   UNL     1      41.721 -17.495   2.701  1.00  0.00     0.112 A 
HETATM    3  C   UNL     1      41.878 -17.758   1.341  1.00  0.00     0.041 A 
HETATM    4  C   UNL     1      41.438 -16.821   0.410  1.00  0.00     0.014 A 
HETATM    5  C   UNL     1      40.814 -15.626   0.823  1.00  0.00    -0.013 A 
HETATM    6  C   UNL     1      40.635 -15.409   2.207  1.00  0.00     0.050 A 
ENDROOT
BRANCH   5   7
HETATM    7  C   UNL     1      40.359 -14.642  -0.246  1.00  0.00     0.219 C 
HETATM    8  N   UNL     1      38.933 -14.433  -0.196  1.00  0.00    -0.332 N 
HETATM    9  C   UNL     1      38.329 -13.438   0.519  1.00  0.00     0.256 C 
HETATM   10  H   UNL     1      38.334 -15.219  -0.398  1.00  0.00     0.165 HD
HETATM   11  O   UNL     1      37.131 -13.463   0.780  1.00  0.00    -0.267 OA
HETATM   12  C   UNL     1      39.191 -12.335   0.898  1.00  0.00     0.073 A 
HETATM   13  C   UNL     1      40.507 -12.350   0.499  1.00  0.00     0.088 A 
HETATM   14  C   UNL     1      38.872 -11.155   1.640  1.00  0.00    -0.023 A 
HETATM   15  S   UNL     1      41.355 -10.960   0.992  1.00  0.00    -0.074 SA
HETATM   16  N   UNL     1      41.050 -13.366  -0.202  1.00  0.00    -0.358 N 
HETATM   17  C   UNL     1      39.971 -10.322   1.750  1.00  0.00     0.018 A 
HETATM   18  C   UNL     1      39.984  -9.013   2.459  1.00  0.00     0.281 C 
HETATM   19  N   UNL     1      38.568  -8.506   2.715  1.00  0.00    -0.070 N 
HETATM   20  C   UNL     1      37.656  -9.623   3.221  1.00  0.00     0.239 C 
HETATM   21  H   UNL     1      38.645  -7.823   3.478  1.00  0.00     0.279 HD
HETATM   22  C   UNL     1      38.000  -7.761   1.540  1.00  0.00     0.270 C 
HETATM   23  C   UNL     1      37.537 -10.782   2.216  1.00  0.00     0.068 C 
HETATM   24  H   UNL     1      42.056 -13.420  -0.340  1.00  0.00     0.162 HD
ENDBRANCH   5   7
BRANCH   1  25
HETATM   25  O   UNL     1      40.944 -16.203   4.509  1.00  0.00    -0.349 OA
BRANCH  25  26
HETATM   26  C   UNL     1      41.874 -15.348   5.171  1.00  0.00     0.171 C 
HETATM   27  C   UNL     1      42.475 -16.116   6.334  1.00  0.00     0.034 C 
ENDBRANCH  25  26
ENDBRANCH   1  25
BRANCH   2  28
HETATM   28  O   UNL     1      42.193 -18.442   3.613  1.00  0.00    -0.272 OA
BRANCH  28  29
HETATM   29  C   UNL     1      43.571 -18.483   3.618  1.00  0.00     0.300 C 
HETATM   30  O   UNL     1      44.352 -17.547   3.713  1.00  0.00    -0.259 OA
BRANCH  29  31
HETATM   31  C   UNL     1      44.022 -19.888   3.580  1.00  0.00     0.061 A 
HETATM   32  C   UNL     1      44.386 -20.616   4.720  1.00  0.00     0.050 A 
HETATM   33 CL   UNL     1      44.320 -19.968   6.320  1.00  0.00    -0.083 Cl
HETATM   34  C   UNL     1      44.765 -21.957   4.591  1.00  0.00     0.025 A 
HETATM   35  C   UNL     1      44.767 -22.575   3.338  1.00  0.00     0.002 A 
HETATM   36  C   UNL     1      44.383 -21.858   2.207  1.00  0.00     0.001 A 
HETATM   37  C   UNL     1      44.009 -20.520   2.326  1.00  0.00     0.019 A 
ENDBRANCH  29  31
ENDBRANCH  28  29
ENDBRANCH   2  28
TORSDOF 6
ENDMDL
MODEL 8
REMARK VINA RESULT:      -8.2      1.753      2.278
REMARK  6 active torsions:
REMARK  status: ('A' for Active; 'I' for Inactive)
REMARK    1  A    between atoms: C_2  and  O_3 
REMARK    2  A    between atoms: O_3  and  C_4 
REMARK    3  A    between atoms: C_5  and  O_6 
REMARK    4  A    between atoms: O_6  and  C_7 
REMARK    5  A    between atoms: C_7  and  C_8 
REMARK    6  A    between atoms: C_18  and  C_19 
ROOT
HETATM    1  C   UNL     1      40.809 -15.759   2.755  1.00  0.00     0.103 A 
HETATM    2  C   UNL     1      41.471 -16.869   2.224  1.00  0.00     0.112 A 
HETATM    3  C   UNL     1      41.533 -17.093   0.849  1.00  0.00     0.041 A 
HETATM    4  C   UNL     1      40.963 -16.167  -0.020  1.00  0.00     0.014 A 
HETATM    5  C   UNL     1      40.303 -15.023   0.473  1.00  0.00    -0.013 A 
HETATM    6  C   UNL     1      40.222 -14.846   1.871  1.00  0.00     0.050 A 
ENDROOT
BRANCH   5   7
HETATM    7  C   UNL     1      39.703 -14.047  -0.532  1.00  0.00     0.219 C 
HETATM    8  N   UNL     1      39.093 -12.921   0.130  1.00  0.00    -0.332 N 
HETATM    9  C   UNL     1      39.738 -11.747   0.398  1.00  0.00     0.256 C 
HETATM   10  H   UNL     1      38.294 -13.096   0.720  1.00  0.00     0.165 HD
HETATM   11  O   UNL     1      39.300 -10.936   1.207  1.00  0.00    -0.267 OA
HETATM   12  C   UNL     1      40.941 -11.509  -0.377  1.00  0.00     0.073 A 
HETATM   13  C   UNL     1      41.321 -12.436  -1.319  1.00  0.00     0.088 A 
HETATM   14  C   UNL     1      41.834 -10.393  -0.337  1.00  0.00    -0.023 A 
HETATM   15  S   UNL     1      42.724 -11.975  -2.162  1.00  0.00    -0.074 SA
HETATM   16  N   UNL     1      40.645 -13.583  -1.535  1.00  0.00    -0.358 N 
HETATM   17  C   UNL     1      42.844 -10.528  -1.273  1.00  0.00     0.018 A 
HETATM   18  C   UNL     1      43.940  -9.545  -1.495  1.00  0.00     0.281 C 
HETATM   19  N   UNL     1      43.615  -8.197  -0.858  1.00  0.00    -0.070 N 
HETATM   20  C   UNL     1      43.034  -8.367   0.545  1.00  0.00     0.239 C 
HETATM   21  H   UNL     1      44.514  -7.713  -0.746  1.00  0.00     0.279 HD
HETATM   22  C   UNL     1      42.776  -7.325  -1.748  1.00  0.00     0.270 C 
HETATM   23  C   UNL     1      41.729  -9.183   0.543  1.00  0.00     0.068 C 
HETATM   24  H   UNL     1      41.040 -14.315  -2.120  1.00  0.00     0.162 HD
ENDBRANCH   5   7
BRANCH   1  25
HETATM   25  O   UNL     1      40.765 -15.667   4.120  1.00  0.00    -0.349 OA
BRANCH  25  26
HETATM   26  C   UNL     1      40.021 -14.576   4.661  1.00  0.00     0.171 C 
HETATM   27  C   UNL     1      40.995 -13.641   5.355  1.00  0.00     0.034 C 
ENDBRANCH  25  26
ENDBRANCH   1  25
BRANCH   2  28
HETATM   28  O   UNL     1      42.071 -17.803   3.070  1.00  0.00    -0.272 OA
BRANCH  28  29
HETATM   29  C   UNL     1      43.421 -17.913   2.811  1.00  0.00     0.300 C 
HETATM   30  O   UNL     1      44.226 -17.015   2.609  1.00  0.00    -0.259 OA
BRANCH  29  31
HETATM   31  C   UNL     1      43.825 -19.332   2.894  1.00  0.00     0.061 A 
HETATM   32  C   UNL     1      44.482 -19.885   4.000  1.00  0.00     0.050 A 
HETATM   33 CL   UNL     1      44.875 -18.984   5.420  1.00  0.00    -0.083 Cl
HETATM   34  C   UNL     1      44.792 -21.250   4.006  1.00  0.00     0.025 A 
HETATM   35  C   UNL     1      44.436 -22.062   2.927  1.00  0.00     0.002 A 
HETATM   36  C   UNL     1      43.761 -21.517   1.836  1.00  0.00     0.001 A 
HETATM   37  C   UNL     1      43.452 -20.156   1.820  1.00  0.00     0.019 A 
ENDBRANCH  29  31
ENDBRANCH  28  29
ENDBRANCH   2  28
TORSDOF 6
ENDMDL
MODEL 9
REMARK VINA RESULT:      -8.2      2.266      3.006
REMARK  6 active torsions:
REMARK  status: ('A' for Active; 'I' for Inactive)
REMARK    1  A    between atoms: C_2  and  O_3 
REMARK    2  A    between atoms: O_3  and  C_4 
REMARK    3  A    between atoms: C_5  and  O_6 
REMARK    4  A    between atoms: O_6  and  C_7 
REMARK    5  A    between atoms: C_7  and  C_8 
REMARK    6  A    between atoms: C_18  and  C_19 
ROOT
HETATM    1  C   UNL     1      40.484 -15.569   2.372  1.00  0.00     0.103 A 
HETATM    2  C   UNL     1      41.335 -16.656   2.592  1.00  0.00     0.112 A 
HETATM    3  C   UNL     1      42.013 -17.275   1.543  1.00  0.00     0.041 A 
HETATM    4  C   UNL     1      41.877 -16.774   0.251  1.00  0.00     0.014 A 
HETATM    5  C   UNL     1      41.044 -15.667  -0.012  1.00  0.00    -0.013 A 
HETATM    6  C   UNL     1      40.340 -15.088   1.066  1.00  0.00     0.050 A 
ENDROOT
BRANCH   5   7
HETATM    7  C   UNL     1      40.942 -15.166  -1.447  1.00  0.00     0.219 C 
HETATM    8  N   UNL     1      39.622 -14.662  -1.734  1.00  0.00    -0.332 N 
HETATM    9  C   UNL     1      39.253 -13.354  -1.593  1.00  0.00     0.256 C 
HETATM   10  H   UNL     1      38.852 -15.313  -1.708  1.00  0.00     0.165 HD
HETATM   11  O   UNL     1      38.076 -13.013  -1.557  1.00  0.00    -0.267 OA
HETATM   12  C   UNL     1      40.347 -12.403  -1.539  1.00  0.00     0.073 A 
HETATM   13  C   UNL     1      41.637 -12.863  -1.662  1.00  0.00     0.088 A 
HETATM   14  C   UNL     1      40.300 -10.981  -1.397  1.00  0.00    -0.023 A 
HETATM   15  S   UNL     1      42.785 -11.609  -1.623  1.00  0.00    -0.074 SA
HETATM   16  N   UNL     1      41.940 -14.171  -1.794  1.00  0.00    -0.358 N 
HETATM   17  C   UNL     1      41.569 -10.433  -1.437  1.00  0.00     0.018 A 
HETATM   18  C   UNL     1      41.877  -8.981  -1.317  1.00  0.00     0.281 C 
HETATM   19  N   UNL     1      40.631  -8.129  -1.537  1.00  0.00    -0.070 N 
HETATM   20  C   UNL     1      39.424  -8.702  -0.797  1.00  0.00     0.239 C 
HETATM   21  H   UNL     1      40.832  -7.217  -1.109  1.00  0.00     0.279 HD
HETATM   22  C   UNL     1      40.364  -7.859  -2.991  1.00  0.00     0.270 C 
HETATM   23  C   UNL     1      39.074 -10.126  -1.261  1.00  0.00     0.068 C 
HETATM   24  H   UNL     1      42.903 -14.489  -1.721  1.00  0.00     0.162 HD
ENDBRANCH   5   7
BRANCH   1  25
HETATM   25  O   UNL     1      39.829 -15.072   3.467  1.00  0.00    -0.349 OA
BRANCH  25  26
HETATM   26  C   UNL     1      40.373 -13.892   4.054  1.00  0.00     0.171 C 
HETATM   27  C   UNL     1      40.338 -14.058   5.562  1.00  0.00     0.034 C 
ENDBRANCH  25  26
ENDBRANCH   1  25
BRANCH   2  28
HETATM   28  O   UNL     1      41.509 -17.166   3.880  1.00  0.00    -0.272 OA
BRANCH  28  29
HETATM   29  C   UNL     1      42.779 -16.907   4.350  1.00  0.00     0.300 C 
HETATM   30  O   UNL     1      43.343 -15.826   4.441  1.00  0.00    -0.259 OA
BRANCH  29  31
HETATM   31  C   UNL     1      43.387 -18.160   4.842  1.00  0.00     0.061 A 
HETATM   32  C   UNL     1      43.355 -18.561   6.183  1.00  0.00     0.050 A 
HETATM   33 CL   UNL     1      42.571 -17.653   7.427  1.00  0.00    -0.083 Cl
HETATM   34  C   UNL     1      43.926 -19.785   6.552  1.00  0.00     0.025 A 
HETATM   35  C   UNL     1      44.509 -20.612   5.589  1.00  0.00     0.002 A 
HETATM   36  C   UNL     1      44.520 -20.224   4.250  1.00  0.00     0.001 A 
HETATM   37  C   UNL     1      43.958 -19.004   3.876  1.00  0.00     0.019 A 
ENDBRANCH  29  31
ENDBRANCH  28  29
ENDBRANCH   2  28
TORSDOF 6
ENDMDL
MODEL 10
REMARK VINA RESULT:      -8.1      3.396      4.839
REMARK  6 active torsions:
REMARK  status: ('A' for Active; 'I' for Inactive)
REMARK    1  A    between atoms: C_2  and  O_3 
REMARK    2  A    between atoms: O_3  and  C_4 
REMARK    3  A    between atoms: C_5  and  O_6 
REMARK    4  A    between atoms: O_6  and  C_7 
REMARK    5  A    between atoms: C_7  and  C_8 
REMARK    6  A    between atoms: C_18  and  C_19 
ROOT
HETATM    1  C   UNL     1      40.177 -15.146   1.757  1.00  0.00     0.103 A 
HETATM    2  C   UNL     1      40.705 -16.440   1.765  1.00  0.00     0.112 A 
HETATM    3  C   UNL     1      41.342 -16.975   0.648  1.00  0.00     0.041 A 
HETATM    4  C   UNL     1      41.499 -16.188  -0.491  1.00  0.00     0.014 A 
HETATM    5  C   UNL     1      40.999 -14.871  -0.535  1.00  0.00    -0.013 A 
HETATM    6  C   UNL     1      40.322 -14.374   0.600  1.00  0.00     0.050 A 
ENDROOT
BRANCH   5   7
HETATM    7  C   UNL     1      41.207 -14.063  -1.809  1.00  0.00     0.219 C 
HETATM    8  N   UNL     1      40.937 -14.854  -2.984  1.00  0.00    -0.332 N 
HETATM    9  C   UNL     1      39.722 -14.915  -3.605  1.00  0.00     0.256 C 
HETATM   10  H   UNL     1      41.534 -15.647  -3.166  1.00  0.00     0.165 HD
HETATM   11  O   UNL     1      39.446 -15.804  -4.404  1.00  0.00    -0.267 OA
HETATM   12  C   UNL     1      38.810 -13.831  -3.292  1.00  0.00     0.073 A 
HETATM   13  C   UNL     1      39.228 -12.833  -2.444  1.00  0.00     0.088 A 
HETATM   14  C   UNL     1      37.481 -13.605  -3.768  1.00  0.00    -0.023 A 
HETATM   15  S   UNL     1      38.051 -11.625  -2.226  1.00  0.00    -0.074 SA
HETATM   16  N   UNL     1      40.441 -12.830  -1.854  1.00  0.00    -0.358 N 
HETATM   17  C   UNL     1      36.964 -12.426  -3.263  1.00  0.00     0.018 A 
HETATM   18  C   UNL     1      35.605 -11.893  -3.558  1.00  0.00     0.281 C 
HETATM   19  N   UNL     1      34.992 -12.578  -4.776  1.00  0.00    -0.070 N 
HETATM   20  C   UNL     1      35.212 -14.089  -4.737  1.00  0.00     0.239 C 
HETATM   21  H   UNL     1      33.979 -12.427  -4.706  1.00  0.00     0.279 HD
HETATM   22  C   UNL     1      35.421 -11.947  -6.070  1.00  0.00     0.270 C 
HETATM   23  C   UNL     1      36.704 -14.464  -4.722  1.00  0.00     0.068 C 
HETATM   24  H   UNL     1      40.655 -12.167  -1.114  1.00  0.00     0.162 HD
ENDBRANCH   5   7
BRANCH   1  25
HETATM   25  O   UNL     1      39.525 -14.743   2.892  1.00  0.00    -0.349 OA
BRANCH  25  26
HETATM   26  C   UNL     1      40.178 -13.752   3.683  1.00  0.00     0.171 C 
HETATM   27  C   UNL     1      40.036 -14.148   5.142  1.00  0.00     0.034 C 
ENDBRANCH  25  26
ENDBRANCH   1  25
BRANCH   2  28
HETATM   28  O   UNL     1      40.582 -17.244   2.901  1.00  0.00    -0.272 OA
BRANCH  28  29
HETATM   29  C   UNL     1      41.801 -17.776   3.267  1.00  0.00     0.300 C 
HETATM   30  O   UNL     1      42.450 -18.637   2.691  1.00  0.00    -0.259 OA
BRANCH  29  31
HETATM   31  C   UNL     1      42.302 -17.077   4.467  1.00  0.00     0.061 A 
HETATM   32  C   UNL     1      43.140 -15.956   4.416  1.00  0.00     0.050 A 
HETATM   33 CL   UNL     1      43.666 -15.231   2.939  1.00  0.00    -0.083 Cl
HETATM   34  C   UNL     1      43.536 -15.336   5.607  1.00  0.00     0.025 A 
HETATM   35  C   UNL     1      43.087 -15.817   6.839  1.00  0.00     0.002 A 
HETATM   36  C   UNL     1      42.234 -16.918   6.889  1.00  0.00     0.001 A 
HETATM   37  C   UNL     1      41.839 -17.545   5.707  1.00  0.00     0.019 A 
ENDBRANCH  29  31
ENDBRANCH  28  29
ENDBRANCH   2  28
TORSDOF 6
ENDMDL
