MODEL 1
REMARK VINA RESULT:      -9.4      0.000      0.000
REMARK  2 active torsions:
REMARK  status: ('A' for Active; 'I' for Inactive)
REMARK    1  A    between atoms: C_9  and  C_10 
REMARK       I    between atoms: C_10  and  N_11 
REMARK    2  A    between atoms: N_11  and  C_12 
ROOT
HETATM    1  C   UNL     1      43.169 -16.647   3.597  1.00  0.00     0.277 C 
HETATM    2  N   UNL     1      42.185 -17.060   2.716  1.00  0.00    -0.322 N 
HETATM    3  O   UNL     1      43.605 -15.508   3.712  1.00  0.00    -0.266 OA
HETATM    4  H   UNL     1      41.955 -18.047   2.810  1.00  0.00     0.169 HD
ENDROOT
BRANCH   2   5
HETATM    5  C   UNL     1      41.475 -16.296   1.776  1.00  0.00     0.037 A 
HETATM    6  C   UNL     1      41.834 -16.191   0.430  1.00  0.00     0.062 A 
HETATM    7  C   UNL     1      41.077 -15.399  -0.438  1.00  0.00     0.070 A 
HETATM    8  C   UNL     1      39.957 -14.707   0.027  1.00  0.00     0.096 A 
HETATM    9  N   UNL     1      41.433 -15.328  -1.785  1.00  0.00    -0.323 N 
HETATM   10  O   UNL     1      39.150 -13.942  -0.766  1.00  0.00    -0.340 OA
HETATM   11  C   UNL     1      39.586 -14.822   1.363  1.00  0.00     0.041 A 
HETATM   12  C   UNL     1      39.692 -13.630  -2.041  1.00  0.00     0.278 C 
HETATM   13  C   UNL     1      40.763 -14.524  -2.664  1.00  0.00     0.246 C 
HETATM   14  O   UNL     1      41.059 -14.486  -3.855  1.00  0.00    -0.271 OA
HETATM   15  C   UNL     1      40.341 -15.613   2.233  1.00  0.00     0.032 A 
HETATM   16  H   UNL     1      42.193 -15.885  -2.154  1.00  0.00     0.169 HD
ENDBRANCH   2   5
BRANCH   1  17
HETATM   17  C   UNL     1      43.649 -17.763   4.435  1.00  0.00     0.157 A 
HETATM   18  C   UNL     1      43.937 -19.097   4.021  1.00  0.00     0.029 A 
HETATM   19  C   UNL     1      43.898 -19.815   2.809  1.00  0.00     0.023 A 
HETATM   20  C   UNL     1      44.357 -19.751   5.172  1.00  0.00     0.063 A 
HETATM   21  C   UNL     1      44.288 -21.165   2.790  1.00  0.00    -0.061 A 
HETATM   22  C   UNL     1      44.263 -21.947   1.509  1.00  0.00     0.048 C 
HETATM   23  C   UNL     1      44.697 -21.788   3.977  1.00  0.00     0.009 A 
HETATM   24  C   UNL     1      44.740 -21.094   5.192  1.00  0.00     0.032 A 
HETATM   25  N   UNL     1      44.295 -18.811   6.163  1.00  0.00    -0.277 N 
HETATM   26  H   UNL     1      44.526 -18.939   7.142  1.00  0.00     0.189 HD
HETATM   27  N   UNL     1      43.888 -17.595   5.755  1.00  0.00    -0.168 NA
ENDBRANCH   1  17
TORSDOF 2
ENDMDL
MODEL 2
REMARK VINA RESULT:      -8.9      1.300      2.133
REMARK  2 active torsions:
REMARK  status: ('A' for Active; 'I' for Inactive)
REMARK    1  A    between atoms: C_9  and  C_10 
REMARK       I    between atoms: C_10  and  N_11 
REMARK    2  A    between atoms: N_11  and  C_12 
ROOT
HETATM    1  C   UNL     1      43.107 -16.736   3.811  1.00  0.00     0.277 C 
HETATM    2  N   UNL     1      42.233 -17.151   2.821  1.00  0.00    -0.322 N 
HETATM    3  O   UNL     1      43.434 -15.578   4.047  1.00  0.00    -0.266 OA
HETATM    4  H   UNL     1      42.082 -18.158   2.821  1.00  0.00     0.169 HD
ENDROOT
BRANCH   2   5
HETATM    5  C   UNL     1      41.537 -16.372   1.883  1.00  0.00     0.037 A 
HETATM    6  C   UNL     1      40.351 -15.690   2.167  1.00  0.00     0.062 A 
HETATM    7  C   UNL     1      39.716 -14.944   1.170  1.00  0.00     0.070 A 
HETATM    8  C   UNL     1      40.255 -14.873  -0.115  1.00  0.00     0.096 A 
HETATM    9  N   UNL     1      38.549 -14.245   1.479  1.00  0.00    -0.323 N 
HETATM   10  O   UNL     1      39.711 -14.139  -1.131  1.00  0.00    -0.340 OA
HETATM   11  C   UNL     1      41.445 -15.538  -0.399  1.00  0.00     0.041 A 
HETATM   12  C   UNL     1      38.382 -13.697  -0.899  1.00  0.00     0.278 C 
HETATM   13  C   UNL     1      37.855 -13.549   0.529  1.00  0.00     0.246 C 
HETATM   14  O   UNL     1      36.846 -12.909   0.809  1.00  0.00    -0.271 OA
HETATM   15  C   UNL     1      42.082 -16.284   0.596  1.00  0.00     0.032 A 
HETATM   16  H   UNL     1      38.189 -14.222   2.424  1.00  0.00     0.169 HD
ENDBRANCH   2   5
BRANCH   1  17
HETATM   17  C   UNL     1      43.613 -17.874   4.600  1.00  0.00     0.157 A 
HETATM   18  C   UNL     1      43.914 -19.188   4.134  1.00  0.00     0.029 A 
HETATM   19  C   UNL     1      43.869 -19.862   2.897  1.00  0.00     0.023 A 
HETATM   20  C   UNL     1      44.357 -19.878   5.255  1.00  0.00     0.063 A 
HETATM   21  C   UNL     1      44.277 -21.205   2.824  1.00  0.00    -0.061 A 
HETATM   22  C   UNL     1      44.247 -21.939   1.514  1.00  0.00     0.048 C 
HETATM   23  C   UNL     1      44.710 -21.865   3.981  1.00  0.00     0.009 A 
HETATM   24  C   UNL     1      44.758 -21.215   5.220  1.00  0.00     0.032 A 
HETATM   25  N   UNL     1      44.295 -18.976   6.281  1.00  0.00    -0.277 N 
HETATM   26  H   UNL     1      44.540 -19.137   7.251  1.00  0.00     0.189 HD
HETATM   27  N   UNL     1      43.866 -17.752   5.923  1.00  0.00    -0.168 NA
ENDBRANCH   1  17
TORSDOF 2
ENDMDL
MODEL 3
REMARK VINA RESULT:      -8.7      1.790      2.216
REMARK  2 active torsions:
REMARK  status: ('A' for Active; 'I' for Inactive)
REMARK    1  A    between atoms: C_9  and  C_10 
REMARK       I    between atoms: C_10  and  N_11 
REMARK    2  A    between atoms: N_11  and  C_12 
ROOT
HETATM    1  C   UNL     1      41.239 -17.070   1.902  1.00  0.00     0.277 C 
HETATM    2  N   UNL     1      40.966 -15.715   1.972  1.00  0.00    -0.322 N 
HETATM    3  O   UNL     1      40.771 -17.860   1.091  1.00  0.00    -0.266 OA
HETATM    4  H   UNL     1      41.488 -15.242   2.707  1.00  0.00     0.169 HD
ENDROOT
BRANCH   2   5
HETATM    5  C   UNL     1      40.117 -14.949   1.158  1.00  0.00     0.037 A 
HETATM    6  C   UNL     1      40.502 -14.401  -0.068  1.00  0.00     0.062 A 
HETATM    7  C   UNL     1      39.596 -13.640  -0.812  1.00  0.00     0.070 A 
HETATM    8  C   UNL     1      38.301 -13.419  -0.340  1.00  0.00     0.096 A 
HETATM    9  N   UNL     1      39.988 -13.125  -2.047  1.00  0.00    -0.323 N 
HETATM   10  O   UNL     1      37.350 -12.715  -1.024  1.00  0.00    -0.340 OA
HETATM   11  C   UNL     1      37.907 -13.976   0.873  1.00  0.00     0.041 A 
HETATM   12  C   UNL     1      37.846 -11.946  -2.110  1.00  0.00     0.278 C 
HETATM   13  C   UNL     1      39.162 -12.326  -2.787  1.00  0.00     0.246 C 
HETATM   14  O   UNL     1      39.498 -11.899  -3.889  1.00  0.00    -0.271 OA
HETATM   15  C   UNL     1      38.811 -14.737   1.618  1.00  0.00     0.032 A 
HETATM   16  H   UNL     1      40.895 -13.341  -2.439  1.00  0.00     0.169 HD
ENDBRANCH   2   5
BRANCH   1  17
HETATM   17  C   UNL     1      42.207 -17.482   2.936  1.00  0.00     0.157 A 
HETATM   18  C   UNL     1      43.000 -18.668   2.958  1.00  0.00     0.029 A 
HETATM   19  C   UNL     1      43.176 -19.789   2.122  1.00  0.00     0.023 A 
HETATM   20  C   UNL     1      43.743 -18.585   4.129  1.00  0.00     0.063 A 
HETATM   21  C   UNL     1      44.097 -20.786   2.484  1.00  0.00    -0.061 A 
HETATM   22  C   UNL     1      44.308 -21.984   1.603  1.00  0.00     0.048 C 
HETATM   23  C   UNL     1      44.820 -20.666   3.678  1.00  0.00     0.009 A 
HETATM   24  C   UNL     1      44.657 -19.564   4.525  1.00  0.00     0.032 A 
HETATM   25  N   UNL     1      43.364 -17.408   4.713  1.00  0.00    -0.277 N 
HETATM   26  H   UNL     1      43.702 -17.023   5.588  1.00  0.00     0.189 HD
HETATM   27  N   UNL     1      42.452 -16.706   4.015  1.00  0.00    -0.168 NA
ENDBRANCH   1  17
TORSDOF 2
ENDMDL
MODEL 4
REMARK VINA RESULT:      -8.5      1.948      2.680
REMARK  2 active torsions:
REMARK  status: ('A' for Active; 'I' for Inactive)
REMARK    1  A    between atoms: C_9  and  C_10 
REMARK       I    between atoms: C_10  and  N_11 
REMARK    2  A    between atoms: N_11  and  C_12 
ROOT
HETATM    1  C   UNL     1      41.534 -15.038   3.654  1.00  0.00     0.277 C 
HETATM    2  N   UNL     1      42.311 -14.808   2.531  1.00  0.00    -0.322 N 
HETATM    3  O   UNL     1      40.315 -14.933   3.722  1.00  0.00    -0.266 OA
HETATM    4  H   UNL     1      43.301 -14.983   2.691  1.00  0.00     0.169 HD
ENDROOT
BRANCH   2   5
HETATM    5  C   UNL     1      41.902 -14.414   1.248  1.00  0.00     0.037 A 
HETATM    6  C   UNL     1      41.446 -15.302   0.271  1.00  0.00     0.062 A 
HETATM    7  C   UNL     1      41.067 -14.826  -0.988  1.00  0.00     0.070 A 
HETATM    8  C   UNL     1      41.140 -13.463  -1.282  1.00  0.00     0.096 A 
HETATM    9  N   UNL     1      40.586 -15.723  -1.941  1.00  0.00    -0.323 N 
HETATM   10  O   UNL     1      40.757 -12.920  -2.476  1.00  0.00    -0.340 OA
HETATM   11  C   UNL     1      41.578 -12.573  -0.307  1.00  0.00     0.041 A 
HETATM   12  C   UNL     1      40.571 -13.859  -3.524  1.00  0.00     0.278 C 
HETATM   13  C   UNL     1      40.258 -15.320  -3.206  1.00  0.00     0.246 C 
HETATM   14  O   UNL     1      39.806 -16.106  -4.034  1.00  0.00    -0.271 OA
HETATM   15  C   UNL     1      41.958 -13.046   0.952  1.00  0.00     0.032 A 
HETATM   16  H   UNL     1      40.452 -16.700  -1.718  1.00  0.00     0.169 HD
ENDBRANCH   2   5
BRANCH   1  17
HETATM   17  C   UNL     1      42.355 -15.458   4.805  1.00  0.00     0.157 A 
HETATM   18  C   UNL     1      43.125 -16.652   4.931  1.00  0.00     0.029 A 
HETATM   19  C   UNL     1      43.397 -17.776   4.125  1.00  0.00     0.023 A 
HETATM   20  C   UNL     1      43.710 -16.574   6.189  1.00  0.00     0.063 A 
HETATM   21  C   UNL     1      44.252 -18.783   4.605  1.00  0.00    -0.061 A 
HETATM   22  C   UNL     1      44.563 -19.984   3.759  1.00  0.00     0.048 C 
HETATM   23  C   UNL     1      44.815 -18.668   5.883  1.00  0.00     0.009 A 
HETATM   24  C   UNL     1      44.555 -17.562   6.701  1.00  0.00     0.032 A 
HETATM   25  N   UNL     1      43.272 -15.392   6.717  1.00  0.00    -0.277 N 
HETATM   26  H   UNL     1      43.497 -15.010   7.629  1.00  0.00     0.189 HD
HETATM   27  N   UNL     1      42.466 -14.682   5.907  1.00  0.00    -0.168 NA
ENDBRANCH   1  17
TORSDOF 2
ENDMDL
MODEL 5
REMARK VINA RESULT:      -8.4      2.618      7.944
REMARK  2 active torsions:
REMARK  status: ('A' for Active; 'I' for Inactive)
REMARK    1  A    between atoms: C_9  and  C_10 
REMARK       I    between atoms: C_10  and  N_11 
REMARK    2  A    between atoms: N_11  and  C_12 
ROOT
HETATM    1  C   UNL     1      41.708 -15.693   1.530  1.00  0.00     0.277 C 
HETATM    2  N   UNL     1      42.983 -16.208   1.687  1.00  0.00    -0.322 N 
HETATM    3  O   UNL     1      40.692 -16.097   2.084  1.00  0.00    -0.266 OA
HETATM    4  H   UNL     1      43.685 -15.700   1.152  1.00  0.00     0.169 HD
ENDROOT
BRANCH   2   5
HETATM    5  C   UNL     1      43.403 -17.279   2.491  1.00  0.00     0.037 A 
HETATM    6  C   UNL     1      43.607 -18.576   2.014  1.00  0.00     0.062 A 
HETATM    7  C   UNL     1      44.016 -19.588   2.887  1.00  0.00     0.070 A 
HETATM    8  C   UNL     1      44.224 -19.316   4.240  1.00  0.00     0.096 A 
HETATM    9  N   UNL     1      44.243 -20.871   2.388  1.00  0.00    -0.323 N 
HETATM   10  O   UNL     1      44.655 -20.244   5.146  1.00  0.00    -0.340 OA
HETATM   11  C   UNL     1      44.039 -18.022   4.718  1.00  0.00     0.041 A 
HETATM   12  C   UNL     1      44.580 -21.590   4.701  1.00  0.00     0.278 C 
HETATM   13  C   UNL     1      44.586 -21.910   3.207  1.00  0.00     0.246 C 
HETATM   14  O   UNL     1      44.815 -23.031   2.761  1.00  0.00    -0.271 OA
HETATM   15  C   UNL     1      43.630 -17.009   3.847  1.00  0.00     0.032 A 
HETATM   16  H   UNL     1      44.172 -21.065   1.398  1.00  0.00     0.169 HD
ENDBRANCH   2   5
BRANCH   1  17
HETATM   17  C   UNL     1      41.696 -14.546   0.602  1.00  0.00     0.157 A 
HETATM   18  C   UNL     1      41.220 -14.523  -0.742  1.00  0.00     0.029 A 
HETATM   19  C   UNL     1      40.637 -15.449  -1.629  1.00  0.00     0.023 A 
HETATM   20  C   UNL     1      41.425 -13.219  -1.176  1.00  0.00     0.063 A 
HETATM   21  C   UNL     1      40.271 -15.036  -2.922  1.00  0.00    -0.061 A 
HETATM   22  C   UNL     1      39.639 -16.003  -3.880  1.00  0.00     0.048 C 
HETATM   23  C   UNL     1      40.502 -13.713  -3.321  1.00  0.00     0.009 A 
HETATM   24  C   UNL     1      41.084 -12.778  -2.457  1.00  0.00     0.032 A 
HETATM   25  N   UNL     1      41.989 -12.570  -0.113  1.00  0.00    -0.277 N 
HETATM   26  H   UNL     1      42.277 -11.599  -0.073  1.00  0.00     0.189 HD
HETATM   27  N   UNL     1      42.154 -13.332   0.984  1.00  0.00    -0.168 NA
ENDBRANCH   1  17
TORSDOF 2
ENDMDL
MODEL 6
REMARK VINA RESULT:      -8.2      4.334      6.369
REMARK  2 active torsions:
REMARK  status: ('A' for Active; 'I' for Inactive)
REMARK    1  A    between atoms: C_9  and  C_10 
REMARK       I    between atoms: C_10  and  N_11 
REMARK    2  A    between atoms: N_11  and  C_12 
ROOT
HETATM    1  C   UNL     1      42.722 -14.571   3.030  1.00  0.00     0.277 C 
HETATM    2  N   UNL     1      41.537 -14.557   3.745  1.00  0.00    -0.322 N 
HETATM    3  O   UNL     1      43.559 -13.675   3.002  1.00  0.00    -0.266 OA
HETATM    4  H   UNL     1      41.004 -15.420   3.647  1.00  0.00     0.169 HD
ENDROOT
BRANCH   2   5
HETATM    5  C   UNL     1      41.028 -13.550   4.579  1.00  0.00     0.037 A 
HETATM    6  C   UNL     1      41.734 -12.998   5.651  1.00  0.00     0.062 A 
HETATM    7  C   UNL     1      41.147 -12.003   6.440  1.00  0.00     0.070 A 
HETATM    8  C   UNL     1      39.855 -11.553   6.167  1.00  0.00     0.096 A 
HETATM    9  N   UNL     1      41.877 -11.443   7.487  1.00  0.00    -0.323 N 
HETATM   10  O   UNL     1      39.228 -10.563   6.870  1.00  0.00    -0.340 OA
HETATM   11  C   UNL     1      39.153 -12.087   5.090  1.00  0.00     0.041 A 
HETATM   12  C   UNL     1      39.846 -10.228   8.104  1.00  0.00     0.278 C 
HETATM   13  C   UNL     1      41.332 -10.511   8.325  1.00  0.00     0.246 C 
HETATM   14  O   UNL     1      41.986  -9.996   9.228  1.00  0.00    -0.271 OA
HETATM   15  C   UNL     1      39.738 -13.081   4.301  1.00  0.00     0.032 A 
HETATM   16  H   UNL     1      42.842 -11.702   7.649  1.00  0.00     0.169 HD
ENDBRANCH   2   5
BRANCH   1  17
HETATM   17  C   UNL     1      42.894 -15.834   2.289  1.00  0.00     0.157 A 
HETATM   18  C   UNL     1      43.323 -17.092   2.806  1.00  0.00     0.029 A 
HETATM   19  C   UNL     1      43.705 -17.596   4.066  1.00  0.00     0.023 A 
HETATM   20  C   UNL     1      43.315 -17.953   1.716  1.00  0.00     0.063 A 
HETATM   21  C   UNL     1      44.061 -18.949   4.192  1.00  0.00    -0.061 A 
HETATM   22  C   UNL     1      44.462 -19.509   5.527  1.00  0.00     0.048 C 
HETATM   23  C   UNL     1      44.047 -19.781   3.065  1.00  0.00     0.009 A 
HETATM   24  C   UNL     1      43.674 -19.300   1.804  1.00  0.00     0.032 A 
HETATM   25  N   UNL     1      42.903 -17.192   0.658  1.00  0.00    -0.277 N 
HETATM   26  H   UNL     1      42.785 -17.493  -0.302  1.00  0.00     0.189 HD
HETATM   27  N   UNL     1      42.624 -15.912   0.966  1.00  0.00    -0.168 NA
ENDBRANCH   1  17
TORSDOF 2
ENDMDL
MODEL 7
REMARK VINA RESULT:      -8.0      4.046      8.080
REMARK  2 active torsions:
REMARK  status: ('A' for Active; 'I' for Inactive)
REMARK    1  A    between atoms: C_9  and  C_10 
REMARK       I    between atoms: C_10  and  N_11 
REMARK    2  A    between atoms: N_11  and  C_12 
ROOT
HETATM    1  C   UNL     1      41.940 -15.353   4.506  1.00  0.00     0.277 C 
HETATM    2  N   UNL     1      43.045 -15.929   3.902  1.00  0.00    -0.322 N 
HETATM    3  O   UNL     1      41.131 -15.925   5.228  1.00  0.00    -0.266 OA
HETATM    4  H   UNL     1      43.598 -15.262   3.368  1.00  0.00     0.169 HD
ENDROOT
BRANCH   2   5
HETATM    5  C   UNL     1      43.487 -17.260   3.970  1.00  0.00     0.037 A 
HETATM    6  C   UNL     1      43.354 -18.177   2.925  1.00  0.00     0.062 A 
HETATM    7  C   UNL     1      43.812 -19.489   3.081  1.00  0.00     0.070 A 
HETATM    8  C   UNL     1      44.405 -19.895   4.277  1.00  0.00     0.096 A 
HETATM    9  N   UNL     1      43.698 -20.383   2.016  1.00  0.00    -0.323 N 
HETATM   10  O   UNL     1      44.907 -21.148   4.491  1.00  0.00    -0.340 OA
HETATM   11  C   UNL     1      44.555 -18.981   5.315  1.00  0.00     0.041 A 
HETATM   12  C   UNL     1      44.509 -22.120   3.535  1.00  0.00     0.278 C 
HETATM   13  C   UNL     1      44.076 -21.691   2.134  1.00  0.00     0.246 C 
HETATM   14  O   UNL     1      44.003 -22.469   1.187  1.00  0.00    -0.271 OA
HETATM   15  C   UNL     1      44.097 -17.669   5.162  1.00  0.00     0.032 A 
HETATM   16  H   UNL     1      43.343 -20.083   1.118  1.00  0.00     0.169 HD
ENDBRANCH   2   5
BRANCH   1  17
HETATM   17  C   UNL     1      41.841 -13.915   4.196  1.00  0.00     0.157 A 
HETATM   18  C   UNL     1      41.240 -12.895   4.992  1.00  0.00     0.029 A 
HETATM   19  C   UNL     1      40.583 -12.833   6.238  1.00  0.00     0.023 A 
HETATM   20  C   UNL     1      41.410 -11.722   4.267  1.00  0.00     0.063 A 
HETATM   21  C   UNL     1      40.125 -11.595   6.719  1.00  0.00    -0.061 A 
HETATM   22  C   UNL     1      39.432 -11.504   8.048  1.00  0.00     0.048 C 
HETATM   23  C   UNL     1      40.312 -10.438   5.952  1.00  0.00     0.009 A 
HETATM   24  C   UNL     1      40.957 -10.478   4.710  1.00  0.00     0.032 A 
HETATM   25  N   UNL     1      42.072 -12.095   3.130  1.00  0.00    -0.277 N 
HETATM   26  H   UNL     1      42.360 -11.494   2.366  1.00  0.00     0.189 HD
HETATM   27  N   UNL     1      42.364 -13.406   3.057  1.00  0.00    -0.168 NA
ENDBRANCH   1  17
TORSDOF 2
ENDMDL
MODEL 8
REMARK VINA RESULT:      -8.0      2.297      8.138
REMARK  2 active torsions:
REMARK  status: ('A' for Active; 'I' for Inactive)
REMARK    1  A    between atoms: C_9  and  C_10 
REMARK       I    between atoms: C_10  and  N_11 
REMARK    2  A    between atoms: N_11  and  C_12 
ROOT
HETATM    1  C   UNL     1      41.828 -15.042   1.514  1.00  0.00     0.277 C 
HETATM    2  N   UNL     1      42.857 -15.953   1.342  1.00  0.00    -0.322 N 
HETATM    3  O   UNL     1      41.010 -15.040   2.426  1.00  0.00    -0.266 OA
HETATM    4  H   UNL     1      43.436 -15.749   0.530  1.00  0.00     0.169 HD
ENDROOT
BRANCH   2   5
HETATM    5  C   UNL     1      43.197 -17.052   2.146  1.00  0.00     0.037 A 
HETATM    6  C   UNL     1      43.136 -17.043   3.542  1.00  0.00     0.062 A 
HETATM    7  C   UNL     1      43.503 -18.180   4.267  1.00  0.00     0.070 A 
HETATM    8  C   UNL     1      43.935 -19.332   3.609  1.00  0.00     0.096 A 
HETATM    9  N   UNL     1      43.407 -18.164   5.659  1.00  0.00    -0.323 N 
HETATM   10  O   UNL     1      44.279 -20.491   4.246  1.00  0.00    -0.340 OA
HETATM   11  C   UNL     1      43.982 -19.352   2.218  1.00  0.00     0.041 A 
HETATM   12  C   UNL     1      44.475 -20.363   5.647  1.00  0.00     0.278 C 
HETATM   13  C   UNL     1      43.810 -19.225   6.419  1.00  0.00     0.246 C 
HETATM   14  O   UNL     1      43.696 -19.221   7.642  1.00  0.00    -0.271 OA
HETATM   15  C   UNL     1      43.616 -18.217   1.491  1.00  0.00     0.032 A 
HETATM   16  H   UNL     1      43.023 -17.365   6.146  1.00  0.00     0.169 HD
ENDBRANCH   2   5
BRANCH   1  17
HETATM   17  C   UNL     1      41.827 -14.019   0.451  1.00  0.00     0.157 A 
HETATM   18  C   UNL     1      41.328 -14.151  -0.879  1.00  0.00     0.029 A 
HETATM   19  C   UNL     1      40.709 -15.165  -1.636  1.00  0.00     0.023 A 
HETATM   20  C   UNL     1      41.555 -12.916  -1.474  1.00  0.00     0.063 A 
HETATM   21  C   UNL     1      40.331 -14.906  -2.965  1.00  0.00    -0.061 A 
HETATM   22  C   UNL     1      39.661 -15.969  -3.786  1.00  0.00     0.048 C 
HETATM   23  C   UNL     1      40.585 -13.649  -3.528  1.00  0.00     0.009 A 
HETATM   24  C   UNL     1      41.203 -12.629  -2.795  1.00  0.00     0.032 A 
HETATM   25  N   UNL     1      42.151 -12.155  -0.508  1.00  0.00    -0.277 N 
HETATM   26  H   UNL     1      42.462 -11.193  -0.593  1.00  0.00     0.189 HD
HETATM   27  N   UNL     1      42.318 -12.779   0.673  1.00  0.00    -0.168 NA
ENDBRANCH   1  17
TORSDOF 2
ENDMDL
MODEL 9
REMARK VINA RESULT:      -7.9      1.777      2.717
REMARK  2 active torsions:
REMARK  status: ('A' for Active; 'I' for Inactive)
REMARK    1  A    between atoms: C_9  and  C_10 
REMARK       I    between atoms: C_10  and  N_11 
REMARK    2  A    between atoms: N_11  and  C_12 
ROOT
HETATM    1  C   UNL     1      42.921 -16.517   2.435  1.00  0.00     0.277 C 
HETATM    2  N   UNL     1      41.714 -16.739   1.795  1.00  0.00    -0.322 N 
HETATM    3  O   UNL     1      43.510 -15.445   2.517  1.00  0.00    -0.266 OA
HETATM    4  H   UNL     1      41.393 -17.702   1.874  1.00  0.00     0.169 HD
ENDROOT
BRANCH   2   5
HETATM    5  C   UNL     1      40.903 -15.820   1.111  1.00  0.00     0.037 A 
HETATM    6  C   UNL     1      41.185 -15.337  -0.170  1.00  0.00     0.062 A 
HETATM    7  C   UNL     1      40.328 -14.413  -0.775  1.00  0.00     0.070 A 
HETATM    8  C   UNL     1      39.186 -13.963  -0.110  1.00  0.00     0.096 A 
HETATM    9  N   UNL     1      40.609 -13.964  -2.065  1.00  0.00    -0.323 N 
HETATM   10  O   UNL     1      38.286 -13.089  -0.649  1.00  0.00    -0.340 OA
HETATM   11  C   UNL     1      38.892 -14.454   1.159  1.00  0.00     0.041 A 
HETATM   12  C   UNL     1      38.737 -12.411  -1.812  1.00  0.00     0.278 C 
HETATM   13  C   UNL     1      39.838 -13.018  -2.680  1.00  0.00     0.246 C 
HETATM   14  O   UNL     1      40.069 -12.646  -3.828  1.00  0.00    -0.271 OA
HETATM   15  C   UNL     1      39.747 -15.377   1.766  1.00  0.00     0.032 A 
HETATM   16  H   UNL     1      41.388 -14.339  -2.590  1.00  0.00     0.169 HD
ENDBRANCH   2   5
BRANCH   1  17
HETATM   17  C   UNL     1      43.443 -17.752   3.051  1.00  0.00     0.157 A 
HETATM   18  C   UNL     1      43.580 -18.036   4.442  1.00  0.00     0.029 A 
HETATM   19  C   UNL     1      43.310 -17.359   5.649  1.00  0.00     0.023 A 
HETATM   20  C   UNL     1      44.109 -19.319   4.499  1.00  0.00     0.063 A 
HETATM   21  C   UNL     1      43.573 -17.995   6.874  1.00  0.00    -0.061 A 
HETATM   22  C   UNL     1      43.284 -17.296   8.171  1.00  0.00     0.048 C 
HETATM   23  C   UNL     1      44.114 -19.287   6.886  1.00  0.00     0.009 A 
HETATM   24  C   UNL     1      44.393 -19.975   5.699  1.00  0.00     0.032 A 
HETATM   25  N   UNL     1      44.253 -19.708   3.197  1.00  0.00    -0.277 N 
HETATM   26  H   UNL     1      44.617 -20.592   2.859  1.00  0.00     0.189 HD
HETATM   27  N   UNL     1      43.847 -18.796   2.293  1.00  0.00    -0.168 NA
ENDBRANCH   1  17
TORSDOF 2
ENDMDL
MODEL 10
REMARK VINA RESULT:      -7.9      2.874      3.980
REMARK  2 active torsions:
REMARK  status: ('A' for Active; 'I' for Inactive)
REMARK    1  A    between atoms: C_9  and  C_10 
REMARK       I    between atoms: C_10  and  N_11 
REMARK    2  A    between atoms: N_11  and  C_12 
ROOT
HETATM    1  C   UNL     1      43.436 -18.010   2.266  1.00  0.00     0.277 C 
HETATM    2  N   UNL     1      42.210 -17.734   2.845  1.00  0.00    -0.322 N 
HETATM    3  O   UNL     1      44.096 -17.245   1.572  1.00  0.00    -0.266 OA
HETATM    4  H   UNL     1      41.853 -18.505   3.406  1.00  0.00     0.169 HD
ENDROOT
BRANCH   2   5
HETATM    5  C   UNL     1      41.456 -16.551   2.779  1.00  0.00     0.037 A 
HETATM    6  C   UNL     1      41.819 -15.362   3.416  1.00  0.00     0.062 A 
HETATM    7  C   UNL     1      41.003 -14.231   3.307  1.00  0.00     0.070 A 
HETATM    8  C   UNL     1      39.822 -14.278   2.565  1.00  0.00     0.096 A 
HETATM    9  N   UNL     1      41.396 -13.044   3.925  1.00  0.00    -0.323 N 
HETATM   10  O   UNL     1      38.993 -13.207   2.386  1.00  0.00    -0.340 OA
HETATM   11  C   UNL     1      39.465 -15.455   1.916  1.00  0.00     0.041 A 
HETATM   12  C   UNL     1      39.234 -12.115   3.260  1.00  0.00     0.278 C 
HETATM   13  C   UNL     1      40.608 -11.927   3.900  1.00  0.00     0.246 C 
HETATM   14  O   UNL     1      40.970 -10.874   4.418  1.00  0.00    -0.271 OA
HETATM   15  C   UNL     1      40.278 -16.587   2.023  1.00  0.00     0.032 A 
HETATM   16  H   UNL     1      42.286 -12.972   4.400  1.00  0.00     0.169 HD
ENDBRANCH   2   5
BRANCH   1  17
HETATM   17  C   UNL     1      43.898 -19.371   2.597  1.00  0.00     0.157 A 
HETATM   18  C   UNL     1      44.049 -19.945   3.894  1.00  0.00     0.029 A 
HETATM   19  C   UNL     1      43.848 -19.519   5.223  1.00  0.00     0.023 A 
HETATM   20  C   UNL     1      44.503 -21.238   3.668  1.00  0.00     0.063 A 
HETATM   21  C   UNL     1      44.101 -20.409   6.281  1.00  0.00    -0.061 A 
HETATM   22  C   UNL     1      43.883 -19.980   7.703  1.00  0.00     0.048 C 
HETATM   23  C   UNL     1      44.565 -21.702   6.008  1.00  0.00     0.009 A 
HETATM   24  C   UNL     1      44.776 -22.143   4.696  1.00  0.00     0.032 A 
HETATM   25  N   UNL     1      44.595 -21.355   2.308  1.00  0.00    -0.277 N 
HETATM   26  H   UNL     1      44.898 -22.167   1.784  1.00  0.00     0.189 HD
HETATM   27  N   UNL     1      44.223 -20.256   1.626  1.00  0.00    -0.168 NA
ENDBRANCH   1  17
TORSDOF 2
ENDMDL
