MODEL 1
REMARK VINA RESULT:     -10.3      0.000      0.000
REMARK  6 active torsions:
REMARK  status: ('A' for Active; 'I' for Inactive)
REMARK       I    between atoms: C_2  and  N_3 
REMARK    1  A    between atoms: C_2  and  C_12 
REMARK    2  A    between atoms: N_3  and  C_4 
REMARK    3  A    between atoms: C_4  and  C_5 
REMARK    4  A    between atoms: C_5  and  C_6 
REMARK    5  A    between atoms: C_18  and  C_22 
REMARK    6  A    between atoms: C_28  and  C_34 
ROOT
HETATM    1  C   UNL     1      41.113 -11.416   6.543  1.00  0.00     0.032 A 
HETATM    2  C   UNL     1      39.870 -12.036   6.711  1.00  0.00     0.020 A 
HETATM    3  C   UNL     1      39.322 -12.790   5.671  1.00  0.00     0.038 A 
HETATM    4  C   UNL     1      40.013 -12.930   4.466  1.00  0.00     0.075 A 
HETATM    5  O   UNL     1      39.443 -13.761   3.536  1.00  0.00    -0.350 OA
HETATM    6  C   UNL     1      40.002 -13.677   2.217  1.00  0.00     0.188 C 
HETATM    7  C   UNL     1      41.527 -13.719   2.232  1.00  0.00     0.082 C 
HETATM    8  C   UNL     1      42.034 -12.507   3.015  1.00  0.00     0.056 C 
HETATM    9  C   UNL     1      41.268 -12.338   4.293  1.00  0.00    -0.023 A 
HETATM   10  C   UNL     1      41.806 -11.569   5.333  1.00  0.00     0.027 A 
ENDROOT
BRANCH   7  11
HETATM   11  C   UNL     1      42.082 -14.987   2.812  1.00  0.00     0.091 A 
HETATM   12  N   UNL     1      42.071 -16.070   2.041  1.00  0.00    -0.345 N 
HETATM   13  H   UNL     1      41.686 -16.022   1.102  1.00  0.00     0.167 HD
HETATM   14  C   UNL     1      42.608 -17.241   2.499  1.00  0.00     0.049 A 
HETATM   15  C   UNL     1      42.615 -18.366   1.673  1.00  0.00     0.031 A 
HETATM   16  C   UNL     1      43.169 -17.360   3.772  1.00  0.00     0.059 A 
HETATM   17  C   UNL     1      43.178 -19.571   2.117  1.00  0.00     0.014 A 
HETATM   18  C   UNL     1      43.750 -19.676   3.395  1.00  0.00    -0.022 A 
HETATM   19  C   UNL     1      43.736 -18.555   4.230  1.00  0.00     0.031 A 
HETATM   20  C   UNL     1      43.147 -16.165   4.612  1.00  0.00     0.259 A 
HETATM   21  O   UNL     1      43.573 -16.084   5.745  1.00  0.00    -0.267 OA
HETATM   22  N   UNL     1      42.577 -15.012   4.032  1.00  0.00    -0.312 N 
HETATM   23  H   UNL     1      42.590 -14.165   4.598  1.00  0.00     0.170 HD
BRANCH  18  24
HETATM   24  C   UNL     1      44.338 -20.930   3.830  1.00  0.00     0.010 A 
HETATM   25  C   UNL     1      44.921 -21.300   5.065  1.00  0.00     0.152 A 
HETATM   26  N   UNL     1      45.336 -22.567   5.080  1.00  0.00    -0.187 NA
HETATM   27  N   UNL     1      45.019 -23.022   3.859  1.00  0.00    -0.289 N 
HETATM   28  H   UNL     1      45.237 -23.988   3.633  1.00  0.00     0.188 HD
HETATM   29  C   UNL     1      44.419 -22.079   3.071  1.00  0.00     0.123 A 
ENDBRANCH  18  24
ENDBRANCH   7  11
BRANCH   1  30
HETATM   30  C   UNL     1      41.769 -10.644   7.632  1.00  0.00     0.251 C 
HETATM   31  O   UNL     1      42.090  -9.478   7.430  1.00  0.00    -0.268 OA
HETATM   32  N   UNL     1      41.950 -11.298   8.830  1.00  0.00    -0.357 N 
HETATM   33  H   UNL     1      41.453 -12.162   8.999  1.00  0.00     0.162 HD
BRANCH  32  34
HETATM   34  C   UNL     1      42.523 -10.600   9.971  1.00  0.00     0.129 C 
BRANCH  34  35
HETATM   35  C   UNL     1      43.648 -11.396  10.623  1.00  0.00     0.079 C 
BRANCH  35  36
HETATM   36  C   UNL     1      44.696 -11.787   9.617  1.00  0.00     0.035 A 
HETATM   37  C   UNL     1      45.860 -11.035   9.474  1.00  0.00     0.027 A 
HETATM   38  C   UNL     1      46.796 -11.424   8.520  1.00  0.00     0.003 A 
HETATM   39  C   UNL     1      46.546 -12.543   7.737  1.00  0.00     0.019 A 
HETATM   40  C   UNL     1      45.361 -13.231   7.939  1.00  0.00     0.117 A 
HETATM   41  N   UNL     1      44.434 -12.876   8.856  1.00  0.00    -0.266 NA
ENDBRANCH  35  36
ENDBRANCH  34  35
ENDBRANCH  32  34
ENDBRANCH   1  30
TORSDOF 6
ENDMDL
MODEL 2
REMARK VINA RESULT:     -10.1      1.414      2.454
REMARK  6 active torsions:
REMARK  status: ('A' for Active; 'I' for Inactive)
REMARK       I    between atoms: C_2  and  N_3 
REMARK    1  A    between atoms: C_2  and  C_12 
REMARK    2  A    between atoms: N_3  and  C_4 
REMARK    3  A    between atoms: C_4  and  C_5 
REMARK    4  A    between atoms: C_5  and  C_6 
REMARK    5  A    between atoms: C_18  and  C_22 
REMARK    6  A    between atoms: C_28  and  C_34 
ROOT
HETATM    1  C   UNL     1      41.090 -11.449   6.511  1.00  0.00     0.032 A 
HETATM    2  C   UNL     1      39.852 -12.082   6.666  1.00  0.00     0.020 A 
HETATM    3  C   UNL     1      39.322 -12.839   5.619  1.00  0.00     0.038 A 
HETATM    4  C   UNL     1      40.026 -12.972   4.422  1.00  0.00     0.075 A 
HETATM    5  O   UNL     1      39.475 -13.806   3.484  1.00  0.00    -0.350 OA
HETATM    6  C   UNL     1      40.046 -13.716   2.172  1.00  0.00     0.188 C 
HETATM    7  C   UNL     1      41.572 -13.743   2.203  1.00  0.00     0.082 C 
HETATM    8  C   UNL     1      42.059 -12.528   2.992  1.00  0.00     0.056 C 
HETATM    9  C   UNL     1      41.277 -12.368   4.262  1.00  0.00    -0.023 A 
HETATM   10  C   UNL     1      41.797 -11.595   5.309  1.00  0.00     0.027 A 
ENDROOT
BRANCH   7  11
HETATM   11  C   UNL     1      42.132 -15.007   2.787  1.00  0.00     0.091 A 
HETATM   12  N   UNL     1      42.078 -16.105   2.040  1.00  0.00    -0.345 N 
HETATM   13  H   UNL     1      41.657 -16.071   1.116  1.00  0.00     0.167 HD
HETATM   14  C   UNL     1      42.617 -17.274   2.501  1.00  0.00     0.049 A 
HETATM   15  C   UNL     1      42.577 -18.415   1.699  1.00  0.00     0.031 A 
HETATM   16  C   UNL     1      43.226 -17.374   3.753  1.00  0.00     0.059 A 
HETATM   17  C   UNL     1      43.142 -19.618   2.145  1.00  0.00     0.014 A 
HETATM   18  C   UNL     1      43.762 -19.706   3.402  1.00  0.00    -0.022 A 
HETATM   19  C   UNL     1      43.794 -18.567   4.214  1.00  0.00     0.031 A 
HETATM   20  C   UNL     1      43.252 -16.163   4.568  1.00  0.00     0.259 A 
HETATM   21  O   UNL     1      43.723 -16.064   5.683  1.00  0.00    -0.267 OA
HETATM   22  N   UNL     1      42.675 -15.014   3.987  1.00  0.00    -0.312 N 
HETATM   23  H   UNL     1      42.720 -14.156   4.534  1.00  0.00     0.170 HD
BRANCH  18  24
HETATM   24  C   UNL     1      44.350 -20.958   3.840  1.00  0.00     0.010 A 
HETATM   25  C   UNL     1      44.920 -21.329   5.081  1.00  0.00     0.152 A 
HETATM   26  N   UNL     1      45.341 -22.595   5.097  1.00  0.00    -0.187 NA
HETATM   27  N   UNL     1      45.042 -23.047   3.870  1.00  0.00    -0.289 N 
HETATM   28  H   UNL     1      45.267 -24.011   3.644  1.00  0.00     0.188 HD
HETATM   29  C   UNL     1      44.446 -22.104   3.078  1.00  0.00     0.123 A 
ENDBRANCH  18  24
ENDBRANCH   7  11
BRANCH   1  30
HETATM   30  C   UNL     1      41.728 -10.672   7.608  1.00  0.00     0.251 C 
HETATM   31  O   UNL     1      41.439  -9.490   7.751  1.00  0.00    -0.268 OA
HETATM   32  N   UNL     1      42.599 -11.358   8.424  1.00  0.00    -0.357 N 
HETATM   33  H   UNL     1      42.606 -12.369   8.399  1.00  0.00     0.162 HD
BRANCH  32  34
HETATM   34  C   UNL     1      43.217 -10.696   9.563  1.00  0.00     0.129 C 
BRANCH  34  35
HETATM   35  C   UNL     1      43.331 -11.621  10.770  1.00  0.00     0.079 C 
BRANCH  35  36
HETATM   36  C   UNL     1      42.918 -10.921  12.036  1.00  0.00     0.035 A 
HETATM   37  C   UNL     1      43.738  -9.955  12.615  1.00  0.00     0.027 A 
HETATM   38  C   UNL     1      43.323  -9.344  13.795  1.00  0.00     0.003 A 
HETATM   39  C   UNL     1      42.112  -9.714  14.365  1.00  0.00     0.019 A 
HETATM   40  C   UNL     1      41.361 -10.688  13.729  1.00  0.00     0.117 A 
HETATM   41  N   UNL     1      41.739 -11.298  12.583  1.00  0.00    -0.266 NA
ENDBRANCH  35  36
ENDBRANCH  34  35
ENDBRANCH  32  34
ENDBRANCH   1  30
TORSDOF 6
ENDMDL
MODEL 3
REMARK VINA RESULT:     -10.0      2.760      9.798
REMARK  6 active torsions:
REMARK  status: ('A' for Active; 'I' for Inactive)
REMARK       I    between atoms: C_2  and  N_3 
REMARK    1  A    between atoms: C_2  and  C_12 
REMARK    2  A    between atoms: N_3  and  C_4 
REMARK    3  A    between atoms: C_4  and  C_5 
REMARK    4  A    between atoms: C_5  and  C_6 
REMARK    5  A    between atoms: C_18  and  C_22 
REMARK    6  A    between atoms: C_28  and  C_34 
ROOT
HETATM    1  C   UNL     1      42.918 -15.306   5.372  1.00  0.00     0.032 A 
HETATM    2  C   UNL     1      43.601 -14.435   4.516  1.00  0.00     0.020 A 
HETATM    3  C   UNL     1      42.965 -13.286   4.040  1.00  0.00     0.038 A 
HETATM    4  C   UNL     1      41.653 -13.002   4.419  1.00  0.00     0.075 A 
HETATM    5  O   UNL     1      41.140 -11.809   3.977  1.00  0.00    -0.350 OA
HETATM    6  C   UNL     1      39.722 -11.659   4.130  1.00  0.00     0.188 C 
HETATM    7  C   UNL     1      39.244 -12.060   5.522  1.00  0.00     0.082 C 
HETATM    8  C   UNL     1      39.566 -13.539   5.734  1.00  0.00     0.056 C 
HETATM    9  C   UNL     1      40.966 -13.849   5.294  1.00  0.00    -0.023 A 
HETATM   10  C   UNL     1      41.602 -15.009   5.757  1.00  0.00     0.027 A 
ENDROOT
BRANCH   7  11
HETATM   11  C   UNL     1      39.845 -11.230   6.618  1.00  0.00     0.091 A 
HETATM   12  N   UNL     1      39.573 -11.579   7.872  1.00  0.00    -0.345 N 
HETATM   13  H   UNL     1      38.968 -12.374   8.058  1.00  0.00     0.167 HD
HETATM   14  C   UNL     1      40.133 -10.889   8.911  1.00  0.00     0.049 A 
HETATM   15  C   UNL     1      39.861 -11.279  10.223  1.00  0.00     0.031 A 
HETATM   16  C   UNL     1      40.986  -9.802   8.715  1.00  0.00     0.059 A 
HETATM   17  C   UNL     1      40.440 -10.597  11.303  1.00  0.00     0.014 A 
HETATM   18  C   UNL     1      41.307  -9.512  11.093  1.00  0.00    -0.022 A 
HETATM   19  C   UNL     1      41.573  -9.110   9.781  1.00  0.00     0.031 A 
HETATM   20  C   UNL     1      41.251  -9.419   7.331  1.00  0.00     0.259 A 
HETATM   21  O   UNL     1      41.952  -8.496   6.969  1.00  0.00    -0.267 OA
HETATM   22  N   UNL     1      40.628 -10.208   6.341  1.00  0.00    -0.312 N 
HETATM   23  H   UNL     1      40.836  -9.970   5.372  1.00  0.00     0.170 HD
BRANCH  18  24
HETATM   24  C   UNL     1      41.905  -8.826  12.224  1.00  0.00     0.010 A 
HETATM   25  C   UNL     1      41.670  -7.536  12.755  1.00  0.00     0.152 A 
HETATM   26  N   UNL     1      42.417  -7.276  13.829  1.00  0.00    -0.187 NA
HETATM   27  N   UNL     1      43.134  -8.397  13.998  1.00  0.00    -0.289 N 
HETATM   28  H   UNL     1      43.785  -8.440  14.777  1.00  0.00     0.188 HD
HETATM   29  C   UNL     1      42.864  -9.357  13.062  1.00  0.00     0.123 A 
ENDBRANCH  18  24
ENDBRANCH   7  11
BRANCH   1  30
HETATM   30  C   UNL     1      43.559 -16.516   5.951  1.00  0.00     0.251 C 
HETATM   31  O   UNL     1      44.402 -16.384   6.832  1.00  0.00    -0.268 OA
HETATM   32  N   UNL     1      43.132 -17.733   5.468  1.00  0.00    -0.357 N 
HETATM   33  H   UNL     1      42.279 -17.776   4.927  1.00  0.00     0.162 HD
BRANCH  32  34
HETATM   34  C   UNL     1      43.656 -18.971   6.025  1.00  0.00     0.129 C 
BRANCH  34  35
HETATM   35  C   UNL     1      44.887 -19.462   5.269  1.00  0.00     0.079 C 
BRANCH  35  36
HETATM   36  C   UNL     1      44.501 -20.245   4.045  1.00  0.00     0.035 A 
HETATM   37  C   UNL     1      44.795 -21.603   3.946  1.00  0.00     0.027 A 
HETATM   38  C   UNL     1      44.433 -22.285   2.788  1.00  0.00     0.003 A 
HETATM   39  C   UNL     1      43.794 -21.598   1.764  1.00  0.00     0.019 A 
HETATM   40  C   UNL     1      43.544 -20.248   1.940  1.00  0.00     0.117 A 
HETATM   41  N   UNL     1      43.885 -19.559   3.052  1.00  0.00    -0.266 NA
ENDBRANCH  35  36
ENDBRANCH  34  35
ENDBRANCH  32  34
ENDBRANCH   1  30
TORSDOF 6
ENDMDL
MODEL 4
REMARK VINA RESULT:     -10.0      1.713      2.523
REMARK  6 active torsions:
REMARK  status: ('A' for Active; 'I' for Inactive)
REMARK       I    between atoms: C_2  and  N_3 
REMARK    1  A    between atoms: C_2  and  C_12 
REMARK    2  A    between atoms: N_3  and  C_4 
REMARK    3  A    between atoms: C_4  and  C_5 
REMARK    4  A    between atoms: C_5  and  C_6 
REMARK    5  A    between atoms: C_18  and  C_22 
REMARK    6  A    between atoms: C_28  and  C_34 
ROOT
HETATM    1  C   UNL     1      41.119 -10.443   8.399  1.00  0.00     0.032 A 
HETATM    2  C   UNL     1      40.021 -11.270   8.659  1.00  0.00     0.020 A 
HETATM    3  C   UNL     1      39.248 -11.753   7.601  1.00  0.00     0.038 A 
HETATM    4  C   UNL     1      39.570 -11.417   6.286  1.00  0.00     0.075 A 
HETATM    5  O   UNL     1      38.813 -12.009   5.308  1.00  0.00    -0.350 OA
HETATM    6  C   UNL     1      38.962 -11.449   3.996  1.00  0.00     0.188 C 
HETATM    7  C   UNL     1      40.426 -11.255   3.613  1.00  0.00     0.082 C 
HETATM    8  C   UNL     1      41.056 -10.271   4.598  1.00  0.00     0.056 C 
HETATM    9  C   UNL     1      40.680 -10.613   6.009  1.00  0.00    -0.023 A 
HETATM   10  C   UNL     1      41.443 -10.117   7.074  1.00  0.00     0.027 A 
ENDROOT
BRANCH   7  11
HETATM   11  C   UNL     1      41.206 -12.537   3.581  1.00  0.00     0.091 A 
HETATM   12  N   UNL     1      40.527 -13.665   3.400  1.00  0.00    -0.345 N 
HETATM   13  H   UNL     1      39.516 -13.639   3.302  1.00  0.00     0.167 HD
HETATM   14  C   UNL     1      41.190 -14.857   3.314  1.00  0.00     0.049 A 
HETATM   15  C   UNL     1      40.470 -16.033   3.098  1.00  0.00     0.031 A 
HETATM   16  C   UNL     1      42.579 -14.950   3.421  1.00  0.00     0.059 A 
HETATM   17  C   UNL     1      41.133 -17.263   2.987  1.00  0.00     0.014 A 
HETATM   18  C   UNL     1      42.532 -17.344   3.086  1.00  0.00    -0.022 A 
HETATM   19  C   UNL     1      43.257 -16.170   3.312  1.00  0.00     0.031 A 
HETATM   20  C   UNL     1      43.304 -13.703   3.645  1.00  0.00     0.259 A 
HETATM   21  O   UNL     1      44.505 -13.591   3.777  1.00  0.00    -0.267 OA
HETATM   22  N   UNL     1      42.517 -12.533   3.707  1.00  0.00    -0.312 N 
HETATM   23  H   UNL     1      43.018 -11.654   3.828  1.00  0.00     0.170 HD
BRANCH  18  24
HETATM   24  C   UNL     1      43.200 -18.626   2.956  1.00  0.00     0.010 A 
HETATM   25  C   UNL     1      43.140 -19.603   1.935  1.00  0.00     0.152 A 
HETATM   26  N   UNL     1      43.927 -20.652   2.177  1.00  0.00    -0.187 NA
HETATM   27  N   UNL     1      44.501 -20.356   3.353  1.00  0.00    -0.289 N 
HETATM   28  H   UNL     1      45.162 -21.020   3.747  1.00  0.00     0.188 HD
HETATM   29  C   UNL     1      44.098 -19.152   3.862  1.00  0.00     0.123 A 
ENDBRANCH  18  24
ENDBRANCH   7  11
BRANCH   1  30
HETATM   30  C   UNL     1      42.009  -9.940   9.480  1.00  0.00     0.251 C 
HETATM   31  O   UNL     1      41.714  -8.905  10.067  1.00  0.00    -0.268 OA
HETATM   32  N   UNL     1      43.115 -10.706   9.775  1.00  0.00    -0.357 N 
HETATM   33  H   UNL     1      43.166 -11.653   9.425  1.00  0.00     0.162 HD
BRANCH  32  34
HETATM   34  C   UNL     1      44.004 -10.326  10.863  1.00  0.00     0.129 C 
BRANCH  34  35
HETATM   35  C   UNL     1      45.226 -11.235  10.946  1.00  0.00     0.079 C 
BRANCH  35  36
HETATM   36  C   UNL     1      45.489 -11.920   9.633  1.00  0.00     0.035 A 
HETATM   37  C   UNL     1      46.559 -11.531   8.830  1.00  0.00     0.027 A 
HETATM   38  C   UNL     1      46.756 -12.182   7.615  1.00  0.00     0.003 A 
HETATM   39  C   UNL     1      45.884 -13.194   7.235  1.00  0.00     0.019 A 
HETATM   40  C   UNL     1      44.843 -13.514   8.089  1.00  0.00     0.117 A 
HETATM   41  N   UNL     1      44.626 -12.899   9.273  1.00  0.00    -0.266 NA
ENDBRANCH  35  36
ENDBRANCH  34  35
ENDBRANCH  32  34
ENDBRANCH   1  30
TORSDOF 6
ENDMDL
MODEL 5
REMARK VINA RESULT:      -9.9      3.349      8.093
REMARK  6 active torsions:
REMARK  status: ('A' for Active; 'I' for Inactive)
REMARK       I    between atoms: C_2  and  N_3 
REMARK    1  A    between atoms: C_2  and  C_12 
REMARK    2  A    between atoms: N_3  and  C_4 
REMARK    3  A    between atoms: C_4  and  C_5 
REMARK    4  A    between atoms: C_5  and  C_6 
REMARK    5  A    between atoms: C_18  and  C_22 
REMARK    6  A    between atoms: C_28  and  C_34 
ROOT
HETATM    1  C   UNL     1      42.389 -15.974   6.106  1.00  0.00     0.032 A 
HETATM    2  C   UNL     1      41.032 -16.243   6.312  1.00  0.00     0.020 A 
HETATM    3  C   UNL     1      40.083 -15.244   6.082  1.00  0.00     0.038 A 
HETATM    4  C   UNL     1      40.484 -13.982   5.643  1.00  0.00     0.075 A 
HETATM    5  O   UNL     1      39.480 -13.093   5.356  1.00  0.00    -0.350 OA
HETATM    6  C   UNL     1      39.897 -11.733   5.182  1.00  0.00     0.188 C 
HETATM    7  C   UNL     1      41.109 -11.613   4.262  1.00  0.00     0.082 C 
HETATM    8  C   UNL     1      42.276 -12.365   4.904  1.00  0.00     0.056 C 
HETATM    9  C   UNL     1      41.835 -13.708   5.406  1.00  0.00    -0.023 A 
HETATM   10  C   UNL     1      42.785 -14.707   5.654  1.00  0.00     0.027 A 
ENDROOT
BRANCH   7  11
HETATM   11  C   UNL     1      40.855 -12.125   2.875  1.00  0.00     0.091 A 
HETATM   12  N   UNL     1      39.636 -12.580   2.602  1.00  0.00    -0.345 N 
HETATM   13  H   UNL     1      38.922 -12.584   3.324  1.00  0.00     0.167 HD
HETATM   14  C   UNL     1      39.334 -13.013   1.341  1.00  0.00     0.049 A 
HETATM   15  C   UNL     1      38.044 -13.465   1.059  1.00  0.00     0.031 A 
HETATM   16  C   UNL     1      40.269 -13.011   0.305  1.00  0.00     0.059 A 
HETATM   17  C   UNL     1      37.708 -13.895  -0.234  1.00  0.00     0.014 A 
HETATM   18  C   UNL     1      38.653 -13.878  -1.272  1.00  0.00    -0.022 A 
HETATM   19  C   UNL     1      39.950 -13.436  -0.990  1.00  0.00     0.031 A 
HETATM   20  C   UNL     1      41.609 -12.531   0.632  1.00  0.00     0.259 A 
HETATM   21  O   UNL     1      42.550 -12.472  -0.132  1.00  0.00    -0.267 OA
HETATM   22  N   UNL     1      41.804 -12.101   1.961  1.00  0.00    -0.312 N 
HETATM   23  H   UNL     1      42.725 -11.732   2.189  1.00  0.00     0.170 HD
BRANCH  18  24
HETATM   24  C   UNL     1      38.282 -14.317  -2.604  1.00  0.00     0.010 A 
HETATM   25  C   UNL     1      38.677 -15.452  -3.350  1.00  0.00     0.152 A 
HETATM   26  N   UNL     1      38.092 -15.513  -4.547  1.00  0.00    -0.187 NA
HETATM   27  N   UNL     1      37.314 -14.421  -4.578  1.00  0.00    -0.289 N 
HETATM   28  H   UNL     1      36.752 -14.253  -5.408  1.00  0.00     0.188 HD
HETATM   29  C   UNL     1      37.392 -13.670  -3.437  1.00  0.00     0.123 A 
ENDBRANCH  18  24
ENDBRANCH   7  11
BRANCH   1  30
HETATM   30  C   UNL     1      43.440 -17.012   6.284  1.00  0.00     0.251 C 
HETATM   31  O   UNL     1      44.557 -16.676   6.659  1.00  0.00    -0.268 OA
HETATM   32  N   UNL     1      43.070 -18.315   6.036  1.00  0.00    -0.357 N 
HETATM   33  H   UNL     1      42.087 -18.543   5.966  1.00  0.00     0.162 HD
BRANCH  32  34
HETATM   34  C   UNL     1      44.013 -19.402   6.250  1.00  0.00     0.129 C 
BRANCH  34  35
HETATM   35  C   UNL     1      45.089 -19.445   5.170  1.00  0.00     0.079 C 
BRANCH  35  36
HETATM   36  C   UNL     1      44.647 -20.265   3.990  1.00  0.00     0.035 A 
HETATM   37  C   UNL     1      44.036 -19.661   2.893  1.00  0.00     0.027 A 
HETATM   38  C   UNL     1      43.629 -20.461   1.828  1.00  0.00     0.003 A 
HETATM   39  C   UNL     1      43.837 -21.832   1.888  1.00  0.00     0.019 A 
HETATM   40  C   UNL     1      44.445 -22.352   3.017  1.00  0.00     0.117 A 
HETATM   41  N   UNL     1      44.850 -21.602   4.066  1.00  0.00    -0.266 NA
ENDBRANCH  35  36
ENDBRANCH  34  35
ENDBRANCH  32  34
ENDBRANCH   1  30
TORSDOF 6
ENDMDL
MODEL 6
REMARK VINA RESULT:      -9.6      2.431      3.734
REMARK  6 active torsions:
REMARK  status: ('A' for Active; 'I' for Inactive)
REMARK       I    between atoms: C_2  and  N_3 
REMARK    1  A    between atoms: C_2  and  C_12 
REMARK    2  A    between atoms: N_3  and  C_4 
REMARK    3  A    between atoms: C_4  and  C_5 
REMARK    4  A    between atoms: C_5  and  C_6 
REMARK    5  A    between atoms: C_18  and  C_22 
REMARK    6  A    between atoms: C_28  and  C_34 
ROOT
HETATM    1  C   UNL     1      41.062 -10.457   8.276  1.00  0.00     0.032 A 
HETATM    2  C   UNL     1      39.983 -11.303   8.553  1.00  0.00     0.020 A 
HETATM    3  C   UNL     1      39.223 -11.828   7.505  1.00  0.00     0.038 A 
HETATM    4  C   UNL     1      39.540 -11.514   6.184  1.00  0.00     0.075 A 
HETATM    5  O   UNL     1      38.798 -12.145   5.218  1.00  0.00    -0.350 OA
HETATM    6  C   UNL     1      38.937 -11.612   3.894  1.00  0.00     0.188 C 
HETATM    7  C   UNL     1      40.397 -11.393   3.508  1.00  0.00     0.082 C 
HETATM    8  C   UNL     1      41.002 -10.372   4.471  1.00  0.00     0.056 C 
HETATM    9  C   UNL     1      40.631 -10.692   5.890  1.00  0.00    -0.023 A 
HETATM   10  C   UNL     1      41.381 -10.154   6.945  1.00  0.00     0.027 A 
ENDROOT
BRANCH   7  11
HETATM   11  C   UNL     1      41.206 -12.657   3.507  1.00  0.00     0.091 A 
HETATM   12  N   UNL     1      40.554 -13.804   3.345  1.00  0.00    -0.345 N 
HETATM   13  H   UNL     1      39.543 -13.803   3.241  1.00  0.00     0.167 HD
HETATM   14  C   UNL     1      41.245 -14.982   3.286  1.00  0.00     0.049 A 
HETATM   15  C   UNL     1      40.553 -16.178   3.091  1.00  0.00     0.031 A 
HETATM   16  C   UNL     1      42.635 -15.041   3.403  1.00  0.00     0.059 A 
HETATM   17  C   UNL     1      41.246 -17.395   3.008  1.00  0.00     0.014 A 
HETATM   18  C   UNL     1      42.645 -17.441   3.116  1.00  0.00    -0.022 A 
HETATM   19  C   UNL     1      43.341 -16.246   3.323  1.00  0.00     0.031 A 
HETATM   20  C   UNL     1      43.330 -13.772   3.606  1.00  0.00     0.259 A 
HETATM   21  O   UNL     1      44.527 -13.630   3.742  1.00  0.00    -0.267 OA
HETATM   22  N   UNL     1      42.516 -12.620   3.640  1.00  0.00    -0.312 N 
HETATM   23  H   UNL     1      42.996 -11.728   3.746  1.00  0.00     0.170 HD
BRANCH  18  24
HETATM   24  C   UNL     1      43.343 -18.710   3.016  1.00  0.00     0.010 A 
HETATM   25  C   UNL     1      43.397 -19.657   1.967  1.00  0.00     0.152 A 
HETATM   26  N   UNL     1      44.174 -20.702   2.255  1.00  0.00    -0.187 NA
HETATM   27  N   UNL     1      44.628 -20.433   3.488  1.00  0.00    -0.289 N 
HETATM   28  H   UNL     1      45.259 -21.098   3.925  1.00  0.00     0.188 HD
HETATM   29  C   UNL     1      44.159 -19.250   3.989  1.00  0.00     0.123 A 
ENDBRANCH  18  24
ENDBRANCH   7  11
BRANCH   1  30
HETATM   30  C   UNL     1      41.938  -9.909   9.347  1.00  0.00     0.251 C 
HETATM   31  O   UNL     1      41.618  -8.868   9.909  1.00  0.00    -0.268 OA
HETATM   32  N   UNL     1      43.060 -10.642   9.660  1.00  0.00    -0.357 N 
HETATM   33  H   UNL     1      43.134 -11.596   9.332  1.00  0.00     0.162 HD
BRANCH  32  34
HETATM   34  C   UNL     1      43.938 -10.218  10.741  1.00  0.00     0.129 C 
BRANCH  34  35
HETATM   35  C   UNL     1      43.654 -10.969  12.037  1.00  0.00     0.079 C 
BRANCH  35  36
HETATM   36  C   UNL     1      43.023 -10.069  13.063  1.00  0.00     0.035 A 
HETATM   37  C   UNL     1      43.034  -8.685  12.900  1.00  0.00     0.027 A 
HETATM   38  C   UNL     1      42.452  -7.890  13.883  1.00  0.00     0.003 A 
HETATM   39  C   UNL     1      41.881  -8.491  14.997  1.00  0.00     0.019 A 
HETATM   40  C   UNL     1      41.918  -9.872  15.085  1.00  0.00     0.117 A 
HETATM   41  N   UNL     1      42.477 -10.670  14.147  1.00  0.00    -0.266 NA
ENDBRANCH  35  36
ENDBRANCH  34  35
ENDBRANCH  32  34
ENDBRANCH   1  30
TORSDOF 6
ENDMDL
MODEL 7
REMARK VINA RESULT:      -9.6      3.525      7.806
REMARK  6 active torsions:
REMARK  status: ('A' for Active; 'I' for Inactive)
REMARK       I    between atoms: C_2  and  N_3 
REMARK    1  A    between atoms: C_2  and  C_12 
REMARK    2  A    between atoms: N_3  and  C_4 
REMARK    3  A    between atoms: C_4  and  C_5 
REMARK    4  A    between atoms: C_5  and  C_6 
REMARK    5  A    between atoms: C_18  and  C_22 
REMARK    6  A    between atoms: C_28  and  C_34 
ROOT
HETATM    1  C   UNL     1      42.532 -16.377   5.672  1.00  0.00     0.032 A 
HETATM    2  C   UNL     1      41.249 -16.564   6.198  1.00  0.00     0.020 A 
HETATM    3  C   UNL     1      40.345 -15.500   6.220  1.00  0.00     0.038 A 
HETATM    4  C   UNL     1      40.715 -14.254   5.713  1.00  0.00     0.075 A 
HETATM    5  O   UNL     1      39.735 -13.295   5.691  1.00  0.00    -0.350 OA
HETATM    6  C   UNL     1      40.191 -11.959   5.439  1.00  0.00     0.188 C 
HETATM    7  C   UNL     1      41.151 -11.890   4.255  1.00  0.00     0.082 C 
HETATM    8  C   UNL     1      42.383 -12.733   4.583  1.00  0.00     0.056 C 
HETATM    9  C   UNL     1      41.984 -14.060   5.159  1.00  0.00    -0.023 A 
HETATM   10  C   UNL     1      42.894 -15.125   5.155  1.00  0.00     0.027 A 
ENDROOT
BRANCH   7  11
HETATM   11  C   UNL     1      40.534 -12.342   2.963  1.00  0.00     0.091 A 
HETATM   12  N   UNL     1      41.343 -12.862   2.046  1.00  0.00    -0.345 N 
HETATM   13  H   UNL     1      42.341 -12.931   2.228  1.00  0.00     0.167 HD
HETATM   14  C   UNL     1      40.830 -13.336   0.871  1.00  0.00     0.049 A 
HETATM   15  C   UNL     1      41.685 -13.904  -0.075  1.00  0.00     0.031 A 
HETATM   16  C   UNL     1      39.467 -13.288   0.576  1.00  0.00     0.059 A 
HETATM   17  C   UNL     1      41.176 -14.413  -1.279  1.00  0.00     0.014 A 
HETATM   18  C   UNL     1      39.801 -14.370  -1.561  1.00  0.00    -0.022 A 
HETATM   19  C   UNL     1      38.942 -13.792  -0.620  1.00  0.00     0.031 A 
HETATM   20  C   UNL     1      38.599 -12.689   1.586  1.00  0.00     0.259 A 
HETATM   21  O   UNL     1      37.396 -12.548   1.499  1.00  0.00    -0.267 OA
HETATM   22  N   UNL     1      39.236 -12.243   2.763  1.00  0.00    -0.312 N 
HETATM   23  H   UNL     1      38.634 -11.857   3.488  1.00  0.00     0.170 HD
BRANCH  18  24
HETATM   24  C   UNL     1      39.294 -14.913  -2.807  1.00  0.00     0.010 A 
HETATM   25  C   UNL     1      39.745 -15.997  -3.597  1.00  0.00     0.152 A 
HETATM   26  N   UNL     1      38.989 -16.197  -4.677  1.00  0.00    -0.187 NA
HETATM   27  N   UNL     1      38.046 -15.248  -4.588  1.00  0.00    -0.289 N 
HETATM   28  H   UNL     1      37.335 -15.205  -5.313  1.00  0.00     0.188 HD
HETATM   29  C   UNL     1      38.184 -14.452  -3.485  1.00  0.00     0.123 A 
ENDBRANCH  18  24
ENDBRANCH   7  11
BRANCH   1  30
HETATM   30  C   UNL     1      43.520 -17.485   5.576  1.00  0.00     0.251 C 
HETATM   31  O   UNL     1      44.658 -17.312   5.997  1.00  0.00    -0.268 OA
HETATM   32  N   UNL     1      43.071 -18.668   5.032  1.00  0.00    -0.357 N 
HETATM   33  H   UNL     1      42.076 -18.816   4.930  1.00  0.00     0.162 HD
BRANCH  32  34
HETATM   34  C   UNL     1      43.949 -19.826   4.960  1.00  0.00     0.129 C 
BRANCH  34  35
HETATM   35  C   UNL     1      44.388 -20.122   3.530  1.00  0.00     0.079 C 
BRANCH  35  36
HETATM   36  C   UNL     1      43.796 -19.137   2.561  1.00  0.00     0.035 A 
HETATM   37  C   UNL     1      44.572 -18.113   2.022  1.00  0.00     0.027 A 
HETATM   38  C   UNL     1      43.979 -17.215   1.140  1.00  0.00     0.003 A 
HETATM   39  C   UNL     1      42.634 -17.358   0.824  1.00  0.00     0.019 A 
HETATM   40  C   UNL     1      41.933 -18.399   1.407  1.00  0.00     0.117 A 
HETATM   41  N   UNL     1      42.482 -19.286   2.268  1.00  0.00    -0.266 NA
ENDBRANCH  35  36
ENDBRANCH  34  35
ENDBRANCH  32  34
ENDBRANCH   1  30
TORSDOF 6
ENDMDL
MODEL 8
REMARK VINA RESULT:      -9.4      1.947      2.965
REMARK  6 active torsions:
REMARK  status: ('A' for Active; 'I' for Inactive)
REMARK       I    between atoms: C_2  and  N_3 
REMARK    1  A    between atoms: C_2  and  C_12 
REMARK    2  A    between atoms: N_3  and  C_4 
REMARK    3  A    between atoms: C_4  and  C_5 
REMARK    4  A    between atoms: C_5  and  C_6 
REMARK    5  A    between atoms: C_18  and  C_22 
REMARK    6  A    between atoms: C_28  and  C_34 
ROOT
HETATM    1  C   UNL     1      40.903 -10.641   8.905  1.00  0.00     0.032 A 
HETATM    2  C   UNL     1      39.585 -11.108   8.916  1.00  0.00     0.020 A 
HETATM    3  C   UNL     1      38.920 -11.344   7.711  1.00  0.00     0.038 A 
HETATM    4  C   UNL     1      39.569 -11.121   6.496  1.00  0.00     0.075 A 
HETATM    5  O   UNL     1      38.873 -11.465   5.366  1.00  0.00    -0.350 OA
HETATM    6  C   UNL     1      39.424 -10.977   4.135  1.00  0.00     0.188 C 
HETATM    7  C   UNL     1      40.926 -11.225   4.035  1.00  0.00     0.082 C 
HETATM    8  C   UNL     1      41.615 -10.467   5.170  1.00  0.00     0.056 C 
HETATM    9  C   UNL     1      40.896 -10.681   6.469  1.00  0.00    -0.023 A 
HETATM   10  C   UNL     1      41.553 -10.429   7.681  1.00  0.00     0.027 A 
ENDROOT
BRANCH   7  11
HETATM   11  C   UNL     1      41.292 -12.679   4.077  1.00  0.00     0.091 A 
HETATM   12  N   UNL     1      42.313 -13.033   4.853  1.00  0.00    -0.345 N 
HETATM   13  H   UNL     1      42.820 -12.327   5.379  1.00  0.00     0.167 HD
HETATM   14  C   UNL     1      42.660 -14.351   4.968  1.00  0.00     0.049 A 
HETATM   15  C   UNL     1      43.716 -14.714   5.804  1.00  0.00     0.031 A 
HETATM   16  C   UNL     1      41.986 -15.364   4.285  1.00  0.00     0.059 A 
HETATM   17  C   UNL     1      44.075 -16.062   5.952  1.00  0.00     0.014 A 
HETATM   18  C   UNL     1      43.383 -17.075   5.268  1.00  0.00    -0.022 A 
HETATM   19  C   UNL     1      42.331 -16.714   4.421  1.00  0.00     0.031 A 
HETATM   20  C   UNL     1      40.885 -14.952   3.419  1.00  0.00     0.259 A 
HETATM   21  O   UNL     1      40.198 -15.687   2.740  1.00  0.00    -0.267 OA
HETATM   22  N   UNL     1      40.610 -13.568   3.386  1.00  0.00    -0.312 N 
HETATM   23  H   UNL     1      39.821 -13.275   2.811  1.00  0.00     0.170 HD
BRANCH  18  24
HETATM   24  C   UNL     1      43.764 -18.464   5.444  1.00  0.00     0.010 A 
HETATM   25  C   UNL     1      44.482 -19.342   4.598  1.00  0.00     0.152 A 
HETATM   26  N   UNL     1      44.647 -20.553   5.131  1.00  0.00    -0.187 NA
HETATM   27  N   UNL     1      44.041 -20.462   6.324  1.00  0.00    -0.289 N 
HETATM   28  H   UNL     1      44.042 -21.279   6.929  1.00  0.00     0.188 HD
HETATM   29  C   UNL     1      43.496 -19.230   6.560  1.00  0.00     0.123 A 
ENDBRANCH  18  24
ENDBRANCH   7  11
BRANCH   1  30
HETATM   30  C   UNL     1      41.679 -10.421  10.155  1.00  0.00     0.251 C 
HETATM   31  O   UNL     1      42.072  -9.292  10.426  1.00  0.00    -0.268 OA
HETATM   32  N   UNL     1      41.883 -11.522  10.957  1.00  0.00    -0.357 N 
HETATM   33  H   UNL     1      41.335 -12.357  10.797  1.00  0.00     0.162 HD
BRANCH  32  34
HETATM   34  C   UNL     1      42.573 -11.387  12.231  1.00  0.00     0.129 C 
BRANCH  34  35
HETATM   35  C   UNL     1      43.875 -12.180  12.264  1.00  0.00     0.079 C 
BRANCH  35  36
HETATM   36  C   UNL     1      44.608 -12.083  10.954  1.00  0.00     0.035 A 
HETATM   37  C   UNL     1      45.448 -11.004  10.687  1.00  0.00     0.027 A 
HETATM   38  C   UNL     1      46.094 -10.947   9.455  1.00  0.00     0.003 A 
HETATM   39  C   UNL     1      45.884 -11.959   8.528  1.00  0.00     0.019 A 
HETATM   40  C   UNL     1      45.028 -12.992   8.870  1.00  0.00     0.117 A 
HETATM   41  N   UNL     1      44.386 -13.073  10.057  1.00  0.00    -0.266 NA
ENDBRANCH  35  36
ENDBRANCH  34  35
ENDBRANCH  32  34
ENDBRANCH   1  30
TORSDOF 6
ENDMDL
MODEL 9
REMARK VINA RESULT:      -9.4      3.147      7.198
REMARK  6 active torsions:
REMARK  status: ('A' for Active; 'I' for Inactive)
REMARK       I    between atoms: C_2  and  N_3 
REMARK    1  A    between atoms: C_2  and  C_12 
REMARK    2  A    between atoms: N_3  and  C_4 
REMARK    3  A    between atoms: C_4  and  C_5 
REMARK    4  A    between atoms: C_5  and  C_6 
REMARK    5  A    between atoms: C_18  and  C_22 
REMARK    6  A    between atoms: C_28  and  C_34 
ROOT
HETATM    1  C   UNL     1      39.666 -13.125   1.074  1.00  0.00     0.032 A 
HETATM    2  C   UNL     1      40.971 -12.713   0.780  1.00  0.00     0.020 A 
HETATM    3  C   UNL     1      41.897 -12.548   1.812  1.00  0.00     0.038 A 
HETATM    4  C   UNL     1      41.527 -12.798   3.134  1.00  0.00     0.075 A 
HETATM    5  O   UNL     1      42.523 -12.698   4.071  1.00  0.00    -0.350 OA
HETATM    6  C   UNL     1      42.082 -12.677   5.435  1.00  0.00     0.188 C 
HETATM    7  C   UNL     1      41.063 -13.774   5.730  1.00  0.00     0.082 C 
HETATM    8  C   UNL     1      39.833 -13.538   4.854  1.00  0.00     0.056 C 
HETATM    9  C   UNL     1      40.235 -13.236   3.440  1.00  0.00    -0.023 A 
HETATM   10  C   UNL     1      39.304 -13.384   2.403  1.00  0.00     0.027 A 
ENDROOT
BRANCH   7  11
HETATM   11  C   UNL     1      41.602 -15.159   5.515  1.00  0.00     0.091 A 
HETATM   12  N   UNL     1      41.691 -15.595   4.263  1.00  0.00    -0.345 N 
HETATM   13  H   UNL     1      41.389 -15.002   3.495  1.00  0.00     0.167 HD
HETATM   14  C   UNL     1      42.220 -16.829   4.004  1.00  0.00     0.049 A 
HETATM   15  C   UNL     1      42.333 -17.267   2.684  1.00  0.00     0.031 A 
HETATM   16  C   UNL     1      42.670 -17.677   5.017  1.00  0.00     0.059 A 
HETATM   17  C   UNL     1      42.891 -18.521   2.396  1.00  0.00     0.014 A 
HETATM   18  C   UNL     1      43.350 -19.363   3.422  1.00  0.00    -0.022 A 
HETATM   19  C   UNL     1      43.229 -18.932   4.747  1.00  0.00     0.031 A 
HETATM   20  C   UNL     1      42.539 -17.189   6.387  1.00  0.00     0.259 A 
HETATM   21  O   UNL     1      42.861 -17.791   7.391  1.00  0.00    -0.267 OA
HETATM   22  N   UNL     1      41.989 -15.899   6.533  1.00  0.00    -0.312 N 
HETATM   23  H   UNL     1      41.927 -15.536   7.483  1.00  0.00     0.170 HD
BRANCH  18  24
HETATM   24  C   UNL     1      43.935 -20.652   3.102  1.00  0.00     0.010 A 
HETATM   25  C   UNL     1      43.951 -21.387   1.893  1.00  0.00     0.152 A 
HETATM   26  N   UNL     1      44.617 -22.538   1.998  1.00  0.00    -0.187 NA
HETATM   27  N   UNL     1      45.036 -22.549   3.272  1.00  0.00    -0.289 N 
HETATM   28  H   UNL     1      45.584 -23.343   3.592  1.00  0.00     0.188 HD
HETATM   29  C   UNL     1      44.654 -21.441   3.976  1.00  0.00     0.123 A 
ENDBRANCH  18  24
ENDBRANCH   7  11
BRANCH   1  30
HETATM   30  C   UNL     1      38.652 -13.367   0.013  1.00  0.00     0.251 C 
HETATM   31  O   UNL     1      37.540 -12.862   0.120  1.00  0.00    -0.268 OA
HETATM   32  N   UNL     1      39.049 -14.137  -1.057  1.00  0.00    -0.357 N 
HETATM   33  H   UNL     1      40.035 -14.317  -1.196  1.00  0.00     0.162 HD
BRANCH  32  34
HETATM   34  C   UNL     1      38.144 -14.370  -2.173  1.00  0.00     0.129 C 
BRANCH  34  35
HETATM   35  C   UNL     1      38.853 -14.249  -3.518  1.00  0.00     0.079 C 
BRANCH  35  36
HETATM   36  C   UNL     1      40.083 -13.392  -3.413  1.00  0.00     0.035 A 
HETATM   37  C   UNL     1      40.045 -12.045  -3.768  1.00  0.00     0.027 A 
HETATM   38  C   UNL     1      41.212 -11.293  -3.670  1.00  0.00     0.003 A 
HETATM   39  C   UNL     1      42.380 -11.900  -3.226  1.00  0.00     0.019 A 
HETATM   40  C   UNL     1      42.333 -13.244  -2.899  1.00  0.00     0.117 A 
HETATM   41  N   UNL     1      41.215 -14.000  -2.986  1.00  0.00    -0.266 NA
ENDBRANCH  35  36
ENDBRANCH  34  35
ENDBRANCH  32  34
ENDBRANCH   1  30
TORSDOF 6
ENDMDL
MODEL 10
REMARK VINA RESULT:      -9.2      4.573      9.494
REMARK  6 active torsions:
REMARK  status: ('A' for Active; 'I' for Inactive)
REMARK       I    between atoms: C_2  and  N_3 
REMARK    1  A    between atoms: C_2  and  C_12 
REMARK    2  A    between atoms: N_3  and  C_4 
REMARK    3  A    between atoms: C_4  and  C_5 
REMARK    4  A    between atoms: C_5  and  C_6 
REMARK    5  A    between atoms: C_18  and  C_22 
REMARK    6  A    between atoms: C_28  and  C_34 
ROOT
HETATM    1  C   UNL     1      42.032 -17.021   2.025  1.00  0.00     0.032 A 
HETATM    2  C   UNL     1      40.647 -17.197   1.922  1.00  0.00     0.020 A 
HETATM    3  C   UNL     1      39.786 -16.150   2.258  1.00  0.00     0.038 A 
HETATM    4  C   UNL     1      40.302 -14.928   2.691  1.00  0.00     0.075 A 
HETATM    5  O   UNL     1      39.388 -13.930   2.912  1.00  0.00    -0.350 OA
HETATM    6  C   UNL     1      39.890 -12.786   3.617  1.00  0.00     0.188 C 
HETATM    7  C   UNL     1      41.218 -12.294   3.050  1.00  0.00     0.082 C 
HETATM    8  C   UNL     1      42.251 -13.410   3.207  1.00  0.00     0.056 C 
HETATM    9  C   UNL     1      41.683 -14.729   2.773  1.00  0.00    -0.023 A 
HETATM   10  C   UNL     1      42.543 -15.787   2.451  1.00  0.00     0.027 A 
ENDROOT
BRANCH   7  11
HETATM   11  C   UNL     1      41.129 -11.861   1.616  1.00  0.00     0.091 A 
HETATM   12  N   UNL     1      42.186 -11.249   1.093  1.00  0.00    -0.345 N 
HETATM   13  H   UNL     1      43.010 -11.079   1.663  1.00  0.00     0.167 HD
HETATM   14  C   UNL     1      42.180 -10.876  -0.223  1.00  0.00     0.049 A 
HETATM   15  C   UNL     1      43.305 -10.257  -0.769  1.00  0.00     0.031 A 
HETATM   16  C   UNL     1      41.085 -11.101  -1.059  1.00  0.00     0.059 A 
HETATM   17  C   UNL     1      43.325  -9.884  -2.121  1.00  0.00     0.014 A 
HETATM   18  C   UNL     1      42.223 -10.125  -2.956  1.00  0.00    -0.022 A 
HETATM   19  C   UNL     1      41.089 -10.736  -2.410  1.00  0.00     0.031 A 
HETATM   20  C   UNL     1      39.924 -11.752  -0.458  1.00  0.00     0.259 A 
HETATM   21  O   UNL     1      38.882 -12.014  -1.023  1.00  0.00    -0.267 OA
HETATM   22  N   UNL     1      40.047 -12.100   0.904  1.00  0.00    -0.312 N 
HETATM   23  H   UNL     1      39.255 -12.586   1.322  1.00  0.00     0.170 HD
BRANCH  18  24
HETATM   24  C   UNL     1      42.269  -9.742  -4.355  1.00  0.00     0.010 A 
HETATM   25  C   UNL     1      42.521  -8.491  -4.965  1.00  0.00     0.152 A 
HETATM   26  N   UNL     1      42.495  -8.551  -6.297  1.00  0.00    -0.187 NA
HETATM   27  N   UNL     1      42.230  -9.840  -6.553  1.00  0.00    -0.289 N 
HETATM   28  H   UNL     1      42.167 -10.136  -7.523  1.00  0.00     0.188 HD
HETATM   29  C   UNL     1      42.086 -10.597  -5.423  1.00  0.00     0.123 A 
ENDBRANCH  18  24
ENDBRANCH   7  11
BRANCH   1  30
HETATM   30  C   UNL     1      42.999 -18.081   1.633  1.00  0.00     0.251 C 
HETATM   31  O   UNL     1      43.861 -17.827   0.800  1.00  0.00    -0.268 OA
HETATM   32  N   UNL     1      42.874 -19.296   2.268  1.00  0.00    -0.357 N 
HETATM   33  H   UNL     1      42.306 -19.360   3.103  1.00  0.00     0.162 HD
BRANCH  32  34
HETATM   34  C   UNL     1      43.819 -20.369   1.997  1.00  0.00     0.129 C 
BRANCH  34  35
HETATM   35  C   UNL     1      45.019 -20.326   2.937  1.00  0.00     0.079 C 
BRANCH  35  36
HETATM   36  C   UNL     1      44.585 -20.263   4.375  1.00  0.00     0.035 A 
HETATM   37  C   UNL     1      44.496 -21.422   5.143  1.00  0.00     0.027 A 
HETATM   38  C   UNL     1      44.075 -21.318   6.466  1.00  0.00     0.003 A 
HETATM   39  C   UNL     1      43.753 -20.070   6.983  1.00  0.00     0.019 A 
HETATM   40  C   UNL     1      43.862 -18.970   6.150  1.00  0.00     0.117 A 
HETATM   41  N   UNL     1      44.267 -19.040   4.862  1.00  0.00    -0.266 NA
ENDBRANCH  35  36
ENDBRANCH  34  35
ENDBRANCH  32  34
ENDBRANCH   1  30
TORSDOF 6
ENDMDL
