MODEL 1
REMARK VINA RESULT:      -8.3      0.000      0.000
REMARK  2 active torsions:
REMARK  status: ('A' for Active; 'I' for Inactive)
REMARK    1  A    between atoms: C_5  and  O_6 
REMARK    2  A    between atoms: C_5  and  C_7 
ROOT
HETATM    1  C   UNL     1      43.868 -21.866   1.739  1.00  0.00     0.050 C 
HETATM    2  C   UNL     1      44.096 -20.796   2.760  1.00  0.00    -0.034 A 
HETATM    3  C   UNL     1      43.580 -19.515   2.625  1.00  0.00     0.052 A 
HETATM    4  C   UNL     1      43.761 -18.506   3.587  1.00  0.00     0.039 A 
HETATM    5  C   UNL     1      43.089 -17.245   3.110  1.00  0.00     0.200 A 
HETATM    6  C   UNL     1      42.479 -17.700   1.746  1.00  0.00     0.266 A 
HETATM    7  O   UNL     1      41.871 -17.012   0.938  1.00  0.00    -0.269 OA
HETATM    8  N   UNL     1      42.819 -19.036   1.564  1.00  0.00    -0.323 N 
HETATM    9  C   UNL     1      44.492 -18.777   4.730  1.00  0.00     0.046 A 
HETATM   10 CL   UNL     1      44.792 -17.595   5.940  1.00  0.00    -0.084 Cl
HETATM   11  C   UNL     1      45.007 -20.067   4.905  1.00  0.00     0.025 A 
HETATM   12  C   UNL     1      44.806 -21.065   3.936  1.00  0.00     0.011 A 
HETATM   13  H   UNL     1      42.561 -19.550   0.735  1.00  0.00     0.169 HD
ENDROOT
BRANCH   5  14
HETATM   14  O   UNL     1      44.064 -16.233   2.876  1.00  0.00    -0.371 OA
HETATM   15  H   UNL     1      44.860 -16.543   3.341  1.00  0.00     0.212 HD
ENDBRANCH   5  14
BRANCH   5  16
HETATM   16  C   UNL     1      42.021 -16.833   4.094  1.00  0.00     0.018 A 
HETATM   17  C   UNL     1      41.583 -15.506   4.460  1.00  0.00     0.002 A 
HETATM   18  C   UNL     1      40.575 -15.644   5.418  1.00  0.00     0.043 A 
HETATM   19  C   UNL     1      41.935 -14.196   4.068  1.00  0.00     0.014 A 
HETATM   20  C   UNL     1      39.909 -14.554   5.993  1.00  0.00     0.030 A 
HETATM   21  N   UNL     1      40.405 -16.988   5.641  1.00  0.00    -0.365 N 
HETATM   22  C   UNL     1      40.275 -13.274   5.576  1.00  0.00     0.002 A 
HETATM   23  C   UNL     1      41.273 -13.094   4.625  1.00  0.00     0.001 A 
HETATM   24  H   UNL     1      39.736 -17.381   6.289  1.00  0.00     0.165 HD
HETATM   25  C   UNL     1      41.260 -17.708   4.857  1.00  0.00     0.100 A 
ENDBRANCH   5  16
TORSDOF 2
ENDMDL
MODEL 2
REMARK VINA RESULT:      -8.3      2.495      3.524
REMARK  2 active torsions:
REMARK  status: ('A' for Active; 'I' for Inactive)
REMARK    1  A    between atoms: C_5  and  O_6 
REMARK    2  A    between atoms: C_5  and  C_7 
ROOT
HETATM    1  C   UNL     1      44.820 -20.471   3.671  1.00  0.00     0.050 C 
HETATM    2  C   UNL     1      43.785 -19.433   3.371  1.00  0.00    -0.034 A 
HETATM    3  C   UNL     1      43.211 -18.644   4.357  1.00  0.00     0.052 A 
HETATM    4  C   UNL     1      42.259 -17.646   4.090  1.00  0.00     0.039 A 
HETATM    5  C   UNL     1      41.840 -17.004   5.387  1.00  0.00     0.200 A 
HETATM    6  C   UNL     1      42.719 -17.772   6.426  1.00  0.00     0.266 A 
HETATM    7  O   UNL     1      42.707 -17.650   7.642  1.00  0.00    -0.269 OA
HETATM    8  N   UNL     1      43.481 -18.697   5.721  1.00  0.00    -0.323 N 
HETATM    9  C   UNL     1      41.850 -17.426   2.787  1.00  0.00     0.046 A 
HETATM   10 CL   UNL     1      40.666 -16.252   2.372  1.00  0.00    -0.084 Cl
HETATM   11  C   UNL     1      42.426 -18.192   1.766  1.00  0.00     0.025 A 
HETATM   12  C   UNL     1      43.385 -19.178   2.053  1.00  0.00     0.011 A 
HETATM   13  H   UNL     1      44.112 -19.337   6.179  1.00  0.00     0.169 HD
ENDROOT
BRANCH   5  14
HETATM   14  O   UNL     1      40.464 -17.275   5.641  1.00  0.00    -0.371 OA
HETATM   15  H   UNL     1      40.469 -18.055   6.224  1.00  0.00     0.212 HD
ENDBRANCH   5  14
BRANCH   5  16
HETATM   16  C   UNL     1      42.165 -15.532   5.355  1.00  0.00     0.018 A 
HETATM   17  C   UNL     1      41.276 -14.399   5.472  1.00  0.00     0.002 A 
HETATM   18  C   UNL     1      42.051 -13.241   5.374  1.00  0.00     0.043 A 
HETATM   19  C   UNL     1      39.885 -14.239   5.660  1.00  0.00     0.014 A 
HETATM   20  C   UNL     1      41.515 -11.950   5.457  1.00  0.00     0.030 A 
HETATM   21  N   UNL     1      43.354 -13.636   5.196  1.00  0.00    -0.365 N 
HETATM   22  C   UNL     1      40.139 -11.827   5.652  1.00  0.00     0.002 A 
HETATM   23  C   UNL     1      39.332 -12.955   5.754  1.00  0.00     0.001 A 
HETATM   24  H   UNL     1      44.135 -13.003   5.096  1.00  0.00     0.165 HD
HETATM   25  C   UNL     1      43.436 -14.999   5.184  1.00  0.00     0.100 A 
ENDBRANCH   5  16
TORSDOF 2
ENDMDL
MODEL 3
REMARK VINA RESULT:      -8.1      2.505      3.433
REMARK  2 active torsions:
REMARK  status: ('A' for Active; 'I' for Inactive)
REMARK    1  A    between atoms: C_5  and  O_6 
REMARK    2  A    between atoms: C_5  and  C_7 
ROOT
HETATM    1  C   UNL     1      45.221 -20.658   4.728  1.00  0.00     0.050 C 
HETATM    2  C   UNL     1      44.298 -19.821   3.899  1.00  0.00    -0.034 A 
HETATM    3  C   UNL     1      43.474 -18.850   4.449  1.00  0.00     0.052 A 
HETATM    4  C   UNL     1      42.621 -18.036   3.682  1.00  0.00     0.039 A 
HETATM    5  C   UNL     1      41.864 -17.114   4.601  1.00  0.00     0.200 A 
HETATM    6  C   UNL     1      42.435 -17.509   6.000  1.00  0.00     0.266 A 
HETATM    7  O   UNL     1      42.095 -17.074   7.091  1.00  0.00    -0.269 OA
HETATM    8  N   UNL     1      43.366 -18.522   5.797  1.00  0.00    -0.323 N 
HETATM    9  C   UNL     1      42.578 -18.200   2.309  1.00  0.00     0.046 A 
HETATM   10 CL   UNL     1      41.541 -17.274   1.299  1.00  0.00    -0.084 Cl
HETATM   11  C   UNL     1      43.413 -19.157   1.721  1.00  0.00     0.025 A 
HETATM   12  C   UNL     1      44.267 -19.953   2.505  1.00  0.00     0.011 A 
HETATM   13  H   UNL     1      43.855 -18.967   6.559  1.00  0.00     0.169 HD
ENDROOT
BRANCH   5  14
HETATM   14  O   UNL     1      40.472 -17.418   4.557  1.00  0.00    -0.371 OA
HETATM   15  H   UNL     1      40.282 -17.573   3.615  1.00  0.00     0.212 HD
ENDBRANCH   5  14
BRANCH   5  16
HETATM   16  C   UNL     1      42.175 -15.679   4.252  1.00  0.00     0.018 A 
HETATM   17  C   UNL     1      41.316 -14.677   3.665  1.00  0.00     0.002 A 
HETATM   18  C   UNL     1      42.065 -13.506   3.528  1.00  0.00     0.043 A 
HETATM   19  C   UNL     1      39.968 -14.643   3.241  1.00  0.00     0.014 A 
HETATM   20  C   UNL     1      41.542 -12.318   3.000  1.00  0.00     0.030 A 
HETATM   21  N   UNL     1      43.327 -13.772   3.997  1.00  0.00    -0.365 N 
HETATM   22  C   UNL     1      40.206 -12.316   2.601  1.00  0.00     0.002 A 
HETATM   23  C   UNL     1      39.427 -13.461   2.719  1.00  0.00     0.001 A 
HETATM   24  H   UNL     1      44.083 -13.101   4.020  1.00  0.00     0.165 HD
HETATM   25  C   UNL     1      43.406 -15.063   4.433  1.00  0.00     0.100 A 
ENDBRANCH   5  16
TORSDOF 2
ENDMDL
MODEL 4
REMARK VINA RESULT:      -8.0      3.235      5.394
REMARK  2 active torsions:
REMARK  status: ('A' for Active; 'I' for Inactive)
REMARK    1  A    between atoms: C_5  and  O_6 
REMARK    2  A    between atoms: C_5  and  C_7 
ROOT
HETATM    1  C   UNL     1      45.285 -13.771   7.066  1.00  0.00     0.050 C 
HETATM    2  C   UNL     1      44.081 -14.618   6.801  1.00  0.00    -0.034 A 
HETATM    3  C   UNL     1      43.081 -14.238   5.917  1.00  0.00     0.052 A 
HETATM    4  C   UNL     1      41.957 -15.034   5.635  1.00  0.00     0.039 A 
HETATM    5  C   UNL     1      41.074 -14.309   4.653  1.00  0.00     0.200 A 
HETATM    6  C   UNL     1      41.881 -12.994   4.403  1.00  0.00     0.266 A 
HETATM    7  O   UNL     1      41.552 -12.042   3.710  1.00  0.00    -0.269 OA
HETATM    8  N   UNL     1      43.032 -13.059   5.181  1.00  0.00    -0.323 N 
HETATM    9  C   UNL     1      41.814 -16.257   6.265  1.00  0.00     0.046 A 
HETATM   10 CL   UNL     1      40.456 -17.278   6.007  1.00  0.00    -0.084 Cl
HETATM   11  C   UNL     1      42.816 -16.679   7.147  1.00  0.00     0.025 A 
HETATM   12  C   UNL     1      43.938 -15.873   7.407  1.00  0.00     0.011 A 
HETATM   13  H   UNL     1      43.705 -12.308   5.212  1.00  0.00     0.169 HD
ENDROOT
BRANCH   5  14
HETATM   14  O   UNL     1      39.828 -13.987   5.266  1.00  0.00    -0.371 OA
HETATM   15  H   UNL     1      39.253 -13.715   4.529  1.00  0.00     0.212 HD
ENDBRANCH   5  14
BRANCH   5  16
HETATM   16  C   UNL     1      40.930 -15.129   3.395  1.00  0.00     0.018 A 
HETATM   17  C   UNL     1      41.933 -15.882   2.678  1.00  0.00     0.002 A 
HETATM   18  C   UNL     1      41.312 -16.463   1.569  1.00  0.00     0.043 A 
HETATM   19  C   UNL     1      43.310 -16.137   2.863  1.00  0.00     0.014 A 
HETATM   20  C   UNL     1      41.987 -17.278   0.652  1.00  0.00     0.030 A 
HETATM   21  N   UNL     1      39.993 -16.081   1.594  1.00  0.00    -0.365 N 
HETATM   22  C   UNL     1      43.344 -17.517   0.869  1.00  0.00     0.002 A 
HETATM   23  C   UNL     1      43.999 -16.957   1.960  1.00  0.00     0.001 A 
HETATM   24  H   UNL     1      39.305 -16.358   0.908  1.00  0.00     0.165 HD
HETATM   25  C   UNL     1      39.752 -15.287   2.677  1.00  0.00     0.100 A 
ENDBRANCH   5  16
TORSDOF 2
ENDMDL
MODEL 5
REMARK VINA RESULT:      -7.9      1.958      6.316
REMARK  2 active torsions:
REMARK  status: ('A' for Active; 'I' for Inactive)
REMARK    1  A    between atoms: C_5  and  O_6 
REMARK    2  A    between atoms: C_5  and  C_7 
ROOT
HETATM    1  C   UNL     1      38.894 -12.500   5.978  1.00  0.00     0.050 C 
HETATM    2  C   UNL     1      40.190 -12.928   5.364  1.00  0.00    -0.034 A 
HETATM    3  C   UNL     1      40.713 -14.201   5.537  1.00  0.00     0.052 A 
HETATM    4  C   UNL     1      41.914 -14.629   4.945  1.00  0.00     0.039 A 
HETATM    5  C   UNL     1      42.188 -16.051   5.359  1.00  0.00     0.200 A 
HETATM    6  C   UNL     1      40.948 -16.371   6.254  1.00  0.00     0.266 A 
HETATM    7  O   UNL     1      40.729 -17.400   6.878  1.00  0.00    -0.269 OA
HETATM    8  N   UNL     1      40.153 -15.231   6.286  1.00  0.00    -0.323 N 
HETATM    9  C   UNL     1      42.632 -13.752   4.152  1.00  0.00     0.046 A 
HETATM   10 CL   UNL     1      44.126 -14.178   3.418  1.00  0.00    -0.084 Cl
HETATM   11  C   UNL     1      42.120 -12.466   3.940  1.00  0.00     0.025 A 
HETATM   12  C   UNL     1      40.911 -12.061   4.533  1.00  0.00     0.011 A 
HETATM   13  H   UNL     1      39.303 -15.181   6.826  1.00  0.00     0.169 HD
ENDROOT
BRANCH   5  14
HETATM   14  O   UNL     1      43.370 -16.106   6.154  1.00  0.00    -0.371 OA
HETATM   15  H   UNL     1      43.341 -16.980   6.580  1.00  0.00     0.212 HD
ENDBRANCH   5  14
BRANCH   5  16
HETATM   16  C   UNL     1      42.244 -16.936   4.139  1.00  0.00     0.018 A 
HETATM   17  C   UNL     1      43.056 -18.107   3.899  1.00  0.00     0.002 A 
HETATM   18  C   UNL     1      42.755 -18.573   2.616  1.00  0.00     0.043 A 
HETATM   19  C   UNL     1      44.013 -18.827   4.647  1.00  0.00     0.014 A 
HETATM   20  C   UNL     1      43.353 -19.709   2.054  1.00  0.00     0.030 A 
HETATM   21  N   UNL     1      41.813 -17.728   2.085  1.00  0.00    -0.365 N 
HETATM   22  C   UNL     1      44.287 -20.402   2.824  1.00  0.00     0.002 A 
HETATM   23  C   UNL     1      44.614 -19.970   4.104  1.00  0.00     0.001 A 
HETATM   24  H   UNL     1      41.409 -17.827   1.164  1.00  0.00     0.165 HD
HETATM   25  C   UNL     1      41.499 -16.749   2.983  1.00  0.00     0.100 A 
ENDBRANCH   5  16
TORSDOF 2
ENDMDL
MODEL 6
REMARK VINA RESULT:      -7.9      1.921      5.961
REMARK  2 active torsions:
REMARK  status: ('A' for Active; 'I' for Inactive)
REMARK    1  A    between atoms: C_5  and  O_6 
REMARK    2  A    between atoms: C_5  and  C_7 
ROOT
HETATM    1  C   UNL     1      41.439 -11.601   3.619  1.00  0.00     0.050 C 
HETATM    2  C   UNL     1      41.162 -12.939   4.229  1.00  0.00    -0.034 A 
HETATM    3  C   UNL     1      41.418 -14.130   3.565  1.00  0.00     0.052 A 
HETATM    4  C   UNL     1      41.191 -15.395   4.133  1.00  0.00     0.039 A 
HETATM    5  C   UNL     1      41.557 -16.458   3.132  1.00  0.00     0.200 A 
HETATM    6  C   UNL     1      42.051 -15.604   1.920  1.00  0.00     0.266 A 
HETATM    7  O   UNL     1      42.413 -16.009   0.825  1.00  0.00    -0.269 OA
HETATM    8  N   UNL     1      41.934 -14.266   2.280  1.00  0.00    -0.323 N 
HETATM    9  C   UNL     1      40.679 -15.483   5.416  1.00  0.00     0.046 A 
HETATM   10 CL   UNL     1      40.337 -16.986   6.176  1.00  0.00    -0.084 Cl
HETATM   11  C   UNL     1      40.430 -14.299   6.121  1.00  0.00     0.025 A 
HETATM   12  C   UNL     1      40.674 -13.044   5.538  1.00  0.00     0.011 A 
HETATM   13  H   UNL     1      42.166 -13.515   1.648  1.00  0.00     0.169 HD
ENDROOT
BRANCH   5  14
HETATM   14  O   UNL     1      40.394 -17.189   2.750  1.00  0.00    -0.371 OA
HETATM   15  H   UNL     1      40.412 -17.191   1.777  1.00  0.00     0.212 HD
ENDBRANCH   5  14
BRANCH   5  16
HETATM   16  C   UNL     1      42.655 -17.328   3.691  1.00  0.00     0.018 A 
HETATM   17  C   UNL     1      43.158 -18.590   3.199  1.00  0.00     0.002 A 
HETATM   18  C   UNL     1      44.171 -19.008   4.066  1.00  0.00     0.043 A 
HETATM   19  C   UNL     1      42.860 -19.420   2.096  1.00  0.00     0.014 A 
HETATM   20  C   UNL     1      44.894 -20.194   3.885  1.00  0.00     0.030 A 
HETATM   21  N   UNL     1      44.284 -18.057   5.050  1.00  0.00    -0.365 N 
HETATM   22  C   UNL     1      44.581 -20.986   2.781  1.00  0.00     0.002 A 
HETATM   23  C   UNL     1      43.578 -20.606   1.895  1.00  0.00     0.001 A 
HETATM   24  H   UNL     1      44.944 -18.101   5.814  1.00  0.00     0.165 HD
HETATM   25  C   UNL     1      43.387 -17.051   4.838  1.00  0.00     0.100 A 
ENDBRANCH   5  16
TORSDOF 2
ENDMDL
MODEL 7
REMARK VINA RESULT:      -7.8      2.416      5.729
REMARK  2 active torsions:
REMARK  status: ('A' for Active; 'I' for Inactive)
REMARK    1  A    between atoms: C_5  and  O_6 
REMARK    2  A    between atoms: C_5  and  C_7 
ROOT
HETATM    1  C   UNL     1      39.054 -13.958   2.392  1.00  0.00     0.050 C 
HETATM    2  C   UNL     1      40.467 -13.990   2.885  1.00  0.00    -0.034 A 
HETATM    3  C   UNL     1      40.859 -14.749   3.978  1.00  0.00     0.052 A 
HETATM    4  C   UNL     1      42.186 -14.812   4.437  1.00  0.00     0.039 A 
HETATM    5  C   UNL     1      42.246 -15.708   5.646  1.00  0.00     0.200 A 
HETATM    6  C   UNL     1      40.758 -16.163   5.787  1.00  0.00     0.266 A 
HETATM    7  O   UNL     1      40.277 -16.867   6.662  1.00  0.00    -0.269 OA
HETATM    8  N   UNL     1      40.040 -15.553   4.764  1.00  0.00    -0.323 N 
HETATM    9  C   UNL     1      43.166 -14.083   3.788  1.00  0.00     0.046 A 
HETATM   10 CL   UNL     1      44.806 -14.074   4.301  1.00  0.00    -0.084 Cl
HETATM   11  C   UNL     1      42.806 -13.324   2.668  1.00  0.00     0.025 A 
HETATM   12  C   UNL     1      41.475 -13.283   2.218  1.00  0.00     0.011 A 
HETATM   13  H   UNL     1      39.043 -15.670   4.661  1.00  0.00     0.169 HD
ENDROOT
BRANCH   5  14
HETATM   14  O   UNL     1      42.617 -14.950   6.795  1.00  0.00    -0.371 OA
HETATM   15  H   UNL     1      43.254 -14.294   6.463  1.00  0.00     0.212 HD
ENDBRANCH   5  14
BRANCH   5  16
HETATM   16  C   UNL     1      43.166 -16.872   5.373  1.00  0.00     0.018 A 
HETATM   17  C   UNL     1      43.182 -17.777   4.247  1.00  0.00     0.002 A 
HETATM   18  C   UNL     1      44.216 -18.693   4.456  1.00  0.00     0.043 A 
HETATM   19  C   UNL     1      42.424 -17.907   3.062  1.00  0.00     0.014 A 
HETATM   20  C   UNL     1      44.530 -19.715   3.551  1.00  0.00     0.030 A 
HETATM   21  N   UNL     1      44.805 -18.377   5.655  1.00  0.00    -0.365 N 
HETATM   22  C   UNL     1      43.768 -19.810   2.386  1.00  0.00     0.002 A 
HETATM   23  C   UNL     1      42.729 -18.918   2.142  1.00  0.00     0.001 A 
HETATM   24  H   UNL     1      45.586 -18.876   6.058  1.00  0.00     0.165 HD
HETATM   25  C   UNL     1      44.190 -17.293   6.211  1.00  0.00     0.100 A 
ENDBRANCH   5  16
TORSDOF 2
ENDMDL
MODEL 8
REMARK VINA RESULT:      -7.8      2.583      6.585
REMARK  2 active torsions:
REMARK  status: ('A' for Active; 'I' for Inactive)
REMARK    1  A    between atoms: C_5  and  O_6 
REMARK    2  A    between atoms: C_5  and  C_7 
ROOT
HETATM    1  C   UNL     1      40.214 -11.401   7.291  1.00  0.00     0.050 C 
HETATM    2  C   UNL     1      40.432 -12.127   6.001  1.00  0.00    -0.034 A 
HETATM    3  C   UNL     1      41.575 -12.871   5.747  1.00  0.00     0.052 A 
HETATM    4  C   UNL     1      41.784 -13.582   4.553  1.00  0.00     0.039 A 
HETATM    5  C   UNL     1      43.130 -14.255   4.609  1.00  0.00     0.200 A 
HETATM    6  C   UNL     1      43.640 -13.839   6.026  1.00  0.00     0.266 A 
HETATM    7  O   UNL     1      44.725 -14.096   6.530  1.00  0.00    -0.269 OA
HETATM    8  N   UNL     1      42.658 -13.042   6.603  1.00  0.00    -0.323 N 
HETATM    9  C   UNL     1      40.819 -13.546   3.562  1.00  0.00     0.046 A 
HETATM   10 CL   UNL     1      41.006 -14.356   2.057  1.00  0.00    -0.084 Cl
HETATM   11  C   UNL     1      39.644 -12.822   3.796  1.00  0.00     0.025 A 
HETATM   12  C   UNL     1      39.450 -12.127   5.002  1.00  0.00     0.011 A 
HETATM   13  H   UNL     1      42.769 -12.624   7.515  1.00  0.00     0.169 HD
ENDROOT
BRANCH   5  14
HETATM   14  O   UNL     1      43.992 -13.702   3.617  1.00  0.00    -0.371 OA
HETATM   15  H   UNL     1      43.803 -12.748   3.629  1.00  0.00     0.212 HD
ENDBRANCH   5  14
BRANCH   5  16
HETATM   16  C   UNL     1      42.959 -15.749   4.489  1.00  0.00     0.018 A 
HETATM   17  C   UNL     1      43.285 -16.618   3.382  1.00  0.00     0.002 A 
HETATM   18  C   UNL     1      42.932 -17.919   3.749  1.00  0.00     0.043 A 
HETATM   19  C   UNL     1      43.854 -16.431   2.103  1.00  0.00     0.014 A 
HETATM   20  C   UNL     1      43.120 -19.028   2.914  1.00  0.00     0.030 A 
HETATM   21  N   UNL     1      42.405 -17.858   5.015  1.00  0.00    -0.365 N 
HETATM   22  C   UNL     1      43.694 -18.811   1.661  1.00  0.00     0.002 A 
HETATM   23  C   UNL     1      44.058 -17.531   1.258  1.00  0.00     0.001 A 
HETATM   24  H   UNL     1      42.066 -18.657   5.533  1.00  0.00     0.165 HD
HETATM   25  C   UNL     1      42.416 -16.570   5.468  1.00  0.00     0.100 A 
ENDBRANCH   5  16
TORSDOF 2
ENDMDL
MODEL 9
REMARK VINA RESULT:      -7.7      2.262      2.743
REMARK  2 active torsions:
REMARK  status: ('A' for Active; 'I' for Inactive)
REMARK    1  A    between atoms: C_5  and  O_6 
REMARK    2  A    between atoms: C_5  and  C_7 
ROOT
HETATM    1  C   UNL     1      44.719 -20.714   4.832  1.00  0.00     0.050 C 
HETATM    2  C   UNL     1      44.076 -19.381   5.047  1.00  0.00    -0.034 A 
HETATM    3  C   UNL     1      43.821 -18.498   4.007  1.00  0.00     0.052 A 
HETATM    4  C   UNL     1      43.193 -17.253   4.187  1.00  0.00     0.039 A 
HETATM    5  C   UNL     1      43.096 -16.553   2.857  1.00  0.00     0.200 A 
HETATM    6  C   UNL     1      43.741 -17.600   1.893  1.00  0.00     0.266 A 
HETATM    7  O   UNL     1      43.946 -17.477   0.694  1.00  0.00    -0.269 OA
HETATM    8  N   UNL     1      44.122 -18.694   2.663  1.00  0.00    -0.323 N 
HETATM    9  C   UNL     1      42.807 -16.863   5.457  1.00  0.00     0.046 A 
HETATM   10 CL   UNL     1      42.065 -15.346   5.775  1.00  0.00    -0.084 Cl
HETATM   11  C   UNL     1      43.030 -17.741   6.525  1.00  0.00     0.025 A 
HETATM   12  C   UNL     1      43.651 -18.986   6.322  1.00  0.00     0.011 A 
HETATM   13  H   UNL     1      44.591 -19.494   2.268  1.00  0.00     0.169 HD
ENDROOT
BRANCH   5  14
HETATM   14  O   UNL     1      43.893 -15.372   2.871  1.00  0.00    -0.371 OA
HETATM   15  H   UNL     1      44.346 -15.369   2.010  1.00  0.00     0.212 HD
ENDBRANCH   5  14
BRANCH   5  16
HETATM   16  C   UNL     1      41.648 -16.296   2.521  1.00  0.00     0.018 A 
HETATM   17  C   UNL     1      40.973 -15.038   2.299  1.00  0.00     0.002 A 
HETATM   18  C   UNL     1      39.632 -15.321   2.027  1.00  0.00     0.043 A 
HETATM   19  C   UNL     1      41.369 -13.682   2.294  1.00  0.00     0.014 A 
HETATM   20  C   UNL     1      38.681 -14.330   1.749  1.00  0.00     0.030 A 
HETATM   21  N   UNL     1      39.482 -16.684   2.086  1.00  0.00    -0.365 N 
HETATM   22  C   UNL     1      39.107 -13.002   1.743  1.00  0.00     0.002 A 
HETATM   23  C   UNL     1      40.433 -12.679   2.010  1.00  0.00     0.001 A 
HETATM   24  H   UNL     1      38.611 -17.171   1.928  1.00  0.00     0.165 HD
HETATM   25  C   UNL     1      40.676 -17.277   2.379  1.00  0.00     0.100 A 
ENDBRANCH   5  16
TORSDOF 2
ENDMDL
MODEL 10
REMARK VINA RESULT:      -7.6      3.476      5.376
REMARK  2 active torsions:
REMARK  status: ('A' for Active; 'I' for Inactive)
REMARK    1  A    between atoms: C_5  and  O_6 
REMARK    2  A    between atoms: C_5  and  C_7 
ROOT
HETATM    1  C   UNL     1      41.435 -15.017   6.032  1.00  0.00     0.050 C 
HETATM    2  C   UNL     1      41.968 -15.633   4.777  1.00  0.00    -0.034 A 
HETATM    3  C   UNL     1      41.229 -15.697   3.604  1.00  0.00     0.052 A 
HETATM    4  C   UNL     1      41.724 -16.247   2.409  1.00  0.00     0.039 A 
HETATM    5  C   UNL     1      40.654 -16.171   1.352  1.00  0.00     0.200 A 
HETATM    6  C   UNL     1      39.488 -15.472   2.122  1.00  0.00     0.266 A 
HETATM    7  O   UNL     1      38.365 -15.229   1.705  1.00  0.00    -0.269 OA
HETATM    8  N   UNL     1      39.930 -15.236   3.419  1.00  0.00    -0.323 N 
HETATM    9  C   UNL     1      43.007 -16.763   2.378  1.00  0.00     0.046 A 
HETATM   10 CL   UNL     1      43.681 -17.485   0.972  1.00  0.00    -0.084 Cl
HETATM   11  C   UNL     1      43.786 -16.694   3.539  1.00  0.00     0.025 A 
HETATM   12  C   UNL     1      43.276 -16.130   4.722  1.00  0.00     0.011 A 
HETATM   13  H   UNL     1      39.340 -14.816   4.121  1.00  0.00     0.169 HD
ENDROOT
BRANCH   5  14
HETATM   14  O   UNL     1      40.249 -17.484   0.975  1.00  0.00    -0.371 OA
HETATM   15  H   UNL     1      40.037 -17.416   0.028  1.00  0.00     0.212 HD
ENDBRANCH   5  14
BRANCH   5  16
HETATM   16  C   UNL     1      41.142 -15.338   0.193  1.00  0.00     0.018 A 
HETATM   17  C   UNL     1      41.536 -13.948   0.171  1.00  0.00     0.002 A 
HETATM   18  C   UNL     1      41.902 -13.633  -1.141  1.00  0.00     0.043 A 
HETATM   19  C   UNL     1      41.628 -12.922   1.138  1.00  0.00     0.014 A 
HETATM   20  C   UNL     1      42.352 -12.365  -1.528  1.00  0.00     0.030 A 
HETATM   21  N   UNL     1      41.734 -14.768  -1.895  1.00  0.00    -0.365 N 
HETATM   22  C   UNL     1      42.440 -11.377  -0.546  1.00  0.00     0.002 A 
HETATM   23  C   UNL     1      42.084 -11.650   0.770  1.00  0.00     0.001 A 
HETATM   24  H   UNL     1      41.925 -14.831  -2.885  1.00  0.00     0.165 HD
HETATM   25  C   UNL     1      41.282 -15.791  -1.112  1.00  0.00     0.100 A 
ENDBRANCH   5  16
TORSDOF 2
ENDMDL
