MODEL 1
REMARK VINA RESULT:      -8.2      0.000      0.000
REMARK  10 active torsions:
REMARK  status: ('A' for Active; 'I' for Inactive)
REMARK    1  A    between atoms: N_2  and  C_3 
REMARK    2  A    between atoms: C_3  and  C_4 
REMARK       I    between atoms: C_4  and  N_5 
REMARK    3  A    between atoms: N_5  and  C_6 
REMARK    4  A    between atoms: C_6  and  C_7 
REMARK    5  A    between atoms: C_7  and  C_8 
REMARK    6  A    between atoms: C_8  and  C_9 
REMARK       I    between atoms: C_9  and  N_10 
REMARK    7  A    between atoms: N_10  and  C_11 
REMARK    8  A    between atoms: C_11  and  C_12 
REMARK    9  A    between atoms: C_12  and  C_13 
REMARK   10  A    between atoms: C_13  and  N_14 
ROOT
HETATM    1  C   UNL     1      40.423 -15.138   1.792  1.00  0.00     0.235 C 
HETATM    2  N   UNL     1      39.975 -13.839   1.629  1.00  0.00    -0.360 N 
HETATM    3  O   UNL     1      39.689 -16.053   2.154  1.00  0.00    -0.272 OA
HETATM    4  H   UNL     1      40.630 -13.110   1.374  1.00  0.00     0.162 HD
ENDROOT
BRANCH   2   5
HETATM    5  C   UNL     1      38.597 -13.469   1.877  1.00  0.00     0.123 C 
BRANCH   5   6
HETATM    6  C   UNL     1      37.679 -13.900   0.736  1.00  0.00     0.029 C 
BRANCH   6   7
HETATM    7  C   UNL     1      37.488 -12.767  -0.266  1.00  0.00     0.104 C 
BRANCH   7   8
HETATM    8  C   UNL     1      38.225 -13.058  -1.552  1.00  0.00     0.217 C 
HETATM    9  N   UNL     1      38.240 -14.385  -1.921  1.00  0.00    -0.361 N 
HETATM   10  H   UNL     1      37.894 -15.068  -1.254  1.00  0.00     0.162 HD
HETATM   11  O   UNL     1      38.715 -12.173  -2.248  1.00  0.00    -0.274 OA
BRANCH   9  12
HETATM   12  C   UNL     1      39.042 -14.864  -3.030  1.00  0.00     0.124 C 
BRANCH  12  13
HETATM   13  C   UNL     1      40.500 -15.146  -2.656  1.00  0.00     0.047 C 
BRANCH  13  14
HETATM   14  C   UNL     1      41.482 -14.254  -3.416  1.00  0.00     0.236 C 
BRANCH  14  15
HETATM   15  N   UNL     1      41.586 -12.855  -2.795  1.00  0.00    -0.071 N 
HETATM   16  H   UNL     1      40.626 -12.491  -2.739  1.00  0.00     0.279 HD
HETATM   17  C   UNL     1      42.149 -12.904  -1.394  1.00  0.00     0.235 C 
HETATM   18  C   UNL     1      42.183 -11.540  -0.713  1.00  0.00     0.028 C 
HETATM   19  C   UNL     1      43.306 -10.645  -1.222  1.00  0.00     0.002 C 
HETATM   20  C   UNL     1      42.954  -9.821  -2.453  1.00  0.00     0.002 C 
HETATM   21  C   UNL     1      42.048 -10.488  -3.482  1.00  0.00     0.028 C 
HETATM   22  C   UNL     1      42.356 -11.953  -3.750  1.00  0.00     0.235 C 
ENDBRANCH  14  15
ENDBRANCH  13  14
ENDBRANCH  12  13
ENDBRANCH   9  12
ENDBRANCH   7   8
ENDBRANCH   6   7
ENDBRANCH   5   6
ENDBRANCH   2   5
BRANCH   1  23
HETATM   23  C   UNL     1      41.895 -15.325   1.420  1.00  0.00     0.235 C 
BRANCH  23  24
HETATM   24  N   UNL     1      42.573 -16.188   2.367  1.00  0.00    -0.299 N 
HETATM   25  C   UNL     1      42.914 -15.710   3.618  1.00  0.00     0.214 A 
HETATM   26  N   UNL     1      43.469 -16.397   4.563  1.00  0.00    -0.235 NA
HETATM   27  C   UNL     1      43.728 -17.687   4.234  1.00  0.00     0.115 A 
HETATM   28  C   UNL     1      43.497 -18.289   3.013  1.00  0.00     0.075 A 
HETATM   29  S   UNL     1      44.394 -18.777   5.365  1.00  0.00    -0.073 SA
HETATM   30  C   UNL     1      42.886 -17.485   1.969  1.00  0.00     0.262 A 
HETATM   31  C   UNL     1      43.908 -19.661   2.996  1.00  0.00    -0.026 A 
HETATM   32  O   UNL     1      42.648 -17.921   0.843  1.00  0.00    -0.267 OA
HETATM   33  C   UNL     1      44.383 -20.050   4.236  1.00  0.00    -0.008 A 
HETATM   34  C   UNL     1      43.821 -20.621   1.847  1.00  0.00     0.041 C 
HETATM   35  C   UNL     1      44.878 -21.419   4.585  1.00  0.00     0.047 C 
HETATM   36  C   UNL     1      44.447 -22.434   3.516  1.00  0.00     0.005 C 
HETATM   37  C   UNL     1      44.656 -21.887   2.097  1.00  0.00     0.005 C 
ENDBRANCH  23  24
ENDBRANCH   1  23
TORSDOF 10
ENDMDL
MODEL 2
REMARK VINA RESULT:      -8.1      6.077      8.701
REMARK  10 active torsions:
REMARK  status: ('A' for Active; 'I' for Inactive)
REMARK    1  A    between atoms: N_2  and  C_3 
REMARK    2  A    between atoms: C_3  and  C_4 
REMARK       I    between atoms: C_4  and  N_5 
REMARK    3  A    between atoms: N_5  and  C_6 
REMARK    4  A    between atoms: C_6  and  C_7 
REMARK    5  A    between atoms: C_7  and  C_8 
REMARK    6  A    between atoms: C_8  and  C_9 
REMARK       I    between atoms: C_9  and  N_10 
REMARK    7  A    between atoms: N_10  and  C_11 
REMARK    8  A    between atoms: C_11  and  C_12 
REMARK    9  A    between atoms: C_12  and  C_13 
REMARK   10  A    between atoms: C_13  and  N_14 
ROOT
HETATM    1  C   UNL     1      42.031 -13.923   2.638  1.00  0.00     0.235 C 
HETATM    2  N   UNL     1      40.993 -13.145   3.119  1.00  0.00    -0.360 N 
HETATM    3  O   UNL     1      43.173 -13.495   2.500  1.00  0.00    -0.272 OA
HETATM    4  H   UNL     1      40.058 -13.530   3.170  1.00  0.00     0.162 HD
ENDROOT
BRANCH   2   5
HETATM    5  C   UNL     1      41.188 -11.760   3.496  1.00  0.00     0.123 C 
BRANCH   5   6
HETATM    6  C   UNL     1      41.618 -11.623   4.954  1.00  0.00     0.029 C 
BRANCH   6   7
HETATM    7  C   UNL     1      40.724 -12.456   5.865  1.00  0.00     0.104 C 
BRANCH   7   8
HETATM    8  C   UNL     1      39.810 -11.569   6.678  1.00  0.00     0.217 C 
HETATM    9  N   UNL     1      39.961 -11.681   8.042  1.00  0.00    -0.361 N 
HETATM   10  H   UNL     1      40.551 -12.428   8.396  1.00  0.00     0.162 HD
HETATM   11  O   UNL     1      39.040 -10.764   6.162  1.00  0.00    -0.274 OA
BRANCH   9  12
HETATM   12  C   UNL     1      39.053 -11.034   8.970  1.00  0.00     0.124 C 
BRANCH  12  13
HETATM   13  C   UNL     1      39.674  -9.842   9.704  1.00  0.00     0.047 C 
BRANCH  13  14
HETATM   14  C   UNL     1      39.370  -9.855  11.202  1.00  0.00     0.236 C 
BRANCH  14  15
HETATM   15  N   UNL     1      40.607 -10.210  12.037  1.00  0.00    -0.071 N 
HETATM   16  H   UNL     1      40.330 -10.989  12.648  1.00  0.00     0.279 HD
HETATM   17  C   UNL     1      41.753 -10.679  11.170  1.00  0.00     0.235 C 
HETATM   18  C   UNL     1      42.968 -11.126  11.974  1.00  0.00     0.028 C 
HETATM   19  C   UNL     1      43.769  -9.962  12.545  1.00  0.00     0.002 C 
HETATM   20  C   UNL     1      43.284  -9.461  13.898  1.00  0.00     0.002 C 
HETATM   21  C   UNL     1      41.777  -9.475  14.130  1.00  0.00     0.028 C 
HETATM   22  C   UNL     1      40.943  -9.029  12.938  1.00  0.00     0.235 C 
ENDBRANCH  14  15
ENDBRANCH  13  14
ENDBRANCH  12  13
ENDBRANCH   9  12
ENDBRANCH   7   8
ENDBRANCH   6   7
ENDBRANCH   5   6
ENDBRANCH   2   5
BRANCH   1  23
HETATM   23  C   UNL     1      41.625 -15.371   2.357  1.00  0.00     0.235 C 
BRANCH  23  24
HETATM   24  N   UNL     1      42.429 -16.302   3.123  1.00  0.00    -0.299 N 
HETATM   25  C   UNL     1      42.910 -15.940   4.368  1.00  0.00     0.214 A 
HETATM   26  N   UNL     1      43.589 -16.700   5.165  1.00  0.00    -0.235 NA
HETATM   27  C   UNL     1      43.831 -17.943   4.677  1.00  0.00     0.115 A 
HETATM   28  C   UNL     1      43.465 -18.427   3.438  1.00  0.00     0.075 A 
HETATM   29  S   UNL     1      44.650 -19.117   5.604  1.00  0.00    -0.073 SA
HETATM   30  C   UNL     1      42.717 -17.543   2.561  1.00  0.00     0.262 A 
HETATM   31  C   UNL     1      43.898 -19.777   3.231  1.00  0.00    -0.026 A 
HETATM   32  O   UNL     1      42.353 -17.872   1.432  1.00  0.00    -0.267 OA
HETATM   33  C   UNL     1      44.527 -20.272   4.360  1.00  0.00    -0.008 A 
HETATM   34  C   UNL     1      43.691 -20.620   2.009  1.00  0.00     0.041 C 
HETATM   35  C   UNL     1      45.087 -21.652   4.506  1.00  0.00     0.047 C 
HETATM   36  C   UNL     1      44.550 -22.570   3.397  1.00  0.00     0.005 C 
HETATM   37  C   UNL     1      44.575 -21.878   2.027  1.00  0.00     0.005 C 
ENDBRANCH  23  24
ENDBRANCH   1  23
TORSDOF 10
ENDMDL
MODEL 3
REMARK VINA RESULT:      -8.0      5.567      8.380
REMARK  10 active torsions:
REMARK  status: ('A' for Active; 'I' for Inactive)
REMARK    1  A    between atoms: N_2  and  C_3 
REMARK    2  A    between atoms: C_3  and  C_4 
REMARK       I    between atoms: C_4  and  N_5 
REMARK    3  A    between atoms: N_5  and  C_6 
REMARK    4  A    between atoms: C_6  and  C_7 
REMARK    5  A    between atoms: C_7  and  C_8 
REMARK    6  A    between atoms: C_8  and  C_9 
REMARK       I    between atoms: C_9  and  N_10 
REMARK    7  A    between atoms: N_10  and  C_11 
REMARK    8  A    between atoms: C_11  and  C_12 
REMARK    9  A    between atoms: C_12  and  C_13 
REMARK   10  A    between atoms: C_13  and  N_14 
ROOT
HETATM    1  C   UNL     1      40.269 -14.183   4.236  1.00  0.00     0.235 C 
HETATM    2  N   UNL     1      40.229 -12.806   4.117  1.00  0.00    -0.360 N 
HETATM    3  O   UNL     1      39.667 -14.791   5.116  1.00  0.00    -0.272 OA
HETATM    4  H   UNL     1      40.780 -12.347   3.402  1.00  0.00     0.162 HD
ENDROOT
BRANCH   2   5
HETATM    5  C   UNL     1      39.466 -11.982   5.031  1.00  0.00     0.123 C 
BRANCH   5   6
HETATM    6  C   UNL     1      40.346 -11.379   6.123  1.00  0.00     0.029 C 
BRANCH   6   7
HETATM    7  C   UNL     1      39.775 -10.053   6.612  1.00  0.00     0.104 C 
BRANCH   7   8
HETATM    8  C   UNL     1      39.365 -10.147   8.063  1.00  0.00     0.217 C 
HETATM    9  N   UNL     1      39.644  -9.028   8.815  1.00  0.00    -0.361 N 
HETATM   10  H   UNL     1      40.216  -8.302   8.394  1.00  0.00     0.162 HD
HETATM   11  O   UNL     1      38.770 -11.119   8.520  1.00  0.00    -0.274 OA
BRANCH   9  12
HETATM   12  C   UNL     1      39.476  -9.010  10.256  1.00  0.00     0.124 C 
BRANCH  12  13
HETATM   13  C   UNL     1      40.747  -9.375  11.026  1.00  0.00     0.047 C 
BRANCH  13  14
HETATM   14  C   UNL     1      40.848 -10.874  11.312  1.00  0.00     0.236 C 
BRANCH  14  15
HETATM   15  N   UNL     1      42.158 -11.473  10.785  1.00  0.00    -0.071 N 
HETATM   16  H   UNL     1      41.946 -12.444  10.520  1.00  0.00     0.279 HD
HETATM   17  C   UNL     1      42.652 -10.749   9.555  1.00  0.00     0.235 C 
HETATM   18  C   UNL     1      43.904 -11.375   8.952  1.00  0.00     0.028 C 
HETATM   19  C   UNL     1      45.169 -11.063   9.743  1.00  0.00     0.002 C 
HETATM   20  C   UNL     1      45.457 -12.025  10.887  1.00  0.00     0.002 C 
HETATM   21  C   UNL     1      44.248 -12.557  11.649  1.00  0.00     0.028 C 
HETATM   22  C   UNL     1      43.164 -11.527  11.928  1.00  0.00     0.235 C 
ENDBRANCH  14  15
ENDBRANCH  13  14
ENDBRANCH  12  13
ENDBRANCH   9  12
ENDBRANCH   7   8
ENDBRANCH   6   7
ENDBRANCH   5   6
ENDBRANCH   2   5
BRANCH   1  23
HETATM   23  C   UNL     1      41.081 -14.865   3.134  1.00  0.00     0.235 C 
BRANCH  23  24
HETATM   24  N   UNL     1      42.032 -15.810   3.687  1.00  0.00    -0.299 N 
HETATM   25  C   UNL     1      42.712 -15.506   4.851  1.00  0.00     0.214 A 
HETATM   26  N   UNL     1      43.540 -16.286   5.467  1.00  0.00    -0.235 NA
HETATM   27  C   UNL     1      43.726 -17.487   4.864  1.00  0.00     0.115 A 
HETATM   28  C   UNL     1      43.164 -17.909   3.677  1.00  0.00     0.075 A 
HETATM   29  S   UNL     1      44.726 -18.684   5.556  1.00  0.00    -0.073 SA
HETATM   30  C   UNL     1      42.250 -17.003   3.003  1.00  0.00     0.262 A 
HETATM   31  C   UNL     1      43.590 -19.226   3.310  1.00  0.00    -0.026 A 
HETATM   32  O   UNL     1      41.704 -17.276   1.934  1.00  0.00    -0.267 OA
HETATM   33  C   UNL     1      44.419 -19.764   4.278  1.00  0.00    -0.008 A 
HETATM   34  C   UNL     1      43.196 -20.002   2.089  1.00  0.00     0.041 C 
HETATM   35  C   UNL     1      45.034 -21.129   4.234  1.00  0.00     0.047 C 
HETATM   36  C   UNL     1      44.336 -21.997   3.176  1.00  0.00     0.005 C 
HETATM   37  C   UNL     1      44.103 -21.224   1.871  1.00  0.00     0.005 C 
ENDBRANCH  23  24
ENDBRANCH   1  23
TORSDOF 10
ENDMDL
MODEL 4
REMARK VINA RESULT:      -7.9      5.912      8.747
REMARK  10 active torsions:
REMARK  status: ('A' for Active; 'I' for Inactive)
REMARK    1  A    between atoms: N_2  and  C_3 
REMARK    2  A    between atoms: C_3  and  C_4 
REMARK       I    between atoms: C_4  and  N_5 
REMARK    3  A    between atoms: N_5  and  C_6 
REMARK    4  A    between atoms: C_6  and  C_7 
REMARK    5  A    between atoms: C_7  and  C_8 
REMARK    6  A    between atoms: C_8  and  C_9 
REMARK       I    between atoms: C_9  and  N_10 
REMARK    7  A    between atoms: N_10  and  C_11 
REMARK    8  A    between atoms: C_11  and  C_12 
REMARK    9  A    between atoms: C_12  and  C_13 
REMARK   10  A    between atoms: C_13  and  N_14 
ROOT
HETATM    1  C   UNL     1      41.218 -12.955   5.467  1.00  0.00     0.235 C 
HETATM    2  N   UNL     1      40.356 -11.938   5.096  1.00  0.00    -0.360 N 
HETATM    3  O   UNL     1      42.425 -12.783   5.607  1.00  0.00    -0.272 OA
HETATM    4  H   UNL     1      39.375 -12.141   4.948  1.00  0.00     0.162 HD
ENDROOT
BRANCH   2   5
HETATM    5  C   UNL     1      40.825 -10.591   4.846  1.00  0.00     0.123 C 
BRANCH   5   6
HETATM    6  C   UNL     1      40.971  -9.791   6.138  1.00  0.00     0.029 C 
BRANCH   6   7
HETATM    7  C   UNL     1      39.616  -9.289   6.623  1.00  0.00     0.104 C 
BRANCH   7   8
HETATM    8  C   UNL     1      39.255  -9.914   7.950  1.00  0.00     0.217 C 
HETATM    9  N   UNL     1      39.148  -9.025   8.996  1.00  0.00    -0.361 N 
HETATM   10  H   UNL     1      39.451  -8.068   8.840  1.00  0.00     0.162 HD
HETATM   11  O   UNL     1      39.011 -11.111   8.073  1.00  0.00    -0.274 OA
BRANCH   9  12
HETATM   12  C   UNL     1      38.978  -9.469  10.366  1.00  0.00     0.124 C 
BRANCH  12  13
HETATM   13  C   UNL     1      40.299  -9.652  11.120  1.00  0.00     0.047 C 
BRANCH  13  14
HETATM   14  C   UNL     1      40.608 -11.121  11.408  1.00  0.00     0.236 C 
BRANCH  14  15
HETATM   15  N   UNL     1      41.969 -11.544  10.840  1.00  0.00    -0.071 N 
HETATM   16  H   UNL     1      41.863 -12.519  10.530  1.00  0.00     0.279 HD
HETATM   17  C   UNL     1      42.360 -10.712   9.641  1.00  0.00     0.235 C 
HETATM   18  C   UNL     1      43.665 -11.164   8.996  1.00  0.00     0.028 C 
HETATM   19  C   UNL     1      44.899 -10.750   9.788  1.00  0.00     0.002 C 
HETATM   20  C   UNL     1      45.310 -11.728  10.881  1.00  0.00     0.002 C 
HETATM   21  C   UNL     1      44.180 -12.427  11.629  1.00  0.00     0.028 C 
HETATM   22  C   UNL     1      42.992 -11.539  11.968  1.00  0.00     0.235 C 
ENDBRANCH  14  15
ENDBRANCH  13  14
ENDBRANCH  12  13
ENDBRANCH   9  12
ENDBRANCH   7   8
ENDBRANCH   6   7
ENDBRANCH   5   6
ENDBRANCH   2   5
BRANCH   1  23
HETATM   23  C   UNL     1      40.510 -14.283   5.740  1.00  0.00     0.235 C 
BRANCH  23  24
HETATM   24  N   UNL     1      40.966 -15.319   4.835  1.00  0.00    -0.299 N 
HETATM   25  C   UNL     1      40.569 -15.306   3.511  1.00  0.00     0.214 A 
HETATM   26  N   UNL     1      40.951 -16.141   2.600  1.00  0.00    -0.235 NA
HETATM   27  C   UNL     1      41.803 -17.098   3.045  1.00  0.00     0.115 A 
HETATM   28  C   UNL     1      42.243 -17.273   4.341  1.00  0.00     0.075 A 
HETATM   29  S   UNL     1      42.476 -18.252   1.984  1.00  0.00    -0.073 SA
HETATM   30  C   UNL     1      41.783 -16.326   5.343  1.00  0.00     0.262 A 
HETATM   31  C   UNL     1      43.120 -18.397   4.473  1.00  0.00    -0.026 A 
HETATM   32  O   UNL     1      42.105 -16.398   6.529  1.00  0.00    -0.267 OA
HETATM   33  C   UNL     1      43.349 -18.990   3.244  1.00  0.00    -0.008 A 
HETATM   34  C   UNL     1      43.780 -18.893   5.725  1.00  0.00     0.041 C 
HETATM   35  C   UNL     1      44.231 -20.176   3.004  1.00  0.00     0.047 C 
HETATM   36  C   UNL     1      45.141 -20.422   4.217  1.00  0.00     0.005 C 
HETATM   37  C   UNL     1      44.371 -20.300   5.539  1.00  0.00     0.005 C 
ENDBRANCH  23  24
ENDBRANCH   1  23
TORSDOF 10
ENDMDL
MODEL 5
REMARK VINA RESULT:      -7.8      1.621      2.157
REMARK  10 active torsions:
REMARK  status: ('A' for Active; 'I' for Inactive)
REMARK    1  A    between atoms: N_2  and  C_3 
REMARK    2  A    between atoms: C_3  and  C_4 
REMARK       I    between atoms: C_4  and  N_5 
REMARK    3  A    between atoms: N_5  and  C_6 
REMARK    4  A    between atoms: C_6  and  C_7 
REMARK    5  A    between atoms: C_7  and  C_8 
REMARK    6  A    between atoms: C_8  and  C_9 
REMARK       I    between atoms: C_9  and  N_10 
REMARK    7  A    between atoms: N_10  and  C_11 
REMARK    8  A    between atoms: C_11  and  C_12 
REMARK    9  A    between atoms: C_12  and  C_13 
REMARK   10  A    between atoms: C_13  and  N_14 
ROOT
HETATM    1  C   UNL     1      42.113 -14.241   2.912  1.00  0.00     0.235 C 
HETATM    2  N   UNL     1      40.986 -14.972   3.246  1.00  0.00    -0.360 N 
HETATM    3  O   UNL     1      42.056 -13.169   2.316  1.00  0.00    -0.272 OA
HETATM    4  H   UNL     1      41.088 -15.873   3.697  1.00  0.00     0.162 HD
ENDROOT
BRANCH   2   5
HETATM    5  C   UNL     1      39.653 -14.517   2.911  1.00  0.00     0.123 C 
BRANCH   5   6
HETATM    6  C   UNL     1      39.182 -15.073   1.570  1.00  0.00     0.029 C 
BRANCH   6   7
HETATM    7  C   UNL     1      38.021 -14.254   1.019  1.00  0.00     0.104 C 
BRANCH   7   8
HETATM    8  C   UNL     1      38.414 -13.561  -0.266  1.00  0.00     0.217 C 
HETATM    9  N   UNL     1      38.379 -14.361  -1.386  1.00  0.00    -0.361 N 
HETATM   10  H   UNL     1      38.238 -15.358  -1.255  1.00  0.00     0.162 HD
HETATM   11  O   UNL     1      38.679 -12.364  -0.316  1.00  0.00    -0.274 OA
BRANCH   9  12
HETATM   12  C   UNL     1      38.886 -13.909  -2.668  1.00  0.00     0.124 C 
BRANCH  12  13
HETATM   13  C   UNL     1      39.853 -14.897  -3.327  1.00  0.00     0.047 C 
BRANCH  13  14
HETATM   14  C   UNL     1      41.316 -14.498  -3.136  1.00  0.00     0.236 C 
BRANCH  14  15
HETATM   15  N   UNL     1      41.459 -13.047  -2.658  1.00  0.00    -0.071 N 
HETATM   16  H   UNL     1      40.504 -12.673  -2.578  1.00  0.00     0.279 HD
HETATM   17  C   UNL     1      42.109 -12.966  -1.296  1.00  0.00     0.235 C 
HETATM   18  C   UNL     1      42.185 -11.545  -0.752  1.00  0.00     0.028 C 
HETATM   19  C   UNL     1      43.274 -10.708  -1.412  1.00  0.00     0.002 C 
HETATM   20  C   UNL     1      42.846 -10.002  -2.691  1.00  0.00     0.002 C 
HETATM   21  C   UNL     1      41.878 -10.758  -3.594  1.00  0.00     0.028 C 
HETATM   22  C   UNL     1      42.168 -12.244  -3.741  1.00  0.00     0.235 C 
ENDBRANCH  14  15
ENDBRANCH  13  14
ENDBRANCH  12  13
ENDBRANCH   9  12
ENDBRANCH   7   8
ENDBRANCH   6   7
ENDBRANCH   5   6
ENDBRANCH   2   5
BRANCH   1  23
HETATM   23  C   UNL     1      43.415 -14.869   3.412  1.00  0.00     0.235 C 
BRANCH  23  24
HETATM   24  N   UNL     1      43.511 -16.262   3.024  1.00  0.00    -0.299 N 
HETATM   25  C   UNL     1      43.370 -16.624   1.697  1.00  0.00     0.214 A 
HETATM   26  N   UNL     1      43.488 -17.822   1.225  1.00  0.00    -0.235 NA
HETATM   27  C   UNL     1      43.761 -18.765   2.161  1.00  0.00     0.115 A 
HETATM   28  C   UNL     1      43.874 -18.567   3.523  1.00  0.00     0.075 A 
HETATM   29  S   UNL     1      44.022 -20.395   1.732  1.00  0.00    -0.073 SA
HETATM   30  C   UNL     1      43.720 -17.211   4.022  1.00  0.00     0.262 A 
HETATM   31  C   UNL     1      44.144 -19.782   4.230  1.00  0.00    -0.026 A 
HETATM   32  O   UNL     1      43.791 -16.927   5.218  1.00  0.00    -0.267 OA
HETATM   33  C   UNL     1      44.281 -20.843   3.353  1.00  0.00    -0.008 A 
HETATM   34  C   UNL     1      44.320 -19.953   5.709  1.00  0.00     0.041 C 
HETATM   35  C   UNL     1      44.587 -22.256   3.741  1.00  0.00     0.047 C 
HETATM   36  C   UNL     1      45.100 -22.316   5.188  1.00  0.00     0.005 C 
HETATM   37  C   UNL     1      44.263 -21.432   6.124  1.00  0.00     0.005 C 
ENDBRANCH  23  24
ENDBRANCH   1  23
TORSDOF 10
ENDMDL
MODEL 6
REMARK VINA RESULT:      -7.8      6.141      9.840
REMARK  10 active torsions:
REMARK  status: ('A' for Active; 'I' for Inactive)
REMARK    1  A    between atoms: N_2  and  C_3 
REMARK    2  A    between atoms: C_3  and  C_4 
REMARK       I    between atoms: C_4  and  N_5 
REMARK    3  A    between atoms: N_5  and  C_6 
REMARK    4  A    between atoms: C_6  and  C_7 
REMARK    5  A    between atoms: C_7  and  C_8 
REMARK    6  A    between atoms: C_8  and  C_9 
REMARK       I    between atoms: C_9  and  N_10 
REMARK    7  A    between atoms: N_10  and  C_11 
REMARK    8  A    between atoms: C_11  and  C_12 
REMARK    9  A    between atoms: C_12  and  C_13 
REMARK   10  A    between atoms: C_13  and  N_14 
ROOT
HETATM    1  C   UNL     1      39.529 -10.384   5.334  1.00  0.00     0.235 C 
HETATM    2  N   UNL     1      40.699 -10.589   4.624  1.00  0.00    -0.360 N 
HETATM    3  O   UNL     1      38.576 -11.154   5.278  1.00  0.00    -0.272 OA
HETATM    4  H   UNL     1      41.441  -9.900   4.667  1.00  0.00     0.162 HD
ENDROOT
BRANCH   2   5
HETATM    5  C   UNL     1      40.877 -11.737   3.760  1.00  0.00     0.123 C 
BRANCH   5   6
HETATM    6  C   UNL     1      41.984 -12.660   4.262  1.00  0.00     0.029 C 
BRANCH   6   7
HETATM    7  C   UNL     1      41.430 -13.696   5.233  1.00  0.00     0.104 C 
BRANCH   7   8
HETATM    8  C   UNL     1      42.503 -14.680   5.639  1.00  0.00     0.217 C 
HETATM    9  N   UNL     1      42.115 -15.596   6.592  1.00  0.00    -0.361 N 
HETATM   10  H   UNL     1      41.216 -15.459   7.045  1.00  0.00     0.162 HD
HETATM   11  O   UNL     1      43.611 -14.704   5.112  1.00  0.00    -0.274 OA
BRANCH   9  12
HETATM   12  C   UNL     1      43.061 -16.499   7.218  1.00  0.00     0.124 C 
BRANCH  12  13
HETATM   13  C   UNL     1      43.015 -17.922   6.653  1.00  0.00     0.047 C 
BRANCH  13  14
HETATM   14  C   UNL     1      44.405 -18.460   6.310  1.00  0.00     0.236 C 
BRANCH  14  15
HETATM   15  N   UNL     1      44.563 -18.726   4.808  1.00  0.00    -0.071 N 
HETATM   16  H   UNL     1      45.458 -18.302   4.531  1.00  0.00     0.279 HD
HETATM   17  C   UNL     1      44.634 -20.205   4.505  1.00  0.00     0.235 C 
HETATM   18  C   UNL     1      44.881 -20.504   3.031  1.00  0.00     0.028 C 
HETATM   19  C   UNL     1      43.645 -20.302   2.163  1.00  0.00     0.002 C 
HETATM   20  C   UNL     1      43.450 -18.880   1.656  1.00  0.00     0.002 C 
HETATM   21  C   UNL     1      43.848 -17.757   2.608  1.00  0.00     0.028 C 
HETATM   22  C   UNL     1      43.462 -17.985   4.062  1.00  0.00     0.235 C 
ENDBRANCH  14  15
ENDBRANCH  13  14
ENDBRANCH  12  13
ENDBRANCH   9  12
ENDBRANCH   7   8
ENDBRANCH   6   7
ENDBRANCH   5   6
ENDBRANCH   2   5
BRANCH   1  23
HETATM   23  C   UNL     1      39.572  -9.146   6.231  1.00  0.00     0.235 C 
BRANCH  23  24
HETATM   24  N   UNL     1      39.794  -9.507   7.618  1.00  0.00    -0.299 N 
HETATM   25  C   UNL     1      38.738  -9.503   8.511  1.00  0.00     0.214 A 
HETATM   26  N   UNL     1      38.801  -9.857   9.754  1.00  0.00    -0.235 NA
HETATM   27  C   UNL     1      40.036 -10.241  10.162  1.00  0.00     0.115 A 
HETATM   28  C   UNL     1      41.190 -10.245   9.405  1.00  0.00     0.075 A 
HETATM   29  S   UNL     1      40.312 -10.810  11.746  1.00  0.00    -0.073 SA
HETATM   30  C   UNL     1      41.088  -9.828   8.017  1.00  0.00     0.262 A 
HETATM   31  C   UNL     1      42.329 -10.689  10.151  1.00  0.00    -0.026 A 
HETATM   32  O   UNL     1      42.057  -9.784   7.259  1.00  0.00    -0.267 OA
HETATM   33  C   UNL     1      41.966 -11.058  11.434  1.00  0.00    -0.008 A 
HETATM   34  C   UNL     1      43.742 -10.814   9.663  1.00  0.00     0.041 C 
HETATM   35  C   UNL     1      42.896 -11.588  12.480  1.00  0.00     0.047 C 
HETATM   36  C   UNL     1      44.225 -12.026  11.845  1.00  0.00     0.005 C 
HETATM   37  C   UNL     1      44.732 -10.998  10.825  1.00  0.00     0.005 C 
ENDBRANCH  23  24
ENDBRANCH   1  23
TORSDOF 10
ENDMDL
MODEL 7
REMARK VINA RESULT:      -7.7      1.695      3.509
REMARK  10 active torsions:
REMARK  status: ('A' for Active; 'I' for Inactive)
REMARK    1  A    between atoms: N_2  and  C_3 
REMARK    2  A    between atoms: C_3  and  C_4 
REMARK       I    between atoms: C_4  and  N_5 
REMARK    3  A    between atoms: N_5  and  C_6 
REMARK    4  A    between atoms: C_6  and  C_7 
REMARK    5  A    between atoms: C_7  and  C_8 
REMARK    6  A    between atoms: C_8  and  C_9 
REMARK       I    between atoms: C_9  and  N_10 
REMARK    7  A    between atoms: N_10  and  C_11 
REMARK    8  A    between atoms: C_11  and  C_12 
REMARK    9  A    between atoms: C_12  and  C_13 
REMARK   10  A    between atoms: C_13  and  N_14 
ROOT
HETATM    1  C   UNL     1      40.908 -14.518   1.178  1.00  0.00     0.235 C 
HETATM    2  N   UNL     1      40.146 -13.364   1.131  1.00  0.00    -0.360 N 
HETATM    3  O   UNL     1      41.971 -14.636   0.576  1.00  0.00    -0.272 OA
HETATM    4  H   UNL     1      39.253 -13.332   1.607  1.00  0.00     0.162 HD
ENDROOT
BRANCH   2   5
HETATM    5  C   UNL     1      40.556 -12.208   0.361  1.00  0.00     0.123 C 
BRANCH   5   6
HETATM    6  C   UNL     1      41.422 -11.256   1.183  1.00  0.00     0.029 C 
BRANCH   6   7
HETATM    7  C   UNL     1      41.842 -10.049   0.352  1.00  0.00     0.104 C 
BRANCH   7   8
HETATM    8  C   UNL     1      42.591 -10.483  -0.886  1.00  0.00     0.217 C 
HETATM    9  N   UNL     1      42.002 -10.115  -2.075  1.00  0.00    -0.361 N 
HETATM   10  H   UNL     1      41.067  -9.720  -2.041  1.00  0.00     0.162 HD
HETATM   11  O   UNL     1      43.673 -11.061  -0.835  1.00  0.00    -0.274 OA
BRANCH   9  12
HETATM   12  C   UNL     1      42.492 -10.592  -3.354  1.00  0.00     0.124 C 
BRANCH  12  13
HETATM   13  C   UNL     1      41.479 -11.452  -4.116  1.00  0.00     0.047 C 
BRANCH  13  14
HETATM   14  C   UNL     1      40.129 -11.535  -3.403  1.00  0.00     0.236 C 
BRANCH  14  15
HETATM   15  N   UNL     1      39.747 -12.981  -3.062  1.00  0.00    -0.071 N 
HETATM   16  H   UNL     1      39.786 -13.057  -2.037  1.00  0.00     0.279 HD
HETATM   17  C   UNL     1      38.339 -13.308  -3.502  1.00  0.00     0.235 C 
HETATM   18  C   UNL     1      37.894 -14.709  -3.099  1.00  0.00     0.028 C 
HETATM   19  C   UNL     1      38.506 -15.803  -3.965  1.00  0.00     0.002 C 
HETATM   20  C   UNL     1      39.869 -16.297  -3.496  1.00  0.00     0.002 C 
HETATM   21  C   UNL     1      40.803 -15.250  -2.898  1.00  0.00     0.028 C 
HETATM   22  C   UNL     1      40.813 -13.913  -3.624  1.00  0.00     0.235 C 
ENDBRANCH  14  15
ENDBRANCH  13  14
ENDBRANCH  12  13
ENDBRANCH   9  12
ENDBRANCH   7   8
ENDBRANCH   6   7
ENDBRANCH   5   6
ENDBRANCH   2   5
BRANCH   1  23
HETATM   23  C   UNL     1      40.325 -15.594   2.095  1.00  0.00     0.235 C 
BRANCH  23  24
HETATM   24  N   UNL     1      41.369 -16.289   2.822  1.00  0.00    -0.299 N 
HETATM   25  C   UNL     1      41.927 -15.716   3.950  1.00  0.00     0.214 A 
HETATM   26  N   UNL     1      42.822 -16.260   4.709  1.00  0.00    -0.235 NA
HETATM   27  C   UNL     1      43.218 -17.493   4.306  1.00  0.00     0.115 A 
HETATM   28  C   UNL     1      42.796 -18.167   3.178  1.00  0.00     0.075 A 
HETATM   29  S   UNL     1      44.340 -18.406   5.210  1.00  0.00    -0.073 SA
HETATM   30  C   UNL     1      41.801 -17.521   2.338  1.00  0.00     0.262 A 
HETATM   31  C   UNL     1      43.433 -19.442   3.034  1.00  0.00    -0.026 A 
HETATM   32  O   UNL     1      41.366 -18.029   1.306  1.00  0.00    -0.267 OA
HETATM   33  C   UNL     1      44.272 -19.697   4.104  1.00  0.00    -0.008 A 
HETATM   34  C   UNL     1      43.230 -20.440   1.934  1.00  0.00     0.041 C 
HETATM   35  C   UNL     1      45.082 -20.942   4.294  1.00  0.00     0.047 C 
HETATM   36  C   UNL     1      44.584 -22.054   3.357  1.00  0.00     0.005 C 
HETATM   37  C   UNL     1      44.319 -21.525   1.941  1.00  0.00     0.005 C 
ENDBRANCH  23  24
ENDBRANCH   1  23
TORSDOF 10
ENDMDL
MODEL 8
REMARK VINA RESULT:      -7.6      6.503     10.020
REMARK  10 active torsions:
REMARK  status: ('A' for Active; 'I' for Inactive)
REMARK    1  A    between atoms: N_2  and  C_3 
REMARK    2  A    between atoms: C_3  and  C_4 
REMARK       I    between atoms: C_4  and  N_5 
REMARK    3  A    between atoms: N_5  and  C_6 
REMARK    4  A    between atoms: C_6  and  C_7 
REMARK    5  A    between atoms: C_7  and  C_8 
REMARK    6  A    between atoms: C_8  and  C_9 
REMARK       I    between atoms: C_9  and  N_10 
REMARK    7  A    between atoms: N_10  and  C_11 
REMARK    8  A    between atoms: C_11  and  C_12 
REMARK    9  A    between atoms: C_12  and  C_13 
REMARK   10  A    between atoms: C_13  and  N_14 
ROOT
HETATM    1  C   UNL     1      41.642 -12.512   6.205  1.00  0.00     0.235 C 
HETATM    2  N   UNL     1      40.511 -13.308   6.184  1.00  0.00    -0.360 N 
HETATM    3  O   UNL     1      42.775 -12.966   6.076  1.00  0.00    -0.272 OA
HETATM    4  H   UNL     1      39.601 -12.893   6.341  1.00  0.00     0.162 HD
ENDROOT
BRANCH   2   5
HETATM    5  C   UNL     1      40.590 -14.743   6.006  1.00  0.00     0.123 C 
BRANCH   5   6
HETATM    6  C   UNL     1      41.218 -15.117   4.666  1.00  0.00     0.029 C 
BRANCH   6   7
HETATM    7  C   UNL     1      40.197 -15.013   3.539  1.00  0.00     0.104 C 
BRANCH   7   8
HETATM    8  C   UNL     1      40.613 -15.858   2.358  1.00  0.00     0.217 C 
HETATM    9  N   UNL     1      41.961 -15.832   2.075  1.00  0.00    -0.361 N 
HETATM   10  H   UNL     1      42.538 -15.158   2.570  1.00  0.00     0.162 HD
HETATM   11  O   UNL     1      39.822 -16.565   1.740  1.00  0.00    -0.274 OA
BRANCH   9  12
HETATM   12  C   UNL     1      42.506 -16.445   0.880  1.00  0.00     0.124 C 
BRANCH  12  13
HETATM   13  C   UNL     1      43.316 -17.714   1.157  1.00  0.00     0.047 C 
BRANCH  13  14
HETATM   14  C   UNL     1      43.533 -17.955   2.652  1.00  0.00     0.236 C 
BRANCH  14  15
HETATM   15  N   UNL     1      44.289 -19.262   2.920  1.00  0.00    -0.071 N 
HETATM   16  H   UNL     1      45.218 -19.152   2.492  1.00  0.00     0.279 HD
HETATM   17  C   UNL     1      44.482 -19.506   4.399  1.00  0.00     0.235 C 
HETATM   18  C   UNL     1      45.308 -20.751   4.699  1.00  0.00     0.028 C 
HETATM   19  C   UNL     1      44.531 -22.047   4.503  1.00  0.00     0.002 C 
HETATM   20  C   UNL     1      44.555 -22.594   3.082  1.00  0.00     0.002 C 
HETATM   21  C   UNL     1      44.529 -21.565   1.957  1.00  0.00     0.028 C 
HETATM   22  C   UNL     1      43.585 -20.394   2.183  1.00  0.00     0.235 C 
ENDBRANCH  14  15
ENDBRANCH  13  14
ENDBRANCH  12  13
ENDBRANCH   9  12
ENDBRANCH   7   8
ENDBRANCH   6   7
ENDBRANCH   5   6
ENDBRANCH   2   5
BRANCH   1  23
HETATM   23  C   UNL     1      41.333 -11.020   6.342  1.00  0.00     0.235 C 
BRANCH  23  24
HETATM   24  N   UNL     1      40.861 -10.700   7.675  1.00  0.00    -0.299 N 
HETATM   25  C   UNL     1      39.508 -10.548   7.913  1.00  0.00     0.214 A 
HETATM   26  N   UNL     1      38.965 -10.318   9.064  1.00  0.00    -0.235 NA
HETATM   27  C   UNL     1      39.852 -10.211  10.086  1.00  0.00     0.115 A 
HETATM   28  C   UNL     1      41.227 -10.283   9.995  1.00  0.00     0.075 A 
HETATM   29  S   UNL     1      39.331  -9.977  11.694  1.00  0.00    -0.073 SA
HETATM   30  C   UNL     1      41.805 -10.529   8.685  1.00  0.00     0.262 A 
HETATM   31  C   UNL     1      41.867 -10.106  11.264  1.00  0.00    -0.026 A 
HETATM   32  O   UNL     1      43.018 -10.599   8.492  1.00  0.00    -0.267 OA
HETATM   33  C   UNL     1      40.931  -9.964  12.273  1.00  0.00    -0.008 A 
HETATM   34  C   UNL     1      43.339 -10.112  11.548  1.00  0.00     0.041 C 
HETATM   35  C   UNL     1      41.243  -9.781  13.726  1.00  0.00     0.047 C 
HETATM   36  C   UNL     1      42.708 -10.145  14.010  1.00  0.00     0.005 C 
HETATM   37  C   UNL     1      43.653  -9.564  12.949  1.00  0.00     0.005 C 
ENDBRANCH  23  24
ENDBRANCH   1  23
TORSDOF 10
ENDMDL
MODEL 9
REMARK VINA RESULT:      -7.6      2.073      3.429
REMARK  10 active torsions:
REMARK  status: ('A' for Active; 'I' for Inactive)
REMARK    1  A    between atoms: N_2  and  C_3 
REMARK    2  A    between atoms: C_3  and  C_4 
REMARK       I    between atoms: C_4  and  N_5 
REMARK    3  A    between atoms: N_5  and  C_6 
REMARK    4  A    between atoms: C_6  and  C_7 
REMARK    5  A    between atoms: C_7  and  C_8 
REMARK    6  A    between atoms: C_8  and  C_9 
REMARK       I    between atoms: C_9  and  N_10 
REMARK    7  A    between atoms: N_10  and  C_11 
REMARK    8  A    between atoms: C_11  and  C_12 
REMARK    9  A    between atoms: C_12  and  C_13 
REMARK   10  A    between atoms: C_13  and  N_14 
ROOT
HETATM    1  C   UNL     1      41.218 -15.010   0.819  1.00  0.00     0.235 C 
HETATM    2  N   UNL     1      40.767 -15.665  -0.312  1.00  0.00    -0.360 N 
HETATM    3  O   UNL     1      41.960 -14.034   0.770  1.00  0.00    -0.272 OA
HETATM    4  H   UNL     1      40.193 -16.495  -0.218  1.00  0.00     0.162 HD
ENDROOT
BRANCH   2   5
HETATM    5  C   UNL     1      41.143 -15.238  -1.644  1.00  0.00     0.123 C 
BRANCH   5   6
HETATM    6  C   UNL     1      40.096 -14.317  -2.263  1.00  0.00     0.029 C 
BRANCH   6   7
HETATM    7  C   UNL     1      39.433 -14.978  -3.465  1.00  0.00     0.104 C 
BRANCH   7   8
HETATM    8  C   UNL     1      38.004 -14.509  -3.617  1.00  0.00     0.217 C 
HETATM    9  N   UNL     1      37.867 -13.211  -4.054  1.00  0.00    -0.361 N 
HETATM   10  H   UNL     1      38.702 -12.634  -4.102  1.00  0.00     0.162 HD
HETATM   11  O   UNL     1      37.043 -15.248  -3.429  1.00  0.00    -0.274 OA
BRANCH   9  12
HETATM   12  C   UNL     1      36.579 -12.546  -4.091  1.00  0.00     0.124 C 
BRANCH  12  13
HETATM   13  C   UNL     1      36.579 -11.170  -3.418  1.00  0.00     0.047 C 
BRANCH  13  14
HETATM   14  C   UNL     1      36.174 -11.241  -1.945  1.00  0.00     0.236 C 
BRANCH  14  15
HETATM   15  N   UNL     1      37.319 -11.745  -1.057  1.00  0.00    -0.071 N 
HETATM   16  H   UNL     1      37.649 -12.622  -1.481  1.00  0.00     0.279 HD
HETATM   17  C   UNL     1      38.477 -10.775  -1.030  1.00  0.00     0.235 C 
HETATM   18  C   UNL     1      39.669 -11.286  -0.230  1.00  0.00     0.028 C 
HETATM   19  C   UNL     1      39.458 -11.202   1.277  1.00  0.00     0.002 C 
HETATM   20  C   UNL     1      38.759 -12.409   1.889  1.00  0.00     0.002 C 
HETATM   21  C   UNL     1      37.669 -13.063   1.047  1.00  0.00     0.028 C 
HETATM   22  C   UNL     1      36.757 -12.090   0.315  1.00  0.00     0.235 C 
ENDBRANCH  14  15
ENDBRANCH  13  14
ENDBRANCH  12  13
ENDBRANCH   9  12
ENDBRANCH   7   8
ENDBRANCH   6   7
ENDBRANCH   5   6
ENDBRANCH   2   5
BRANCH   1  23
HETATM   23  C   UNL     1      40.653 -15.585   2.120  1.00  0.00     0.235 C 
BRANCH  23  24
HETATM   24  N   UNL     1      41.660 -16.335   2.846  1.00  0.00    -0.299 N 
HETATM   25  C   UNL     1      42.249 -15.792   3.972  1.00  0.00     0.214 A 
HETATM   26  N   UNL     1      43.115 -16.384   4.730  1.00  0.00    -0.235 NA
HETATM   27  C   UNL     1      43.443 -17.636   4.327  1.00  0.00     0.115 A 
HETATM   28  C   UNL     1      42.983 -18.287   3.200  1.00  0.00     0.075 A 
HETATM   29  S   UNL     1      44.515 -18.609   5.230  1.00  0.00    -0.073 SA
HETATM   30  C   UNL     1      42.023 -17.589   2.362  1.00  0.00     0.262 A 
HETATM   31  C   UNL     1      43.549 -19.595   3.057  1.00  0.00    -0.026 A 
HETATM   32  O   UNL     1      41.560 -18.074   1.330  1.00  0.00    -0.267 OA
HETATM   33  C   UNL     1      44.376 -19.895   4.125  1.00  0.00    -0.008 A 
HETATM   34  C   UNL     1      43.292 -20.581   1.957  1.00  0.00     0.041 C 
HETATM   35  C   UNL     1      45.117 -21.182   4.314  1.00  0.00     0.047 C 
HETATM   36  C   UNL     1      44.558 -22.265   3.379  1.00  0.00     0.005 C 
HETATM   37  C   UNL     1      44.319 -21.724   1.963  1.00  0.00     0.005 C 
ENDBRANCH  23  24
ENDBRANCH   1  23
TORSDOF 10
ENDMDL
MODEL 10
REMARK VINA RESULT:      -7.6      5.855     10.145
REMARK  10 active torsions:
REMARK  status: ('A' for Active; 'I' for Inactive)
REMARK    1  A    between atoms: N_2  and  C_3 
REMARK    2  A    between atoms: C_3  and  C_4 
REMARK       I    between atoms: C_4  and  N_5 
REMARK    3  A    between atoms: N_5  and  C_6 
REMARK    4  A    between atoms: C_6  and  C_7 
REMARK    5  A    between atoms: C_7  and  C_8 
REMARK    6  A    between atoms: C_8  and  C_9 
REMARK       I    between atoms: C_9  and  N_10 
REMARK    7  A    between atoms: N_10  and  C_11 
REMARK    8  A    between atoms: C_11  and  C_12 
REMARK    9  A    between atoms: C_12  and  C_13 
REMARK   10  A    between atoms: C_13  and  N_14 
ROOT
HETATM    1  C   UNL     1      41.621 -10.410  10.140  1.00  0.00     0.235 C 
HETATM    2  N   UNL     1      42.957 -10.729  10.304  1.00  0.00    -0.360 N 
HETATM    3  O   UNL     1      40.727 -10.943  10.791  1.00  0.00    -0.272 OA
HETATM    4  H   UNL     1      43.653 -10.294   9.711  1.00  0.00     0.162 HD
ENDROOT
BRANCH   2   5
HETATM    5  C   UNL     1      43.394 -11.722  11.263  1.00  0.00     0.123 C 
BRANCH   5   6
HETATM    6  C   UNL     1      44.561 -12.550  10.733  1.00  0.00     0.029 C 
BRANCH   6   7
HETATM    7  C   UNL     1      45.418 -11.731   9.775  1.00  0.00     0.104 C 
BRANCH   7   8
HETATM    8  C   UNL     1      45.679 -12.497   8.499  1.00  0.00     0.217 C 
HETATM    9  N   UNL     1      44.648 -13.318   8.098  1.00  0.00    -0.361 N 
HETATM   10  H   UNL     1      43.874 -13.458   8.740  1.00  0.00     0.162 HD
HETATM   11  O   UNL     1      46.701 -12.348   7.836  1.00  0.00    -0.274 OA
BRANCH   9  12
HETATM   12  C   UNL     1      44.794 -14.250   6.996  1.00  0.00     0.124 C 
BRANCH  12  13
HETATM   13  C   UNL     1      43.723 -15.344   6.973  1.00  0.00     0.047 C 
BRANCH  13  14
HETATM   14  C   UNL     1      44.314 -16.744   7.144  1.00  0.00     0.236 C 
BRANCH  14  15
HETATM   15  N   UNL     1      43.846 -17.704   6.043  1.00  0.00    -0.071 N 
HETATM   16  H   UNL     1      43.099 -18.276   6.456  1.00  0.00     0.279 HD
HETATM   17  C   UNL     1      43.267 -16.962   4.860  1.00  0.00     0.235 C 
HETATM   18  C   UNL     1      42.709 -17.887   3.786  1.00  0.00     0.028 C 
HETATM   19  C   UNL     1      43.794 -18.548   2.944  1.00  0.00     0.002 C 
HETATM   20  C   UNL     1      44.345 -19.845   3.520  1.00  0.00     0.002 C 
HETATM   21  C   UNL     1      44.474 -19.914   5.038  1.00  0.00     0.028 C 
HETATM   22  C   UNL     1      44.993 -18.643   5.694  1.00  0.00     0.235 C 
ENDBRANCH  14  15
ENDBRANCH  13  14
ENDBRANCH  12  13
ENDBRANCH   9  12
ENDBRANCH   7   8
ENDBRANCH   6   7
ENDBRANCH   5   6
ENDBRANCH   2   5
BRANCH   1  23
HETATM   23  C   UNL     1      41.382  -9.294   9.121  1.00  0.00     0.235 C 
BRANCH  23  24
HETATM   24  N   UNL     1      40.734  -9.800   7.927  1.00  0.00    -0.299 N 
HETATM   25  C   UNL     1      39.435  -9.428   7.635  1.00  0.00     0.214 A 
HETATM   26  N   UNL     1      38.773  -9.769   6.577  1.00  0.00    -0.235 NA
HETATM   27  C   UNL     1      39.459 -10.572   5.726  1.00  0.00     0.115 A 
HETATM   28  C   UNL     1      40.734 -11.068   5.907  1.00  0.00     0.075 A 
HETATM   29  S   UNL     1      38.786 -11.075   4.241  1.00  0.00    -0.073 SA
HETATM   30  C   UNL     1      41.445 -10.678   7.113  1.00  0.00     0.262 A 
HETATM   31  C   UNL     1      41.152 -11.906   4.824  1.00  0.00    -0.026 A 
HETATM   32  O   UNL     1      42.580 -11.073   7.378  1.00  0.00    -0.267 OA
HETATM   33  C   UNL     1      40.183 -11.957   3.837  1.00  0.00    -0.008 A 
HETATM   34  C   UNL     1      42.462 -12.622   4.682  1.00  0.00     0.041 C 
HETATM   35  C   UNL     1      40.291 -12.721   2.554  1.00  0.00     0.047 C 
HETATM   36  C   UNL     1      41.748 -13.133   2.296  1.00  0.00     0.005 C 
HETATM   37  C   UNL     1      42.417 -13.678   3.566  1.00  0.00     0.005 C 
ENDBRANCH  23  24
ENDBRANCH   1  23
TORSDOF 10
ENDMDL
