MODEL 1
REMARK VINA RESULT:     -10.1      0.000      0.000
REMARK  4 active torsions:
REMARK  status: ('A' for Active; 'I' for Inactive)
REMARK    1  A    between atoms: N_4  and  C_5 
REMARK    2  A    between atoms: C_16  and  N_17 
REMARK       I    between atoms: N_17  and  C_18 
REMARK    3  A    between atoms: C_18  and  C_19 
REMARK       I    between atoms: C_19  and  N_20 
REMARK    4  A    between atoms: N_20  and  C_21 
ROOT
HETATM    1  N   UNL     1      43.606 -12.158  10.024  1.00  0.00    -0.303 N 
HETATM    2  C   UNL     1      44.650 -11.669   9.261  1.00  0.00     0.315 C 
HETATM    3  O   UNL     1      45.283 -10.633   9.432  1.00  0.00    -0.262 OA
HETATM    4  H   UNL     1      43.443 -13.160   9.971  1.00  0.00     0.171 HD
ENDROOT
BRANCH   1   5
HETATM    5  C   UNL     1      43.047 -11.404  11.038  1.00  0.00     0.152 C 
HETATM    6  N   UNL     1      42.186 -10.317  10.885  1.00  0.00    -0.045 N 
HETATM    7  N   UNL     1      41.999  -9.666  12.082  1.00  0.00    -0.156 NA
HETATM    8  C   UNL     1      42.541 -10.484  12.992  1.00  0.00     0.055 C 
HETATM    9  C   UNL     1      42.477 -10.150  14.436  1.00  0.00     0.072 C 
HETATM   10  C   UNL     1      43.160 -11.605  12.396  1.00  0.00     0.079 C 
BRANCH   6  11
HETATM   11  C   UNL     1      41.377  -9.949   9.786  1.00  0.00     0.732 A 
HETATM   12  N   UNL     1      41.396 -10.535   8.630  1.00  0.00    -0.067 NA
HETATM   13  C   UNL     1      40.515 -10.064   7.685  1.00  0.00     0.065 A 
HETATM   14  C   UNL     1      39.614  -9.090   7.908  1.00  0.00     0.036 A 
HETATM   15  C   UNL     1      40.608 -10.745   6.337  1.00  0.00     0.060 C 
HETATM   16  C   UNL     1      38.650  -8.573   6.882  1.00  0.00     0.046 C 
HETATM   17  C   UNL     1      39.577  -8.478   9.259  1.00  0.00     0.268 A 
HETATM   18  C   UNL     1      38.995  -9.023   5.462  1.00  0.00     0.005 C 
HETATM   19  C   UNL     1      39.401 -10.491   5.433  1.00  0.00     0.006 C 
HETATM   20  O   UNL     1      38.746  -7.632   9.571  1.00  0.00    -0.267 OA
HETATM   21  N   UNL     1      40.521  -8.935  10.123  1.00  0.00    -0.152 N 
HETATM   22  H   UNL     1      40.532  -8.584  11.075  1.00  0.00     0.188 HD
ENDBRANCH   6  11
ENDBRANCH   1   5
BRANCH   2  23
HETATM   23  C   UNL     1      45.067 -12.630   8.130  1.00  0.00     0.310 C 
HETATM   24  N   UNL     1      43.995 -13.144   7.436  1.00  0.00    -0.348 N 
HETATM   25  H   UNL     1      43.091 -12.869   7.815  1.00  0.00     0.163 HD
HETATM   26  O   UNL     1      46.251 -12.869   7.946  1.00  0.00    -0.262 OA
BRANCH  24  27
HETATM   27  C   UNL     1      44.065 -14.298   6.541  1.00  0.00     0.084 C 
HETATM   28  C   UNL     1      43.997 -15.581   7.408  1.00  0.00     0.025 C 
HETATM   29  C   UNL     1      44.441 -16.854   6.675  1.00  0.00     0.002 C 
HETATM   30  C   UNL     1      43.285 -17.830   6.418  1.00  0.00     0.000 C 
HETATM   31  C   UNL     1      43.596 -18.851   5.311  1.00  0.00     0.000 C 
HETATM   32  C   UNL     1      42.875 -18.532   3.992  1.00  0.00     0.000 C 
HETATM   33  C   UNL     1      43.376 -17.253   3.318  1.00  0.00     0.000 C 
HETATM   34  C   UNL     1      42.284 -16.570   2.495  1.00  0.00     0.000 C 
HETATM   35  C   UNL     1      42.696 -15.191   1.969  1.00  0.00     0.000 C 
HETATM   36  C   UNL     1      42.469 -14.022   2.944  1.00  0.00     0.000 C 
HETATM   37  C   UNL     1      43.511 -13.884   4.064  1.00  0.00     0.002 C 
HETATM   38  C   UNL     1      42.963 -14.259   5.453  1.00  0.00     0.025 C 
ENDBRANCH  24  27
ENDBRANCH   2  23
TORSDOF 4
ENDMDL
MODEL 2
REMARK VINA RESULT:     -10.0      1.059      2.478
REMARK  4 active torsions:
REMARK  status: ('A' for Active; 'I' for Inactive)
REMARK    1  A    between atoms: N_4  and  C_5 
REMARK    2  A    between atoms: C_16  and  N_17 
REMARK       I    between atoms: N_17  and  C_18 
REMARK    3  A    between atoms: C_18  and  C_19 
REMARK       I    between atoms: C_19  and  N_20 
REMARK    4  A    between atoms: N_20  and  C_21 
ROOT
HETATM    1  N   UNL     1      43.505 -12.101   9.503  1.00  0.00    -0.303 N 
HETATM    2  C   UNL     1      44.643 -12.022   8.722  1.00  0.00     0.315 C 
HETATM    3  O   UNL     1      45.590 -11.253   8.853  1.00  0.00    -0.262 OA
HETATM    4  H   UNL     1      43.014 -12.991   9.489  1.00  0.00     0.171 HD
ENDROOT
BRANCH   1   5
HETATM    5  C   UNL     1      43.244 -11.166  10.485  1.00  0.00     0.152 C 
HETATM    6  N   UNL     1      42.608  -9.936  10.311  1.00  0.00    -0.045 N 
HETATM    7  N   UNL     1      42.711  -9.165  11.446  1.00  0.00    -0.156 NA
HETATM    8  C   UNL     1      43.188 -10.004  12.373  1.00  0.00     0.055 C 
HETATM    9  C   UNL     1      43.378  -9.547  13.772  1.00  0.00     0.072 C 
HETATM   10  C   UNL     1      43.486 -11.275  11.836  1.00  0.00     0.079 C 
BRANCH   6  11
HETATM   11  C   UNL     1      41.757  -9.494   9.273  1.00  0.00     0.732 A 
HETATM   12  N   UNL     1      42.020  -9.607   8.009  1.00  0.00    -0.067 NA
HETATM   13  C   UNL     1      41.061  -9.151   7.135  1.00  0.00     0.065 A 
HETATM   14  C   UNL     1      39.866  -8.659   7.512  1.00  0.00     0.036 A 
HETATM   15  C   UNL     1      41.433  -9.257   5.673  1.00  0.00     0.060 C 
HETATM   16  C   UNL     1      38.815  -8.161   6.565  1.00  0.00     0.046 C 
HETATM   17  C   UNL     1      39.571  -8.597   8.964  1.00  0.00     0.268 A 
HETATM   18  C   UNL     1      39.343  -7.957   5.144  1.00  0.00     0.005 C 
HETATM   19  C   UNL     1      40.244  -9.111   4.722  1.00  0.00     0.006 C 
HETATM   20  O   UNL     1      38.484  -8.226   9.396  1.00  0.00    -0.267 OA
HETATM   21  N   UNL     1      40.587  -8.993   9.775  1.00  0.00    -0.152 N 
HETATM   22  H   UNL     1      40.441  -9.007  10.779  1.00  0.00     0.188 HD
ENDBRANCH   6  11
ENDBRANCH   1   5
BRANCH   2  23
HETATM   23  C   UNL     1      44.699 -13.109   7.630  1.00  0.00     0.310 C 
HETATM   24  N   UNL     1      43.454 -13.495   7.189  1.00  0.00    -0.348 N 
HETATM   25  H   UNL     1      42.685 -13.058   7.694  1.00  0.00     0.163 HD
HETATM   26  O   UNL     1      45.781 -13.541   7.263  1.00  0.00    -0.262 OA
BRANCH  24  27
HETATM   27  C   UNL     1      43.191 -14.703   6.408  1.00  0.00     0.084 C 
HETATM   28  C   UNL     1      43.343 -14.346   4.908  1.00  0.00     0.025 C 
HETATM   29  C   UNL     1      42.731 -15.382   3.954  1.00  0.00     0.002 C 
HETATM   30  C   UNL     1      43.786 -16.144   3.142  1.00  0.00     0.000 C 
HETATM   31  C   UNL     1      43.256 -17.463   2.556  1.00  0.00     0.000 C 
HETATM   32  C   UNL     1      43.767 -18.697   3.317  1.00  0.00     0.000 C 
HETATM   33  C   UNL     1      43.220 -18.803   4.741  1.00  0.00     0.000 C 
HETATM   34  C   UNL     1      44.193 -19.516   5.680  1.00  0.00     0.000 C 
HETATM   35  C   UNL     1      43.761 -19.467   7.149  1.00  0.00     0.000 C 
HETATM   36  C   UNL     1      44.194 -18.206   7.919  1.00  0.00     0.000 C 
HETATM   37  C   UNL     1      43.353 -16.948   7.651  1.00  0.00     0.002 C 
HETATM   38  C   UNL     1      44.103 -15.881   6.833  1.00  0.00     0.025 C 
ENDBRANCH  24  27
ENDBRANCH   2  23
TORSDOF 4
ENDMDL
MODEL 3
REMARK VINA RESULT:      -9.8      2.334      5.644
REMARK  4 active torsions:
REMARK  status: ('A' for Active; 'I' for Inactive)
REMARK    1  A    between atoms: N_4  and  C_5 
REMARK    2  A    between atoms: C_16  and  N_17 
REMARK       I    between atoms: N_17  and  C_18 
REMARK    3  A    between atoms: C_18  and  C_19 
REMARK       I    between atoms: C_19  and  N_20 
REMARK    4  A    between atoms: N_20  and  C_21 
ROOT
HETATM    1  N   UNL     1      39.984 -12.864   6.112  1.00  0.00    -0.303 N 
HETATM    2  C   UNL     1      41.227 -13.289   5.679  1.00  0.00     0.315 C 
HETATM    3  O   UNL     1      42.189 -12.597   5.367  1.00  0.00    -0.262 OA
HETATM    4  H   UNL     1      39.446 -13.532   6.657  1.00  0.00     0.171 HD
ENDROOT
BRANCH   1   5
HETATM    5  C   UNL     1      39.641 -11.526   6.097  1.00  0.00     0.152 C 
HETATM    6  N   UNL     1      39.742 -10.633   7.165  1.00  0.00    -0.045 N 
HETATM    7  N   UNL     1      39.111  -9.445   6.873  1.00  0.00    -0.156 NA
HETATM    8  C   UNL     1      38.844  -9.526   5.564  1.00  0.00     0.055 C 
HETATM    9  C   UNL     1      38.212  -8.386   4.855  1.00  0.00     0.072 C 
HETATM   10  C   UNL     1      39.202 -10.782   5.025  1.00  0.00     0.079 C 
BRANCH   6  11
HETATM   11  C   UNL     1      40.525 -10.707   8.339  1.00  0.00     0.732 A 
HETATM   12  N   UNL     1      40.044 -10.755   9.541  1.00  0.00    -0.067 NA
HETATM   13  C   UNL     1      40.955 -10.859  10.567  1.00  0.00     0.065 A 
HETATM   14  C   UNL     1      42.285 -10.969  10.390  1.00  0.00     0.036 A 
HETATM   15  C   UNL     1      40.351 -10.861  11.953  1.00  0.00     0.060 C 
HETATM   16  C   UNL     1      43.284 -11.084  11.503  1.00  0.00     0.046 C 
HETATM   17  C   UNL     1      42.800 -10.970   8.999  1.00  0.00     0.268 A 
HETATM   18  C   UNL     1      42.692 -10.738  12.870  1.00  0.00     0.005 C 
HETATM   19  C   UNL     1      41.308 -11.351  13.042  1.00  0.00     0.006 C 
HETATM   20  O   UNL     1      43.988 -11.133   8.741  1.00  0.00    -0.267 OA
HETATM   21  N   UNL     1      41.858 -10.791   8.036  1.00  0.00    -0.152 N 
HETATM   22  H   UNL     1      42.136 -10.814   7.061  1.00  0.00     0.188 HD
ENDBRANCH   6  11
ENDBRANCH   1   5
BRANCH   2  23
HETATM   23  C   UNL     1      41.374 -14.824   5.695  1.00  0.00     0.310 C 
HETATM   24  N   UNL     1      42.392 -15.277   4.888  1.00  0.00    -0.348 N 
HETATM   25  H   UNL     1      42.849 -14.541   4.351  1.00  0.00     0.163 HD
HETATM   26  O   UNL     1      40.611 -15.497   6.371  1.00  0.00    -0.262 OA
BRANCH  24  27
HETATM   27  C   UNL     1      42.558 -16.666   4.465  1.00  0.00     0.084 C 
HETATM   28  C   UNL     1      42.911 -16.668   2.956  1.00  0.00     0.025 C 
HETATM   29  C   UNL     1      42.739 -18.034   2.276  1.00  0.00     0.002 C 
HETATM   30  C   UNL     1      44.072 -18.665   1.855  1.00  0.00     0.000 C 
HETATM   31  C   UNL     1      43.970 -20.180   1.615  1.00  0.00     0.000 C 
HETATM   32  C   UNL     1      44.588 -21.003   2.757  1.00  0.00     0.000 C 
HETATM   33  C   UNL     1      43.816 -20.892   4.074  1.00  0.00     0.000 C 
HETATM   34  C   UNL     1      44.725 -21.062   5.290  1.00  0.00     0.000 C 
HETATM   35  C   UNL     1      44.021 -20.764   6.618  1.00  0.00     0.000 C 
HETATM   36  C   UNL     1      44.007 -19.284   7.036  1.00  0.00     0.000 C 
HETATM   37  C   UNL     1      42.975 -18.403   6.315  1.00  0.00     0.002 C 
HETATM   38  C   UNL     1      43.611 -17.415   5.321  1.00  0.00     0.025 C 
ENDBRANCH  24  27
ENDBRANCH   2  23
TORSDOF 4
ENDMDL
MODEL 4
REMARK VINA RESULT:      -9.8      2.464      5.354
REMARK  4 active torsions:
REMARK  status: ('A' for Active; 'I' for Inactive)
REMARK    1  A    between atoms: N_4  and  C_5 
REMARK    2  A    between atoms: C_16  and  N_17 
REMARK       I    between atoms: N_17  and  C_18 
REMARK    3  A    between atoms: C_18  and  C_19 
REMARK       I    between atoms: C_19  and  N_20 
REMARK    4  A    between atoms: N_20  and  C_21 
ROOT
HETATM    1  N   UNL     1      41.692 -12.774   5.197  1.00  0.00    -0.303 N 
HETATM    2  C   UNL     1      41.364 -14.067   5.561  1.00  0.00     0.315 C 
HETATM    3  O   UNL     1      40.261 -14.500   5.878  1.00  0.00    -0.262 OA
HETATM    4  H   UNL     1      42.532 -12.667   4.633  1.00  0.00     0.171 HD
ENDROOT
BRANCH   1   5
HETATM    5  C   UNL     1      40.774 -11.747   5.297  1.00  0.00     0.152 C 
HETATM    6  N   UNL     1      40.484 -11.004   6.441  1.00  0.00    -0.045 N 
HETATM    7  N   UNL     1      39.371 -10.218   6.248  1.00  0.00    -0.156 NA
HETATM    8  C   UNL     1      39.134 -10.300   4.934  1.00  0.00     0.055 C 
HETATM    9  C   UNL     1      38.029  -9.521   4.320  1.00  0.00     0.072 C 
HETATM   10  C   UNL     1      40.012 -11.199   4.290  1.00  0.00     0.079 C 
BRANCH   6  11
HETATM   11  C   UNL     1      41.248 -10.810   7.615  1.00  0.00     0.732 A 
HETATM   12  N   UNL     1      42.444 -11.274   7.798  1.00  0.00    -0.067 NA
HETATM   13  C   UNL     1      43.053 -10.959   8.991  1.00  0.00     0.065 A 
HETATM   14  C   UNL     1      42.508 -10.166   9.932  1.00  0.00     0.036 A 
HETATM   15  C   UNL     1      44.426 -11.564   9.180  1.00  0.00     0.060 C 
HETATM   16  C   UNL     1      43.166  -9.818  11.234  1.00  0.00     0.046 C 
HETATM   17  C   UNL     1      41.162  -9.603   9.668  1.00  0.00     0.268 A 
HETATM   18  C   UNL     1      44.373 -10.704  11.546  1.00  0.00     0.005 C 
HETATM   19  C   UNL     1      45.234 -10.917  10.307  1.00  0.00     0.006 C 
HETATM   20  O   UNL     1      40.619  -8.818  10.438  1.00  0.00    -0.267 OA
HETATM   21  N   UNL     1      40.586 -10.010   8.507  1.00  0.00    -0.152 N 
HETATM   22  H   UNL     1      39.679  -9.638   8.247  1.00  0.00     0.188 HD
ENDBRANCH   6  11
ENDBRANCH   1   5
BRANCH   2  23
HETATM   23  C   UNL     1      42.555 -15.041   5.455  1.00  0.00     0.310 C 
HETATM   24  N   UNL     1      42.221 -16.239   4.866  1.00  0.00    -0.348 N 
HETATM   25  H   UNL     1      41.229 -16.330   4.653  1.00  0.00     0.163 HD
HETATM   26  O   UNL     1      43.647 -14.709   5.889  1.00  0.00    -0.262 OA
BRANCH  24  27
HETATM   27  C   UNL     1      43.046 -17.445   4.919  1.00  0.00     0.084 C 
HETATM   28  C   UNL     1      42.942 -18.033   6.349  1.00  0.00     0.025 C 
HETATM   29  C   UNL     1      44.032 -19.062   6.682  1.00  0.00     0.002 C 
HETATM   30  C   UNL     1      43.484 -20.487   6.830  1.00  0.00     0.000 C 
HETATM   31  C   UNL     1      44.572 -21.566   6.695  1.00  0.00     0.000 C 
HETATM   32  C   UNL     1      44.521 -22.291   5.342  1.00  0.00     0.000 C 
HETATM   33  C   UNL     1      44.890 -21.396   4.157  1.00  0.00     0.000 C 
HETATM   34  C   UNL     1      44.188 -21.827   2.870  1.00  0.00     0.000 C 
HETATM   35  C   UNL     1      44.383 -20.839   1.715  1.00  0.00     0.000 C 
HETATM   36  C   UNL     1      43.386 -19.667   1.678  1.00  0.00     0.000 C 
HETATM   37  C   UNL     1      43.666 -18.530   2.671  1.00  0.00     0.002 C 
HETATM   38  C   UNL     1      42.650 -18.470   3.826  1.00  0.00     0.025 C 
ENDBRANCH  24  27
ENDBRANCH   2  23
TORSDOF 4
ENDMDL
MODEL 5
REMARK VINA RESULT:      -9.7      2.305      4.863
REMARK  4 active torsions:
REMARK  status: ('A' for Active; 'I' for Inactive)
REMARK    1  A    between atoms: N_4  and  C_5 
REMARK    2  A    between atoms: C_16  and  N_17 
REMARK       I    between atoms: N_17  and  C_18 
REMARK    3  A    between atoms: C_18  and  C_19 
REMARK       I    between atoms: C_19  and  N_20 
REMARK    4  A    between atoms: N_20  and  C_21 
ROOT
HETATM    1  N   UNL     1      40.787 -11.109   5.607  1.00  0.00    -0.303 N 
HETATM    2  C   UNL     1      40.393 -12.432   5.703  1.00  0.00     0.315 C 
HETATM    3  O   UNL     1      39.409 -12.881   6.280  1.00  0.00    -0.262 OA
HETATM    4  H   UNL     1      41.390 -10.877   4.822  1.00  0.00     0.171 HD
ENDROOT
BRANCH   1   5
HETATM    5  C   UNL     1      40.141 -10.117   6.320  1.00  0.00     0.152 C 
HETATM    6  N   UNL     1      40.172  -9.935   7.702  1.00  0.00    -0.045 N 
HETATM    7  N   UNL     1      39.248  -8.995   8.095  1.00  0.00    -0.156 NA
HETATM    8  C   UNL     1      38.834  -8.441   6.949  1.00  0.00     0.055 C 
HETATM    9  C   UNL     1      37.862  -7.319   6.966  1.00  0.00     0.072 C 
HETATM   10  C   UNL     1      39.400  -9.070   5.819  1.00  0.00     0.079 C 
BRANCH   6  11
HETATM   11  C   UNL     1      41.102 -10.404   8.658  1.00  0.00     0.732 A 
HETATM   12  N   UNL     1      42.367 -10.570   8.432  1.00  0.00    -0.067 NA
HETATM   13  C   UNL     1      43.132 -11.003   9.491  1.00  0.00     0.065 A 
HETATM   14  C   UNL     1      42.658 -11.202  10.735  1.00  0.00     0.036 A 
HETATM   15  C   UNL     1      44.591 -11.231   9.167  1.00  0.00     0.060 C 
HETATM   16  C   UNL     1      43.486 -11.673  11.894  1.00  0.00     0.046 C 
HETATM   17  C   UNL     1      41.217 -10.947  10.976  1.00  0.00     0.268 A 
HETATM   18  C   UNL     1      44.849 -12.220  11.467  1.00  0.00     0.005 C 
HETATM   19  C   UNL     1      45.488 -11.338  10.402  1.00  0.00     0.006 C 
HETATM   20  O   UNL     1      40.714 -11.038  12.090  1.00  0.00    -0.267 OA
HETATM   21  N   UNL     1      40.504 -10.593   9.875  1.00  0.00    -0.152 N 
HETATM   22  H   UNL     1      39.519 -10.372   9.973  1.00  0.00     0.188 HD
ENDBRANCH   6  11
ENDBRANCH   1   5
BRANCH   2  23
HETATM   23  C   UNL     1      41.298 -13.386   4.899  1.00  0.00     0.310 C 
HETATM   24  N   UNL     1      41.269 -14.680   5.367  1.00  0.00    -0.348 N 
HETATM   25  H   UNL     1      40.713 -14.798   6.212  1.00  0.00     0.163 HD
HETATM   26  O   UNL     1      41.953 -12.953   3.963  1.00  0.00    -0.262 OA
BRANCH  24  27
HETATM   27  C   UNL     1      42.244 -15.710   5.014  1.00  0.00     0.084 C 
HETATM   28  C   UNL     1      42.408 -16.653   6.233  1.00  0.00     0.025 C 
HETATM   29  C   UNL     1      43.658 -17.542   6.171  1.00  0.00     0.002 C 
HETATM   30  C   UNL     1      43.326 -19.027   5.976  1.00  0.00     0.000 C 
HETATM   31  C   UNL     1      44.518 -19.846   5.452  1.00  0.00     0.000 C 
HETATM   32  C   UNL     1      44.384 -20.200   3.963  1.00  0.00     0.000 C 
HETATM   33  C   UNL     1      44.472 -18.985   3.037  1.00  0.00     0.000 C 
HETATM   34  C   UNL     1      43.669 -19.180   1.753  1.00  0.00     0.000 C 
HETATM   35  C   UNL     1      43.578 -17.912   0.897  1.00  0.00     0.000 C 
HETATM   36  C   UNL     1      42.440 -16.947   1.273  1.00  0.00     0.000 C 
HETATM   37  C   UNL     1      42.698 -16.070   2.508  1.00  0.00     0.002 C 
HETATM   38  C   UNL     1      41.845 -16.472   3.725  1.00  0.00     0.025 C 
ENDBRANCH  24  27
ENDBRANCH   2  23
TORSDOF 4
ENDMDL
MODEL 6
REMARK VINA RESULT:      -9.6      2.296      5.324
REMARK  4 active torsions:
REMARK  status: ('A' for Active; 'I' for Inactive)
REMARK    1  A    between atoms: N_4  and  C_5 
REMARK    2  A    between atoms: C_16  and  N_17 
REMARK       I    between atoms: N_17  and  C_18 
REMARK    3  A    between atoms: C_18  and  C_19 
REMARK       I    between atoms: C_19  and  N_20 
REMARK    4  A    between atoms: N_20  and  C_21 
ROOT
HETATM    1  N   UNL     1      40.352 -11.142   5.605  1.00  0.00    -0.303 N 
HETATM    2  C   UNL     1      39.833 -12.417   5.735  1.00  0.00     0.315 C 
HETATM    3  O   UNL     1      38.728 -12.738   6.159  1.00  0.00    -0.262 OA
HETATM    4  H   UNL     1      41.099 -11.030   4.925  1.00  0.00     0.171 HD
ENDROOT
BRANCH   1   5
HETATM    5  C   UNL     1      39.681 -10.043   6.105  1.00  0.00     0.152 C 
HETATM    6  N   UNL     1      39.760  -9.546   7.406  1.00  0.00    -0.045 N 
HETATM    7  N   UNL     1      38.801  -8.583   7.623  1.00  0.00    -0.156 NA
HETATM    8  C   UNL     1      38.309  -8.327   6.406  1.00  0.00     0.055 C 
HETATM    9  C   UNL     1      37.278  -7.276   6.218  1.00  0.00     0.072 C 
HETATM   10  C   UNL     1      38.863  -9.174   5.420  1.00  0.00     0.079 C 
BRANCH   6  11
HETATM   11  C   UNL     1      40.754  -9.739   8.393  1.00  0.00     0.732 A 
HETATM   12  N   UNL     1      41.827 -10.446   8.225  1.00  0.00    -0.067 NA
HETATM   13  C   UNL     1      42.703 -10.497   9.285  1.00  0.00     0.065 A 
HETATM   14  C   UNL     1      42.538  -9.823  10.438  1.00  0.00     0.036 A 
HETATM   15  C   UNL     1      43.916 -11.373   9.062  1.00  0.00     0.060 C 
HETATM   16  C   UNL     1      43.490  -9.873  11.596  1.00  0.00     0.046 C 
HETATM   17  C   UNL     1      41.328  -8.977  10.576  1.00  0.00     0.268 A 
HETATM   18  C   UNL     1      44.503 -11.014  11.483  1.00  0.00     0.005 C 
HETATM   19  C   UNL     1      45.046 -11.129  10.064  1.00  0.00     0.006 C 
HETATM   20  O   UNL     1      41.129  -8.276  11.563  1.00  0.00    -0.267 OA
HETATM   21  N   UNL     1      40.468  -9.026   9.526  1.00  0.00    -0.152 N 
HETATM   22  H   UNL     1      39.635  -8.447   9.540  1.00  0.00     0.188 HD
ENDBRANCH   6  11
ENDBRANCH   1   5
BRANCH   2  23
HETATM   23  C   UNL     1      40.777 -13.507   5.187  1.00  0.00     0.310 C 
HETATM   24  N   UNL     1      40.182 -14.745   5.107  1.00  0.00    -0.348 N 
HETATM   25  H   UNL     1      39.236 -14.772   5.485  1.00  0.00     0.163 HD
HETATM   26  O   UNL     1      41.926 -13.218   4.892  1.00  0.00    -0.262 OA
BRANCH  24  27
HETATM   27  C   UNL     1      40.908 -16.002   4.932  1.00  0.00     0.084 C 
HETATM   28  C   UNL     1      41.267 -16.141   3.431  1.00  0.00     0.025 C 
HETATM   29  C   UNL     1      41.681 -17.561   3.017  1.00  0.00     0.002 C 
HETATM   30  C   UNL     1      43.166 -17.667   2.645  1.00  0.00     0.000 C 
HETATM   31  C   UNL     1      43.694 -19.110   2.687  1.00  0.00     0.000 C 
HETATM   32  C   UNL     1      44.564 -19.387   3.923  1.00  0.00     0.000 C 
HETATM   33  C   UNL     1      43.782 -19.355   5.238  1.00  0.00     0.000 C 
HETATM   34  C   UNL     1      44.652 -18.915   6.414  1.00  0.00     0.000 C 
HETATM   35  C   UNL     1      43.855 -18.686   7.703  1.00  0.00     0.000 C 
HETATM   36  C   UNL     1      43.231 -17.287   7.849  1.00  0.00     0.000 C 
HETATM   37  C   UNL     1      41.949 -17.048   7.038  1.00  0.00     0.002 C 
HETATM   38  C   UNL     1      42.152 -16.090   5.851  1.00  0.00     0.025 C 
ENDBRANCH  24  27
ENDBRANCH   2  23
TORSDOF 4
ENDMDL
MODEL 7
REMARK VINA RESULT:      -9.4      5.233      9.618
REMARK  4 active torsions:
REMARK  status: ('A' for Active; 'I' for Inactive)
REMARK    1  A    between atoms: N_4  and  C_5 
REMARK    2  A    between atoms: C_16  and  N_17 
REMARK       I    between atoms: N_17  and  C_18 
REMARK    3  A    between atoms: C_18  and  C_19 
REMARK       I    between atoms: C_19  and  N_20 
REMARK    4  A    between atoms: N_20  and  C_21 
ROOT
HETATM    1  N   UNL     1      42.584 -15.071   3.694  1.00  0.00    -0.303 N 
HETATM    2  C   UNL     1      41.235 -15.371   3.660  1.00  0.00     0.315 C 
HETATM    3  O   UNL     1      40.470 -15.496   4.610  1.00  0.00    -0.262 OA
HETATM    4  H   UNL     1      42.973 -14.658   2.850  1.00  0.00     0.171 HD
ENDROOT
BRANCH   1   5
HETATM    5  C   UNL     1      43.276 -15.020   4.889  1.00  0.00     0.152 C 
HETATM    6  N   UNL     1      43.668 -16.109   5.667  1.00  0.00    -0.045 N 
HETATM    7  N   UNL     1      44.137 -15.694   6.892  1.00  0.00    -0.156 NA
HETATM    8  C   UNL     1      44.256 -14.367   6.768  1.00  0.00     0.055 C 
HETATM    9  C   UNL     1      44.805 -13.554   7.882  1.00  0.00     0.072 C 
HETATM   10  C   UNL     1      43.781 -13.906   5.520  1.00  0.00     0.079 C 
BRANCH   6  11
HETATM   11  C   UNL     1      43.828 -17.468   5.311  1.00  0.00     0.732 A 
HETATM   12  N   UNL     1      44.007 -17.894   4.100  1.00  0.00    -0.067 NA
HETATM   13  C   UNL     1      44.178 -19.250   3.942  1.00  0.00     0.065 A 
HETATM   14  C   UNL     1      44.227 -20.130   4.959  1.00  0.00     0.036 A 
HETATM   15  C   UNL     1      44.333 -19.705   2.508  1.00  0.00     0.060 C 
HETATM   16  C   UNL     1      44.415 -21.609   4.794  1.00  0.00     0.046 C 
HETATM   17  C   UNL     1      44.078 -19.604   6.337  1.00  0.00     0.268 A 
HETATM   18  C   UNL     1      44.220 -22.075   3.350  1.00  0.00     0.005 C 
HETATM   19  C   UNL     1      44.892 -21.122   2.369  1.00  0.00     0.006 C 
HETATM   20  O   UNL     1      44.176 -20.323   7.326  1.00  0.00    -0.267 OA
HETATM   21  N   UNL     1      43.838 -18.269   6.421  1.00  0.00    -0.152 N 
HETATM   22  H   UNL     1      43.759 -17.837   7.335  1.00  0.00     0.188 HD
ENDBRANCH   6  11
ENDBRANCH   1   5
BRANCH   2  23
HETATM   23  C   UNL     1      40.677 -15.463   2.225  1.00  0.00     0.310 C 
HETATM   24  N   UNL     1      41.115 -14.445   1.410  1.00  0.00    -0.348 N 
HETATM   25  H   UNL     1      41.683 -13.749   1.890  1.00  0.00     0.163 HD
HETATM   26  O   UNL     1      39.916 -16.372   1.931  1.00  0.00    -0.262 OA
BRANCH  24  27
HETATM   27  C   UNL     1      40.516 -14.101   0.121  1.00  0.00     0.084 C 
HETATM   28  C   UNL     1      39.009 -13.823   0.354  1.00  0.00     0.025 C 
HETATM   29  C   UNL     1      38.168 -13.828  -0.931  1.00  0.00     0.002 C 
HETATM   30  C   UNL     1      37.632 -12.439  -1.301  1.00  0.00     0.000 C 
HETATM   31  C   UNL     1      37.207 -12.332  -2.775  1.00  0.00     0.000 C 
HETATM   32  C   UNL     1      38.218 -11.549  -3.627  1.00  0.00     0.000 C 
HETATM   33  C   UNL     1      39.560 -12.265  -3.792  1.00  0.00     0.000 C 
HETATM   34  C   UNL     1      40.718 -11.285  -3.969  1.00  0.00     0.000 C 
HETATM   35  C   UNL     1      42.093 -11.962  -3.942  1.00  0.00     0.000 C 
HETATM   36  C   UNL     1      42.694 -12.169  -2.540  1.00  0.00     0.000 C 
HETATM   37  C   UNL     1      42.120 -13.350  -1.744  1.00  0.00     0.002 C 
HETATM   38  C   UNL     1      41.240 -12.912  -0.559  1.00  0.00     0.025 C 
ENDBRANCH  24  27
ENDBRANCH   2  23
TORSDOF 4
ENDMDL
MODEL 8
REMARK VINA RESULT:      -9.4      3.319      9.847
REMARK  4 active torsions:
REMARK  status: ('A' for Active; 'I' for Inactive)
REMARK    1  A    between atoms: N_4  and  C_5 
REMARK    2  A    between atoms: C_16  and  N_17 
REMARK       I    between atoms: N_17  and  C_18 
REMARK    3  A    between atoms: C_18  and  C_19 
REMARK       I    between atoms: C_19  and  N_20 
REMARK    4  A    between atoms: N_20  and  C_21 
ROOT
HETATM    1  N   UNL     1      40.795 -12.661   5.071  1.00  0.00    -0.303 N 
HETATM    2  C   UNL     1      39.932 -12.305   6.091  1.00  0.00     0.315 C 
HETATM    3  O   UNL     1      38.766 -12.653   6.241  1.00  0.00    -0.262 OA
HETATM    4  H   UNL     1      41.788 -12.591   5.279  1.00  0.00     0.171 HD
ENDROOT
BRANCH   1   5
HETATM    5  C   UNL     1      40.353 -13.377   3.975  1.00  0.00     0.152 C 
HETATM    6  N   UNL     1      40.864 -14.591   3.517  1.00  0.00    -0.045 N 
HETATM    7  N   UNL     1      40.341 -14.911   2.285  1.00  0.00    -0.156 NA
HETATM    8  C   UNL     1      39.350 -14.030   2.108  1.00  0.00     0.055 C 
HETATM    9  C   UNL     1      38.492 -14.097   0.899  1.00  0.00     0.072 C 
HETATM   10  C   UNL     1      39.284 -13.087   3.158  1.00  0.00     0.079 C 
BRANCH   6  11
HETATM   11  C   UNL     1      41.632 -15.565   4.195  1.00  0.00     0.732 A 
HETATM   12  N   UNL     1      42.006 -15.476   5.432  1.00  0.00    -0.067 NA
HETATM   13  C   UNL     1      42.722 -16.536   5.939  1.00  0.00     0.065 A 
HETATM   14  C   UNL     1      42.999 -17.659   5.252  1.00  0.00     0.036 A 
HETATM   15  C   UNL     1      43.180 -16.364   7.370  1.00  0.00     0.060 C 
HETATM   16  C   UNL     1      43.778 -18.819   5.798  1.00  0.00     0.046 C 
HETATM   17  C   UNL     1      42.507 -17.756   3.856  1.00  0.00     0.268 A 
HETATM   18  C   UNL     1      44.513 -18.482   7.097  1.00  0.00     0.005 C 
HETATM   19  C   UNL     1      43.630 -17.667   8.033  1.00  0.00     0.006 C 
HETATM   20  O   UNL     1      42.654 -18.768   3.179  1.00  0.00    -0.267 OA
HETATM   21  N   UNL     1      41.871 -16.649   3.392  1.00  0.00    -0.152 N 
HETATM   22  H   UNL     1      41.479 -16.658   2.457  1.00  0.00     0.188 HD
ENDBRANCH   6  11
ENDBRANCH   1   5
BRANCH   2  23
HETATM   23  C   UNL     1      40.606 -11.437   7.172  1.00  0.00     0.310 C 
HETATM   24  N   UNL     1      39.920 -11.431   8.364  1.00  0.00    -0.348 N 
HETATM   25  H   UNL     1      39.039 -11.941   8.334  1.00  0.00     0.163 HD
HETATM   26  O   UNL     1      41.636 -10.835   6.907  1.00  0.00    -0.262 OA
BRANCH  24  27
HETATM   27  C   UNL     1      40.142 -10.468   9.442  1.00  0.00     0.084 C 
HETATM   28  C   UNL     1      38.758  -9.976   9.937  1.00  0.00     0.025 C 
HETATM   29  C   UNL     1      38.815  -8.697  10.783  1.00  0.00     0.002 C 
HETATM   30  C   UNL     1      38.457  -8.937  12.255  1.00  0.00     0.000 C 
HETATM   31  C   UNL     1      38.950  -7.815  13.184  1.00  0.00     0.000 C 
HETATM   32  C   UNL     1      40.184  -8.224  14.003  1.00  0.00     0.000 C 
HETATM   33  C   UNL     1      41.439  -8.432  13.152  1.00  0.00     0.000 C 
HETATM   34  C   UNL     1      42.384  -9.465  13.762  1.00  0.00     0.000 C 
HETATM   35  C   UNL     1      43.551  -9.836  12.841  1.00  0.00     0.000 C 
HETATM   36  C   UNL     1      43.252 -10.949  11.820  1.00  0.00     0.000 C 
HETATM   37  C   UNL     1      42.444 -10.515  10.588  1.00  0.00     0.002 C 
HETATM   38  C   UNL     1      41.004 -11.060  10.585  1.00  0.00     0.025 C 
ENDBRANCH  24  27
ENDBRANCH   2  23
TORSDOF 4
ENDMDL
MODEL 9
REMARK VINA RESULT:      -9.4      2.122      4.937
REMARK  4 active torsions:
REMARK  status: ('A' for Active; 'I' for Inactive)
REMARK    1  A    between atoms: N_4  and  C_5 
REMARK    2  A    between atoms: C_16  and  N_17 
REMARK       I    between atoms: N_17  and  C_18 
REMARK    3  A    between atoms: C_18  and  C_19 
REMARK       I    between atoms: C_19  and  N_20 
REMARK    4  A    between atoms: N_20  and  C_21 
ROOT
HETATM    1  N   UNL     1      40.089 -12.315   6.327  1.00  0.00    -0.303 N 
HETATM    2  C   UNL     1      41.323 -12.559   5.754  1.00  0.00     0.315 C 
HETATM    3  O   UNL     1      42.168 -11.738   5.415  1.00  0.00    -0.262 OA
HETATM    4  H   UNL     1      39.685 -13.079   6.863  1.00  0.00     0.171 HD
ENDROOT
BRANCH   1   5
HETATM    5  C   UNL     1      39.599 -11.029   6.451  1.00  0.00     0.152 C 
HETATM    6  N   UNL     1      39.652 -10.229   7.592  1.00  0.00    -0.045 N 
HETATM    7  N   UNL     1      38.880  -9.101   7.436  1.00  0.00    -0.156 NA
HETATM    8  C   UNL     1      38.559  -9.097   6.137  1.00  0.00     0.055 C 
HETATM    9  C   UNL     1      37.769  -7.979   5.562  1.00  0.00     0.072 C 
HETATM   10  C   UNL     1      39.027 -10.250   5.471  1.00  0.00     0.079 C 
BRANCH   6  11
HETATM   11  C   UNL     1      40.497 -10.314   8.722  1.00  0.00     0.732 A 
HETATM   12  N   UNL     1      40.080 -10.364   9.948  1.00  0.00    -0.067 NA
HETATM   13  C   UNL     1      41.043 -10.480  10.923  1.00  0.00     0.065 A 
HETATM   14  C   UNL     1      42.361 -10.601  10.675  1.00  0.00     0.036 A 
HETATM   15  C   UNL     1      40.514 -10.483  12.340  1.00  0.00     0.060 C 
HETATM   16  C   UNL     1      43.416 -10.729  11.733  1.00  0.00     0.046 C 
HETATM   17  C   UNL     1      42.801 -10.600   9.259  1.00  0.00     0.268 A 
HETATM   18  C   UNL     1      42.901 -10.383  13.131  1.00  0.00     0.005 C 
HETATM   19  C   UNL     1      41.522 -10.985  13.374  1.00  0.00     0.006 C 
HETATM   20  O   UNL     1      43.972 -10.772   8.938  1.00  0.00    -0.267 OA
HETATM   21  N   UNL     1      41.810 -10.409   8.349  1.00  0.00    -0.152 N 
HETATM   22  H   UNL     1      42.036 -10.430   7.360  1.00  0.00     0.188 HD
ENDBRANCH   6  11
ENDBRANCH   1   5
BRANCH   2  23
HETATM   23  C   UNL     1      41.642 -14.063   5.633  1.00  0.00     0.310 C 
HETATM   24  N   UNL     1      42.991 -14.325   5.564  1.00  0.00    -0.348 N 
HETATM   25  H   UNL     1      43.571 -13.489   5.534  1.00  0.00     0.163 HD
HETATM   26  O   UNL     1      40.728 -14.873   5.593  1.00  0.00    -0.262 OA
BRANCH  24  27
HETATM   27  C   UNL     1      43.565 -15.599   5.135  1.00  0.00     0.084 C 
HETATM   28  C   UNL     1      43.584 -16.552   6.357  1.00  0.00     0.025 C 
HETATM   29  C   UNL     1      44.495 -17.775   6.182  1.00  0.00     0.002 C 
HETATM   30  C   UNL     1      43.716 -19.092   6.072  1.00  0.00     0.000 C 
HETATM   31  C   UNL     1      44.539 -20.227   5.443  1.00  0.00     0.000 C 
HETATM   32  C   UNL     1      44.131 -20.520   3.991  1.00  0.00     0.000 C 
HETATM   33  C   UNL     1      44.468 -19.384   3.023  1.00  0.00     0.000 C 
HETATM   34  C   UNL     1      43.497 -19.324   1.845  1.00  0.00     0.000 C 
HETATM   35  C   UNL     1      43.688 -18.084   0.965  1.00  0.00     0.000 C 
HETATM   36  C   UNL     1      42.942 -16.823   1.437  1.00  0.00     0.000 C 
HETATM   37  C   UNL     1      43.592 -16.069   2.607  1.00  0.00     0.002 C 
HETATM   38  C   UNL     1      42.808 -16.202   3.924  1.00  0.00     0.025 C 
ENDBRANCH  24  27
ENDBRANCH   2  23
TORSDOF 4
ENDMDL
MODEL 10
REMARK VINA RESULT:      -9.3      6.423      9.966
REMARK  4 active torsions:
REMARK  status: ('A' for Active; 'I' for Inactive)
REMARK    1  A    between atoms: N_4  and  C_5 
REMARK    2  A    between atoms: C_16  and  N_17 
REMARK       I    between atoms: N_17  and  C_18 
REMARK    3  A    between atoms: C_18  and  C_19 
REMARK       I    between atoms: C_19  and  N_20 
REMARK    4  A    between atoms: N_20  and  C_21 
ROOT
HETATM    1  N   UNL     1      42.066 -12.721   0.559  1.00  0.00    -0.303 N 
HETATM    2  C   UNL     1      40.931 -12.885   1.330  1.00  0.00     0.315 C 
HETATM    3  O   UNL     1      39.870 -12.276   1.243  1.00  0.00    -0.262 OA
HETATM    4  H   UNL     1      42.697 -13.517   0.515  1.00  0.00     0.171 HD
ENDROOT
BRANCH   1   5
HETATM    5  C   UNL     1      42.169 -11.687  -0.353  1.00  0.00     0.152 C 
HETATM    6  N   UNL     1      41.675 -11.680  -1.657  1.00  0.00    -0.045 N 
HETATM    7  N   UNL     1      42.142 -10.589  -2.353  1.00  0.00    -0.156 NA
HETATM    8  C   UNL     1      42.712  -9.820  -1.418  1.00  0.00     0.055 C 
HETATM    9  C   UNL     1      43.284  -8.499  -1.780  1.00  0.00     0.072 C 
HETATM   10  C   UNL     1      42.707 -10.437  -0.148  1.00  0.00     0.079 C 
BRANCH   6  11
HETATM   11  C   UNL     1      40.668 -12.475  -2.250  1.00  0.00     0.732 A 
HETATM   12  N   UNL     1      39.468 -12.063  -2.514  1.00  0.00    -0.067 NA
HETATM   13  C   UNL     1      38.626 -12.965  -3.125  1.00  0.00     0.065 A 
HETATM   14  C   UNL     1      38.991 -14.203  -3.506  1.00  0.00     0.036 A 
HETATM   15  C   UNL     1      37.223 -12.457  -3.368  1.00  0.00     0.060 C 
HETATM   16  C   UNL     1      38.080 -15.190  -4.173  1.00  0.00     0.046 C 
HETATM   17  C   UNL     1      40.389 -14.624  -3.242  1.00  0.00     0.268 A 
HETATM   18  C   UNL     1      36.606 -14.788  -4.090  1.00  0.00     0.005 C 
HETATM   19  C   UNL     1      36.426 -13.300  -4.365  1.00  0.00     0.006 C 
HETATM   20  O   UNL     1      40.827 -15.707  -3.614  1.00  0.00    -0.267 OA
HETATM   21  N   UNL     1      41.146 -13.716  -2.572  1.00  0.00    -0.152 N 
HETATM   22  H   UNL     1      42.121 -13.926  -2.387  1.00  0.00     0.188 HD
ENDBRANCH   6  11
ENDBRANCH   1   5
BRANCH   2  23
HETATM   23  C   UNL     1      41.056 -14.042   2.342  1.00  0.00     0.310 C 
HETATM   24  N   UNL     1      42.239 -14.735   2.226  1.00  0.00    -0.348 N 
HETATM   25  H   UNL     1      42.822 -14.426   1.450  1.00  0.00     0.163 HD
HETATM   26  O   UNL     1      40.142 -14.263   3.122  1.00  0.00    -0.262 OA
BRANCH  24  27
HETATM   27  C   UNL     1      42.493 -16.046   2.822  1.00  0.00     0.084 C 
HETATM   28  C   UNL     1      42.898 -17.017   1.684  1.00  0.00     0.025 C 
HETATM   29  C   UNL     1      42.822 -18.500   2.073  1.00  0.00     0.002 C 
HETATM   30  C   UNL     1      44.201 -19.167   2.161  1.00  0.00     0.000 C 
HETATM   31  C   UNL     1      44.188 -20.469   2.979  1.00  0.00     0.000 C 
HETATM   32  C   UNL     1      44.808 -20.296   4.375  1.00  0.00     0.000 C 
HETATM   33  C   UNL     1      43.986 -19.396   5.299  1.00  0.00     0.000 C 
HETATM   34  C   UNL     1      44.860 -18.666   6.319  1.00  0.00     0.000 C 
HETATM   35  C   UNL     1      44.095 -17.614   7.128  1.00  0.00     0.000 C 
HETATM   36  C   UNL     1      43.988 -16.228   6.467  1.00  0.00     0.000 C 
HETATM   37  C   UNL     1      42.937 -16.106   5.354  1.00  0.00     0.002 C 
HETATM   38  C   UNL     1      43.553 -15.978   3.950  1.00  0.00     0.025 C 
ENDBRANCH  24  27
ENDBRANCH   2  23
TORSDOF 4
ENDMDL
