MODEL 1
REMARK VINA RESULT:      -8.7      0.000      0.000
REMARK  5 active torsions:
REMARK  status: ('A' for Active; 'I' for Inactive)
REMARK    1  A    between atoms: O_2  and  C_3 
REMARK    2  A    between atoms: C_4  and  C_5 
REMARK    3  A    between atoms: C_9  and  N_10 
REMARK       I    between atoms: N_10  and  C_11 
REMARK    4  A    between atoms: C_11  and  C_12 
REMARK    5  A    between atoms: C_12  and  C_13 
ROOT
HETATM    1  C   UNL     1      42.454 -17.566   2.099  1.00  0.00     0.093 A 
HETATM    2  N   UNL     1      41.123 -17.724   2.019  1.00  0.00    -0.172 NA
HETATM    3  N   UNL     1      40.756 -16.944   0.987  1.00  0.00    -0.262 N 
HETATM    4  H   UNL     1      39.777 -16.892   0.718  1.00  0.00     0.191 HD
HETATM    5  C   UNL     1      41.809 -16.328   0.364  1.00  0.00     0.126 A 
HETATM    6  C   UNL     1      42.921 -16.684   1.083  1.00  0.00     0.084 A 
ENDROOT
BRANCH   5   7
HETATM    7  N   UNL     1      41.704 -15.555  -0.772  1.00  0.00    -0.311 N 
HETATM    8  C   UNL     1      40.750 -14.563  -0.891  1.00  0.00     0.236 C 
HETATM    9  O   UNL     1      39.998 -14.179  -0.002  1.00  0.00    -0.272 OA
HETATM   10  H   UNL     1      42.271 -15.795  -1.575  1.00  0.00     0.170 HD
BRANCH   8  11
HETATM   11  C   UNL     1      40.652 -13.989  -2.283  1.00  0.00     0.068 A 
HETATM   12  C   UNL     1      41.511 -12.768  -2.602  1.00  0.00     0.026 A 
HETATM   13  C   UNL     1      41.874 -14.092  -3.192  1.00  0.00     0.026 A 
BRANCH  11  14
HETATM   14  C   UNL     1      39.258 -14.046  -2.904  1.00  0.00    -0.040 A 
HETATM   15  C   UNL     1      38.814 -15.207  -3.564  1.00  0.00     0.010 A 
HETATM   16  C   UNL     1      37.562 -15.261  -4.185  1.00  0.00     0.024 A 
HETATM   17  C   UNL     1      36.730 -14.146  -4.157  1.00  0.00     0.034 A 
HETATM   18 CL   UNL     1      35.194 -14.203  -4.929  1.00  0.00    -0.084 Cl
HETATM   19  C   UNL     1      37.140 -12.983  -3.512  1.00  0.00     0.024 A 
HETATM   20  C   UNL     1      38.392 -12.937  -2.893  1.00  0.00     0.010 A 
ENDBRANCH  11  14
ENDBRANCH   8  11
ENDBRANCH   5   7
BRANCH   1  21
HETATM   21  C   UNL     1      43.272 -18.298   3.064  1.00  0.00     0.029 A 
HETATM   22  C   UNL     1      43.691 -19.622   2.855  1.00  0.00     0.081 A 
HETATM   23  C   UNL     1      44.455 -20.290   3.820  1.00  0.00     0.039 A 
HETATM   24  C   UNL     1      44.834 -19.630   4.989  1.00  0.00     0.026 A 
HETATM   25  C   UNL     1      44.437 -18.311   5.195  1.00  0.00     0.035 A 
HETATM   26  C   UNL     1      43.660 -17.646   4.247  1.00  0.00     0.040 A 
HETATM   27 CL   UNL     1      44.898 -17.497   6.640  1.00  0.00    -0.084 Cl
BRANCH  22  28
HETATM   28  O   UNL     1      43.283 -20.329   1.753  1.00  0.00    -0.355 OA
HETATM   29  C   UNL     1      43.849 -21.640   1.770  1.00  0.00     0.210 C 
ENDBRANCH  22  28
ENDBRANCH   1  21
TORSDOF 5
ENDMDL
MODEL 2
REMARK VINA RESULT:      -8.7      1.616      2.173
REMARK  5 active torsions:
REMARK  status: ('A' for Active; 'I' for Inactive)
REMARK    1  A    between atoms: O_2  and  C_3 
REMARK    2  A    between atoms: C_4  and  C_5 
REMARK    3  A    between atoms: C_9  and  N_10 
REMARK       I    between atoms: N_10  and  C_11 
REMARK    4  A    between atoms: C_11  and  C_12 
REMARK    5  A    between atoms: C_12  and  C_13 
ROOT
HETATM    1  C   UNL     1      42.376 -17.683   1.754  1.00  0.00     0.093 A 
HETATM    2  N   UNL     1      41.045 -17.573   1.897  1.00  0.00    -0.172 NA
HETATM    3  N   UNL     1      40.682 -16.679   0.960  1.00  0.00    -0.262 N 
HETATM    4  H   UNL     1      39.703 -16.421   0.863  1.00  0.00     0.191 HD
HETATM    5  C   UNL     1      41.723 -16.246   0.183  1.00  0.00     0.126 A 
HETATM    6  C   UNL     1      42.842 -16.853   0.694  1.00  0.00     0.084 A 
ENDROOT
BRANCH   5   7
HETATM    7  N   UNL     1      41.595 -15.402  -0.900  1.00  0.00    -0.311 N 
HETATM    8  C   UNL     1      40.639 -14.407  -0.937  1.00  0.00     0.236 C 
HETATM    9  O   UNL     1      39.904 -14.081  -0.011  1.00  0.00    -0.272 OA
HETATM   10  H   UNL     1      42.146 -15.590  -1.727  1.00  0.00     0.170 HD
BRANCH   8  11
HETATM   11  C   UNL     1      40.513 -13.747  -2.288  1.00  0.00     0.068 A 
HETATM   12  C   UNL     1      41.294 -12.455  -2.515  1.00  0.00     0.026 A 
HETATM   13  C   UNL     1      41.744 -13.711  -3.190  1.00  0.00     0.026 A 
BRANCH  11  14
HETATM   14  C   UNL     1      39.129 -13.848  -2.926  1.00  0.00    -0.040 A 
HETATM   15  C   UNL     1      38.703 -15.047  -3.527  1.00  0.00     0.010 A 
HETATM   16  C   UNL     1      37.461 -15.146  -4.163  1.00  0.00     0.024 A 
HETATM   17  C   UNL     1      36.622 -14.037  -4.209  1.00  0.00     0.034 A 
HETATM   18 CL   UNL     1      35.098 -14.148  -4.999  1.00  0.00    -0.084 Cl
HETATM   19  C   UNL     1      37.013 -12.838  -3.623  1.00  0.00     0.024 A 
HETATM   20  C   UNL     1      38.255 -12.747  -2.989  1.00  0.00     0.010 A 
ENDBRANCH  11  14
ENDBRANCH   8  11
ENDBRANCH   5   7
BRANCH   1  21
HETATM   21  C   UNL     1      43.173 -18.615   2.548  1.00  0.00     0.029 A 
HETATM   22  C   UNL     1      43.619 -18.319   3.846  1.00  0.00     0.081 A 
HETATM   23  C   UNL     1      44.401 -19.236   4.559  1.00  0.00     0.039 A 
HETATM   24  C   UNL     1      44.718 -20.472   3.994  1.00  0.00     0.026 A 
HETATM   25  C   UNL     1      44.264 -20.779   2.714  1.00  0.00     0.035 A 
HETATM   26  C   UNL     1      43.501 -19.863   1.990  1.00  0.00     0.040 A 
HETATM   27 CL   UNL     1      44.659 -22.300   2.011  1.00  0.00    -0.084 Cl
BRANCH  22  28
HETATM   28  O   UNL     1      43.390 -17.091   4.411  1.00  0.00    -0.355 OA
HETATM   29  C   UNL     1      42.478 -17.212   5.504  1.00  0.00     0.210 C 
ENDBRANCH  22  28
ENDBRANCH   1  21
TORSDOF 5
ENDMDL
MODEL 3
REMARK VINA RESULT:      -8.6      1.931      2.860
REMARK  5 active torsions:
REMARK  status: ('A' for Active; 'I' for Inactive)
REMARK    1  A    between atoms: O_2  and  C_3 
REMARK    2  A    between atoms: C_4  and  C_5 
REMARK    3  A    between atoms: C_9  and  N_10 
REMARK       I    between atoms: N_10  and  C_11 
REMARK    4  A    between atoms: C_11  and  C_12 
REMARK    5  A    between atoms: C_12  and  C_13 
ROOT
HETATM    1  C   UNL     1      42.308 -17.518   2.115  1.00  0.00     0.093 A 
HETATM    2  N   UNL     1      40.995 -17.365   2.349  1.00  0.00    -0.172 NA
HETATM    3  N   UNL     1      40.535 -16.730   1.256  1.00  0.00    -0.262 N 
HETATM    4  H   UNL     1      39.547 -16.497   1.188  1.00  0.00     0.191 HD
HETATM    5  C   UNL     1      41.494 -16.514   0.302  1.00  0.00     0.126 A 
HETATM    6  C   UNL     1      42.663 -16.984   0.844  1.00  0.00     0.084 A 
ENDROOT
BRANCH   5   7
HETATM    7  N   UNL     1      41.255 -15.967  -0.940  1.00  0.00    -0.311 N 
HETATM    8  C   UNL     1      40.379 -14.914  -1.115  1.00  0.00     0.236 C 
HETATM    9  O   UNL     1      39.828 -14.282  -0.221  1.00  0.00    -0.272 OA
HETATM   10  H   UNL     1      41.651 -16.422  -1.752  1.00  0.00     0.170 HD
BRANCH   8  11
HETATM   11  C   UNL     1      40.086 -14.613  -2.564  1.00  0.00     0.068 A 
HETATM   12  C   UNL     1      39.997 -15.796  -3.525  1.00  0.00     0.026 A 
HETATM   13  C   UNL     1      38.748 -15.071  -3.138  1.00  0.00     0.026 A 
BRANCH  11  14
HETATM   14  C   UNL     1      40.720 -13.328  -3.094  1.00  0.00    -0.040 A 
HETATM   15  C   UNL     1      39.937 -12.363  -3.755  1.00  0.00     0.010 A 
HETATM   16  C   UNL     1      40.507 -11.204  -4.295  1.00  0.00     0.024 A 
HETATM   17  C   UNL     1      41.877 -10.994  -4.181  1.00  0.00     0.034 A 
HETATM   18 CL   UNL     1      42.585  -9.577  -4.852  1.00  0.00    -0.084 Cl
HETATM   19  C   UNL     1      42.678 -11.929  -3.532  1.00  0.00     0.024 A 
HETATM   20  C   UNL     1      42.102 -13.084  -2.996  1.00  0.00     0.010 A 
ENDBRANCH  11  14
ENDBRANCH   8  11
ENDBRANCH   5   7
BRANCH   1  21
HETATM   21  C   UNL     1      43.189 -18.229   3.041  1.00  0.00     0.029 A 
HETATM   22  C   UNL     1      43.663 -19.527   2.793  1.00  0.00     0.081 A 
HETATM   23  C   UNL     1      44.486 -20.176   3.721  1.00  0.00     0.039 A 
HETATM   24  C   UNL     1      44.870 -19.521   4.892  1.00  0.00     0.026 A 
HETATM   25  C   UNL     1      44.417 -18.227   5.136  1.00  0.00     0.035 A 
HETATM   26  C   UNL     1      43.582 -17.582   4.225  1.00  0.00     0.040 A 
HETATM   27 CL   UNL     1      44.884 -17.419   6.582  1.00  0.00    -0.084 Cl
BRANCH  22  28
HETATM   28  O   UNL     1      43.255 -20.232   1.690  1.00  0.00    -0.355 OA
HETATM   29  C   UNL     1      43.709 -21.584   1.771  1.00  0.00     0.210 C 
ENDBRANCH  22  28
ENDBRANCH   1  21
TORSDOF 5
ENDMDL
MODEL 4
REMARK VINA RESULT:      -8.4      2.514      3.565
REMARK  5 active torsions:
REMARK  status: ('A' for Active; 'I' for Inactive)
REMARK    1  A    between atoms: O_2  and  C_3 
REMARK    2  A    between atoms: C_4  and  C_5 
REMARK    3  A    between atoms: C_9  and  N_10 
REMARK       I    between atoms: N_10  and  C_11 
REMARK    4  A    between atoms: C_11  and  C_12 
REMARK    5  A    between atoms: C_12  and  C_13 
ROOT
HETATM    1  C   UNL     1      42.233 -17.532   1.791  1.00  0.00     0.093 A 
HETATM    2  N   UNL     1      40.995 -17.174   2.165  1.00  0.00    -0.172 NA
HETATM    3  N   UNL     1      40.521 -16.472   1.119  1.00  0.00    -0.262 N 
HETATM    4  H   UNL     1      39.582 -16.085   1.156  1.00  0.00     0.191 HD
HETATM    5  C   UNL     1      41.390 -16.409   0.063  1.00  0.00     0.126 A 
HETATM    6  C   UNL     1      42.524 -17.059   0.480  1.00  0.00     0.084 A 
ENDROOT
BRANCH   5   7
HETATM    7  N   UNL     1      41.104 -15.830  -1.155  1.00  0.00    -0.311 N 
HETATM    8  C   UNL     1      40.239 -14.759  -1.265  1.00  0.00     0.236 C 
HETATM    9  O   UNL     1      39.741 -14.139  -0.332  1.00  0.00    -0.272 OA
HETATM   10  H   UNL     1      41.454 -16.271  -1.994  1.00  0.00     0.170 HD
BRANCH   8  11
HETATM   11  C   UNL     1      39.885 -14.419  -2.692  1.00  0.00     0.068 A 
HETATM   12  C   UNL     1      39.678 -15.580  -3.661  1.00  0.00     0.026 A 
HETATM   13  C   UNL     1      38.494 -14.794  -3.197  1.00  0.00     0.026 A 
BRANCH  11  14
HETATM   14  C   UNL     1      40.559 -13.163  -3.239  1.00  0.00    -0.040 A 
HETATM   15  C   UNL     1      41.947 -12.976  -3.101  1.00  0.00     0.010 A 
HETATM   16  C   UNL     1      42.576 -11.809  -3.549  1.00  0.00     0.024 A 
HETATM   17  C   UNL     1      41.820 -10.805  -4.143  1.00  0.00     0.034 A 
HETATM   18 CL   UNL     1      42.585  -9.363  -4.686  1.00  0.00    -0.084 Cl
HETATM   19  C   UNL     1      40.445 -10.959  -4.296  1.00  0.00     0.024 A 
HETATM   20  C   UNL     1      39.824 -12.128  -3.847  1.00  0.00     0.010 A 
ENDBRANCH  11  14
ENDBRANCH   8  11
ENDBRANCH   5   7
BRANCH   1  21
HETATM   21  C   UNL     1      43.088 -18.375   2.625  1.00  0.00     0.029 A 
HETATM   22  C   UNL     1      43.615 -17.943   3.853  1.00  0.00     0.081 A 
HETATM   23  C   UNL     1      44.449 -18.778   4.606  1.00  0.00     0.039 A 
HETATM   24  C   UNL     1      44.739 -20.066   4.154  1.00  0.00     0.026 A 
HETATM   25  C   UNL     1      44.206 -20.507   2.946  1.00  0.00     0.035 A 
HETATM   26  C   UNL     1      43.390 -19.673   2.181  1.00  0.00     0.040 A 
HETATM   27 CL   UNL     1      44.567 -22.093   2.383  1.00  0.00    -0.084 Cl
BRANCH  22  28
HETATM   28  O   UNL     1      43.412 -16.662   4.300  1.00  0.00    -0.355 OA
HETATM   29  C   UNL     1      42.622 -16.673   5.490  1.00  0.00     0.210 C 
ENDBRANCH  22  28
ENDBRANCH   1  21
TORSDOF 5
ENDMDL
MODEL 5
REMARK VINA RESULT:      -8.0      2.213      2.868
REMARK  5 active torsions:
REMARK  status: ('A' for Active; 'I' for Inactive)
REMARK    1  A    between atoms: O_2  and  C_3 
REMARK    2  A    between atoms: C_4  and  C_5 
REMARK    3  A    between atoms: C_9  and  N_10 
REMARK       I    between atoms: N_10  and  C_11 
REMARK    4  A    between atoms: C_11  and  C_12 
REMARK    5  A    between atoms: C_12  and  C_13 
ROOT
HETATM    1  C   UNL     1      42.840 -17.321   2.691  1.00  0.00     0.093 A 
HETATM    2  N   UNL     1      41.750 -16.831   3.303  1.00  0.00    -0.172 NA
HETATM    3  N   UNL     1      41.364 -15.804   2.524  1.00  0.00    -0.262 N 
HETATM    4  H   UNL     1      40.543 -15.261   2.778  1.00  0.00     0.191 HD
HETATM    5  C   UNL     1      42.136 -15.646   1.404  1.00  0.00     0.126 A 
HETATM    6  C   UNL     1      43.123 -16.593   1.500  1.00  0.00     0.084 A 
ENDROOT
BRANCH   5   7
HETATM    7  N   UNL     1      41.890 -14.727   0.406  1.00  0.00    -0.311 N 
HETATM    8  C   UNL     1      42.039 -13.370   0.614  1.00  0.00     0.236 C 
HETATM    9  O   UNL     1      42.506 -12.844   1.619  1.00  0.00    -0.272 OA
HETATM   10  H   UNL     1      41.488 -15.053  -0.463  1.00  0.00     0.170 HD
BRANCH   8  11
HETATM   11  C   UNL     1      41.508 -12.528  -0.519  1.00  0.00     0.068 A 
HETATM   12  C   UNL     1      41.412 -11.021  -0.290  1.00  0.00     0.026 A 
HETATM   13  C   UNL     1      42.466 -11.557  -1.205  1.00  0.00     0.026 A 
BRANCH  11  14
HETATM   14  C   UNL     1      40.400 -13.182  -1.342  1.00  0.00    -0.040 A 
HETATM   15  C   UNL     1      40.645 -13.612  -2.660  1.00  0.00     0.010 A 
HETATM   16  C   UNL     1      39.631 -14.165  -3.448  1.00  0.00     0.024 A 
HETATM   17  C   UNL     1      38.348 -14.296  -2.928  1.00  0.00     0.034 A 
HETATM   18 CL   UNL     1      37.094 -14.965  -3.896  1.00  0.00    -0.084 Cl
HETATM   19  C   UNL     1      38.074 -13.882  -1.628  1.00  0.00     0.024 A 
HETATM   20  C   UNL     1      39.092 -13.330  -0.846  1.00  0.00     0.010 A 
ENDBRANCH  11  14
ENDBRANCH   8  11
ENDBRANCH   5   7
BRANCH   1  21
HETATM   21  C   UNL     1      43.547 -18.503   3.181  1.00  0.00     0.029 A 
HETATM   22  C   UNL     1      44.102 -18.577   4.468  1.00  0.00     0.081 A 
HETATM   23  C   UNL     1      44.791 -19.722   4.885  1.00  0.00     0.039 A 
HETATM   24  C   UNL     1      44.903 -20.819   4.029  1.00  0.00     0.026 A 
HETATM   25  C   UNL     1      44.340 -20.759   2.757  1.00  0.00     0.035 A 
HETATM   26  C   UNL     1      43.669 -19.614   2.329  1.00  0.00     0.040 A 
HETATM   27 CL   UNL     1      44.483 -22.107   1.697  1.00  0.00    -0.084 Cl
BRANCH  22  28
HETATM   28  O   UNL     1      44.075 -17.498   5.315  1.00  0.00    -0.355 OA
HETATM   29  C   UNL     1      44.851 -17.767   6.484  1.00  0.00     0.210 C 
ENDBRANCH  22  28
ENDBRANCH   1  21
TORSDOF 5
ENDMDL
MODEL 6
REMARK VINA RESULT:      -8.0      2.754      3.797
REMARK  5 active torsions:
REMARK  status: ('A' for Active; 'I' for Inactive)
REMARK    1  A    between atoms: O_2  and  C_3 
REMARK    2  A    between atoms: C_4  and  C_5 
REMARK    3  A    between atoms: C_9  and  N_10 
REMARK       I    between atoms: N_10  and  C_11 
REMARK    4  A    between atoms: C_11  and  C_12 
REMARK    5  A    between atoms: C_12  and  C_13 
ROOT
HETATM    1  C   UNL     1      43.193 -17.831   2.121  1.00  0.00     0.093 A 
HETATM    2  N   UNL     1      43.694 -17.732   0.880  1.00  0.00    -0.172 NA
HETATM    3  N   UNL     1      42.935 -16.792   0.289  1.00  0.00    -0.262 N 
HETATM    4  H   UNL     1      43.120 -16.529  -0.676  1.00  0.00     0.191 HD
HETATM    5  C   UNL     1      41.995 -16.243   1.120  1.00  0.00     0.126 A 
HETATM    6  C   UNL     1      42.115 -16.920   2.307  1.00  0.00     0.084 A 
ENDROOT
BRANCH   5   7
HETATM    7  N   UNL     1      41.161 -15.200   0.780  1.00  0.00    -0.311 N 
HETATM    8  C   UNL     1      40.791 -14.961  -0.529  1.00  0.00     0.236 C 
HETATM    9  O   UNL     1      41.042 -15.682  -1.489  1.00  0.00    -0.272 OA
HETATM   10  H   UNL     1      40.903 -14.534   1.496  1.00  0.00     0.170 HD
BRANCH   8  11
HETATM   11  C   UNL     1      40.065 -13.653  -0.719  1.00  0.00     0.068 A 
HETATM   12  C   UNL     1      38.870 -13.643  -1.668  1.00  0.00     0.026 A 
HETATM   13  C   UNL     1      38.636 -13.540  -0.195  1.00  0.00     0.026 A 
BRANCH  11  14
HETATM   14  C   UNL     1      40.960 -12.414  -0.707  1.00  0.00    -0.040 A 
HETATM   15  C   UNL     1      42.168 -12.396  -1.428  1.00  0.00     0.010 A 
HETATM   16  C   UNL     1      43.026 -11.292  -1.388  1.00  0.00     0.024 A 
HETATM   17  C   UNL     1      42.687 -10.184  -0.620  1.00  0.00     0.034 A 
HETATM   18 CL   UNL     1      43.744  -8.828  -0.557  1.00  0.00    -0.084 Cl
HETATM   19  C   UNL     1      41.499 -10.171   0.104  1.00  0.00     0.024 A 
HETATM   20  C   UNL     1      40.646 -11.277   0.060  1.00  0.00     0.010 A 
ENDBRANCH  11  14
ENDBRANCH   8  11
ENDBRANCH   5   7
BRANCH   1  21
HETATM   21  C   UNL     1      43.778 -18.709   3.133  1.00  0.00     0.029 A 
HETATM   22  C   UNL     1      44.038 -20.069   2.899  1.00  0.00     0.081 A 
HETATM   23  C   UNL     1      44.578 -20.876   3.908  1.00  0.00     0.039 A 
HETATM   24  C   UNL     1      44.894 -20.325   5.149  1.00  0.00     0.026 A 
HETATM   25  C   UNL     1      44.655 -18.973   5.382  1.00  0.00     0.035 A 
HETATM   26  C   UNL     1      44.100 -18.167   4.388  1.00  0.00     0.040 A 
HETATM   27 CL   UNL     1      45.038 -18.291   6.915  1.00  0.00    -0.084 Cl
BRANCH  22  28
HETATM   28  O   UNL     1      43.678 -20.667   1.718  1.00  0.00    -0.355 OA
HETATM   29  C   UNL     1      44.184 -22.002   1.666  1.00  0.00     0.210 C 
ENDBRANCH  22  28
ENDBRANCH   1  21
TORSDOF 5
ENDMDL
MODEL 7
REMARK VINA RESULT:      -8.0      1.765      2.547
REMARK  5 active torsions:
REMARK  status: ('A' for Active; 'I' for Inactive)
REMARK    1  A    between atoms: O_2  and  C_3 
REMARK    2  A    between atoms: C_4  and  C_5 
REMARK    3  A    between atoms: C_9  and  N_10 
REMARK       I    between atoms: N_10  and  C_11 
REMARK    4  A    between atoms: C_11  and  C_12 
REMARK    5  A    between atoms: C_12  and  C_13 
ROOT
HETATM    1  C   UNL     1      42.837 -17.806   2.010  1.00  0.00     0.093 A 
HETATM    2  N   UNL     1      43.382 -17.368   0.864  1.00  0.00    -0.172 NA
HETATM    3  N   UNL     1      42.410 -16.633   0.294  1.00  0.00    -0.262 N 
HETATM    4  H   UNL     1      42.580 -16.182  -0.602  1.00  0.00     0.191 HD
HETATM    5  C   UNL     1      41.276 -16.537   1.055  1.00  0.00     0.126 A 
HETATM    6  C   UNL     1      41.509 -17.316   2.160  1.00  0.00     0.084 A 
ENDROOT
BRANCH   5   7
HETATM    7  N   UNL     1      40.179 -15.768   0.734  1.00  0.00    -0.311 N 
HETATM    8  C   UNL     1      40.289 -14.416   0.475  1.00  0.00     0.236 C 
HETATM    9  O   UNL     1      41.337 -13.786   0.379  1.00  0.00    -0.272 OA
HETATM   10  H   UNL     1      39.260 -16.186   0.796  1.00  0.00     0.170 HD
BRANCH   8  11
HETATM   11  C   UNL     1      38.957 -13.715   0.369  1.00  0.00     0.068 A 
HETATM   12  C   UNL     1      37.766 -14.358   1.075  1.00  0.00     0.026 A 
HETATM   13  C   UNL     1      38.361 -13.106   1.636  1.00  0.00     0.026 A 
BRANCH  11  14
HETATM   14  C   UNL     1      38.692 -13.039  -0.975  1.00  0.00    -0.040 A 
HETATM   15  C   UNL     1      38.399 -11.664  -1.039  1.00  0.00     0.010 A 
HETATM   16  C   UNL     1      38.102 -11.036  -2.254  1.00  0.00     0.024 A 
HETATM   17  C   UNL     1      38.091 -11.780  -3.429  1.00  0.00     0.034 A 
HETATM   18 CL   UNL     1      37.716 -11.017  -4.924  1.00  0.00    -0.084 Cl
HETATM   19  C   UNL     1      38.378 -13.142  -3.398  1.00  0.00     0.024 A 
HETATM   20  C   UNL     1      38.675 -13.762  -2.181  1.00  0.00     0.010 A 
ENDBRANCH  11  14
ENDBRANCH   8  11
ENDBRANCH   5   7
BRANCH   1  21
HETATM   21  C   UNL     1      43.589 -18.602   2.979  1.00  0.00     0.029 A 
HETATM   22  C   UNL     1      43.944 -19.941   2.749  1.00  0.00     0.081 A 
HETATM   23  C   UNL     1      44.645 -20.670   3.717  1.00  0.00     0.039 A 
HETATM   24  C   UNL     1      45.026 -20.057   4.912  1.00  0.00     0.026 A 
HETATM   25  C   UNL     1      44.692 -18.725   5.139  1.00  0.00     0.035 A 
HETATM   26  C   UNL     1      43.977 -17.998   4.187  1.00  0.00     0.040 A 
HETATM   27 CL   UNL     1      45.155 -17.969   6.615  1.00  0.00    -0.084 Cl
BRANCH  22  28
HETATM   28  O   UNL     1      43.530 -20.600   1.620  1.00  0.00    -0.355 OA
HETATM   29  C   UNL     1      44.049 -21.932   1.607  1.00  0.00     0.210 C 
ENDBRANCH  22  28
ENDBRANCH   1  21
TORSDOF 5
ENDMDL
MODEL 8
REMARK VINA RESULT:      -7.9      4.019      5.102
REMARK  5 active torsions:
REMARK  status: ('A' for Active; 'I' for Inactive)
REMARK    1  A    between atoms: O_2  and  C_3 
REMARK    2  A    between atoms: C_4  and  C_5 
REMARK    3  A    between atoms: C_9  and  N_10 
REMARK       I    between atoms: N_10  and  C_11 
REMARK    4  A    between atoms: C_11  and  C_12 
REMARK    5  A    between atoms: C_12  and  C_13 
ROOT
HETATM    1  C   UNL     1      42.504 -17.672   1.836  1.00  0.00     0.093 A 
HETATM    2  N   UNL     1      43.003 -17.002   0.785  1.00  0.00    -0.172 NA
HETATM    3  N   UNL     1      42.010 -16.173   0.417  1.00  0.00    -0.262 N 
HETATM    4  H   UNL     1      42.146 -15.545  -0.372  1.00  0.00     0.191 HD
HETATM    5  C   UNL     1      40.907 -16.245   1.224  1.00  0.00     0.126 A 
HETATM    6  C   UNL     1      41.182 -17.233   2.135  1.00  0.00     0.084 A 
ENDROOT
BRANCH   5   7
HETATM    7  N   UNL     1      39.798 -15.434   1.112  1.00  0.00    -0.311 N 
HETATM    8  C   UNL     1      39.910 -14.077   0.879  1.00  0.00     0.236 C 
HETATM    9  O   UNL     1      40.948 -13.474   0.631  1.00  0.00    -0.272 OA
HETATM   10  H   UNL     1      38.889 -15.829   1.311  1.00  0.00     0.170 HD
BRANCH   8  11
HETATM   11  C   UNL     1      38.603 -13.336   1.015  1.00  0.00     0.068 A 
HETATM   12  C   UNL     1      37.798 -13.093  -0.260  1.00  0.00     0.026 A 
HETATM   13  C   UNL     1      37.310 -14.098   0.733  1.00  0.00     0.026 A 
BRANCH  11  14
HETATM   14  C   UNL     1      38.597 -12.230   2.068  1.00  0.00    -0.040 A 
HETATM   15  C   UNL     1      39.118 -12.462   3.354  1.00  0.00     0.010 A 
HETATM   16  C   UNL     1      39.075 -11.480   4.349  1.00  0.00     0.024 A 
HETATM   17  C   UNL     1      38.504 -10.243   4.070  1.00  0.00     0.034 A 
HETATM   18 CL   UNL     1      38.437  -9.034   5.292  1.00  0.00    -0.084 Cl
HETATM   19  C   UNL     1      37.981  -9.981   2.807  1.00  0.00     0.024 A 
HETATM   20  C   UNL     1      38.028 -10.968   1.818  1.00  0.00     0.010 A 
ENDBRANCH  11  14
ENDBRANCH   8  11
ENDBRANCH   5   7
BRANCH   1  21
HETATM   21  C   UNL     1      43.292 -18.644   2.590  1.00  0.00     0.029 A 
HETATM   22  C   UNL     1      43.797 -18.383   3.874  1.00  0.00     0.081 A 
HETATM   23  C   UNL     1      44.567 -19.338   4.547  1.00  0.00     0.039 A 
HETATM   24  C   UNL     1      44.814 -20.578   3.956  1.00  0.00     0.026 A 
HETATM   25  C   UNL     1      44.303 -20.851   2.690  1.00  0.00     0.035 A 
HETATM   26  C   UNL     1      43.550 -19.896   2.006  1.00  0.00     0.040 A 
HETATM   27 CL   UNL     1      44.612 -22.377   1.956  1.00  0.00    -0.084 Cl
BRANCH  22  28
HETATM   28  O   UNL     1      43.636 -17.154   4.461  1.00  0.00    -0.355 OA
HETATM   29  C   UNL     1      42.792 -17.261   5.609  1.00  0.00     0.210 C 
ENDBRANCH  22  28
ENDBRANCH   1  21
TORSDOF 5
ENDMDL
MODEL 9
REMARK VINA RESULT:      -7.9      2.199      3.116
REMARK  5 active torsions:
REMARK  status: ('A' for Active; 'I' for Inactive)
REMARK    1  A    between atoms: O_2  and  C_3 
REMARK    2  A    between atoms: C_4  and  C_5 
REMARK    3  A    between atoms: C_9  and  N_10 
REMARK       I    between atoms: N_10  and  C_11 
REMARK    4  A    between atoms: C_11  and  C_12 
REMARK    5  A    between atoms: C_12  and  C_13 
ROOT
HETATM    1  C   UNL     1      42.599 -17.660   1.645  1.00  0.00     0.093 A 
HETATM    2  N   UNL     1      43.180 -17.017   0.619  1.00  0.00    -0.172 NA
HETATM    3  N   UNL     1      42.204 -16.237   0.120  1.00  0.00    -0.262 N 
HETATM    4  H   UNL     1      42.398 -15.638  -0.678  1.00  0.00     0.191 HD
HETATM    5  C   UNL     1      41.029 -16.314   0.820  1.00  0.00     0.126 A 
HETATM    6  C   UNL     1      41.242 -17.254   1.795  1.00  0.00     0.084 A 
ENDROOT
BRANCH   5   7
HETATM    7  N   UNL     1      39.914 -15.545   0.564  1.00  0.00    -0.311 N 
HETATM    8  C   UNL     1      40.009 -14.289  -0.001  1.00  0.00     0.236 C 
HETATM    9  O   UNL     1      41.032 -13.775  -0.440  1.00  0.00    -0.272 OA
HETATM   10  H   UNL     1      39.016 -15.871   0.899  1.00  0.00     0.170 HD
BRANCH   8  11
HETATM   11  C   UNL     1      38.708 -13.526   0.011  1.00  0.00     0.068 A 
HETATM   12  C   UNL     1      37.743 -13.798   1.163  1.00  0.00     0.026 A 
HETATM   13  C   UNL     1      38.485 -12.500   1.119  1.00  0.00     0.026 A 
BRANCH  11  14
HETATM   14  C   UNL     1      38.098 -13.274  -1.366  1.00  0.00    -0.040 A 
HETATM   15  C   UNL     1      37.520 -12.029  -1.677  1.00  0.00     0.010 A 
HETATM   16  C   UNL     1      36.910 -11.794  -2.914  1.00  0.00     0.024 A 
HETATM   17  C   UNL     1      36.868 -12.809  -3.864  1.00  0.00     0.034 A 
HETATM   18 CL   UNL     1      36.109 -12.532  -5.382  1.00  0.00    -0.084 Cl
HETATM   19  C   UNL     1      37.431 -14.051  -3.588  1.00  0.00     0.024 A 
HETATM   20  C   UNL     1      38.040 -14.278  -2.350  1.00  0.00     0.010 A 
ENDBRANCH  11  14
ENDBRANCH   8  11
ENDBRANCH   5   7
BRANCH   1  21
HETATM   21  C   UNL     1      43.338 -18.574   2.513  1.00  0.00     0.029 A 
HETATM   22  C   UNL     1      43.774 -18.216   3.799  1.00  0.00     0.081 A 
HETATM   23  C   UNL     1      44.500 -19.119   4.585  1.00  0.00     0.039 A 
HETATM   24  C   UNL     1      44.769 -20.402   4.106  1.00  0.00     0.026 A 
HETATM   25  C   UNL     1      44.324 -20.770   2.839  1.00  0.00     0.035 A 
HETATM   26  C   UNL     1      43.618 -19.869   2.043  1.00  0.00     0.040 A 
HETATM   27 CL   UNL     1      44.661 -22.349   2.242  1.00  0.00    -0.084 Cl
BRANCH  22  28
HETATM   28  O   UNL     1      43.592 -16.945   4.280  1.00  0.00    -0.355 OA
HETATM   29  C   UNL     1      42.826 -16.978   5.486  1.00  0.00     0.210 C 
ENDBRANCH  22  28
ENDBRANCH   1  21
TORSDOF 5
ENDMDL
MODEL 10
REMARK VINA RESULT:      -7.9      2.868      3.874
REMARK  5 active torsions:
REMARK  status: ('A' for Active; 'I' for Inactive)
REMARK    1  A    between atoms: O_2  and  C_3 
REMARK    2  A    between atoms: C_4  and  C_5 
REMARK    3  A    between atoms: C_9  and  N_10 
REMARK       I    between atoms: N_10  and  C_11 
REMARK    4  A    between atoms: C_11  and  C_12 
REMARK    5  A    between atoms: C_12  and  C_13 
ROOT
HETATM    1  C   UNL     1      42.179 -17.589   3.263  1.00  0.00     0.093 A 
HETATM    2  N   UNL     1      41.184 -17.322   4.124  1.00  0.00    -0.172 NA
HETATM    3  N   UNL     1      40.468 -16.359   3.517  1.00  0.00    -0.262 N 
HETATM    4  H   UNL     1      39.643 -15.980   3.976  1.00  0.00     0.191 HD
HETATM    5  C   UNL     1      40.934 -16.031   2.272  1.00  0.00     0.126 A 
HETATM    6  C   UNL     1      42.064 -16.787   2.092  1.00  0.00     0.084 A 
ENDROOT
BRANCH   5   7
HETATM    7  N   UNL     1      40.322 -15.142   1.415  1.00  0.00    -0.311 N 
HETATM    8  C   UNL     1      39.659 -14.023   1.878  1.00  0.00     0.236 C 
HETATM    9  O   UNL     1      39.639 -13.630   3.040  1.00  0.00    -0.272 OA
HETATM   10  H   UNL     1      40.268 -15.378   0.432  1.00  0.00     0.170 HD
BRANCH   8  11
HETATM   11  C   UNL     1      38.870 -13.308   0.809  1.00  0.00     0.068 A 
HETATM   12  C   UNL     1      37.426 -13.751   0.587  1.00  0.00     0.026 A 
HETATM   13  C   UNL     1      37.695 -12.435   1.245  1.00  0.00     0.026 A 
BRANCH  11  14
HETATM   14  C   UNL     1      39.676 -12.905  -0.424  1.00  0.00    -0.040 A 
HETATM   15  C   UNL     1      39.439 -13.519  -1.667  1.00  0.00     0.010 A 
HETATM   16  C   UNL     1      40.201 -13.203  -2.797  1.00  0.00     0.024 A 
HETATM   17  C   UNL     1      41.220 -12.261  -2.697  1.00  0.00     0.034 A 
HETATM   18 CL   UNL     1      42.169 -11.876  -4.079  1.00  0.00    -0.084 Cl
HETATM   19  C   UNL     1      41.479 -11.635  -1.482  1.00  0.00     0.024 A 
HETATM   20  C   UNL     1      40.713 -11.957  -0.358  1.00  0.00     0.010 A 
ENDBRANCH  11  14
ENDBRANCH   8  11
ENDBRANCH   5   7
BRANCH   1  21
HETATM   21  C   UNL     1      43.167 -18.638   3.510  1.00  0.00     0.029 A 
HETATM   22  C   UNL     1      43.982 -18.660   4.653  1.00  0.00     0.081 A 
HETATM   23  C   UNL     1      44.931 -19.673   4.834  1.00  0.00     0.039 A 
HETATM   24  C   UNL     1      45.051 -20.693   3.890  1.00  0.00     0.026 A 
HETATM   25  C   UNL     1      44.234 -20.687   2.762  1.00  0.00     0.035 A 
HETATM   26  C   UNL     1      43.300 -19.670   2.566  1.00  0.00     0.040 A 
HETATM   27 CL   UNL     1      44.385 -21.940   1.592  1.00  0.00    -0.084 Cl
BRANCH  22  28
HETATM   28  O   UNL     1      43.945 -17.640   5.570  1.00  0.00    -0.355 OA
HETATM   29  C   UNL     1      44.976 -17.813   6.543  1.00  0.00     0.210 C 
ENDBRANCH  22  28
ENDBRANCH   1  21
TORSDOF 5
ENDMDL
