MODEL 1
REMARK VINA RESULT:      -9.4      0.000      0.000
REMARK  3 active torsions:
REMARK  status: ('A' for Active; 'I' for Inactive)
REMARK    1  A    between atoms: C_2  and  C_3 
REMARK    2  A    between atoms: C_5  and  N_6 
REMARK       I    between atoms: N_6  and  C_7 
REMARK    3  A    between atoms: C_7  and  C_8 
ROOT
HETATM    1  C   UNL     1      43.678 -16.295   5.767  1.00  0.00     0.155 A 
HETATM    2  N   UNL     1      42.905 -15.782   4.778  1.00  0.00    -0.168 NA
HETATM    3  N   UNL     1      42.833 -16.780   3.868  1.00  0.00    -0.276 N 
HETATM    4  H   UNL     1      42.297 -16.623   3.021  1.00  0.00     0.189 HD
HETATM    5  C   UNL     1      43.522 -17.890   4.235  1.00  0.00     0.074 A 
HETATM    6  C   UNL     1      44.069 -17.618   5.459  1.00  0.00     0.031 A 
HETATM    7  C   UNL     1      44.901 -18.608   6.178  1.00  0.00     0.219 A 
HETATM    8  O   UNL     1      45.023 -19.908   5.534  1.00  0.00    -0.346 OA
HETATM    9  C   UNL     1      44.486 -20.105   4.279  1.00  0.00     0.081 A 
HETATM   10  C   UNL     1      43.726 -19.152   3.572  1.00  0.00     0.026 A 
HETATM   11  C   UNL     1      44.733 -21.353   3.709  1.00  0.00     0.038 A 
HETATM   12  C   UNL     1      44.233 -21.655   2.441  1.00  0.00     0.003 A 
HETATM   13  C   UNL     1      43.483 -20.708   1.740  1.00  0.00     0.001 A 
HETATM   14  C   UNL     1      43.226 -19.455   2.304  1.00  0.00     0.016 A 
ENDROOT
BRANCH   1  15
HETATM   15  C   UNL     1      44.035 -15.513   6.966  1.00  0.00     0.277 C 
HETATM   16  N   UNL     1      44.598 -14.299   6.634  1.00  0.00    -0.322 N 
HETATM   17  H   UNL     1      44.655 -14.144   5.629  1.00  0.00     0.169 HD
HETATM   18  O   UNL     1      43.834 -15.952   8.093  1.00  0.00    -0.266 OA
BRANCH  16  19
HETATM   19  C   UNL     1      45.097 -13.300   7.486  1.00  0.00     0.035 A 
HETATM   20  C   UNL     1      44.355 -12.709   8.512  1.00  0.00     0.036 A 
HETATM   21  C   UNL     1      44.921 -11.721   9.336  1.00  0.00    -0.056 A 
HETATM   22  C   UNL     1      46.243 -11.319   9.112  1.00  0.00     0.007 A 
HETATM   23  C   UNL     1      46.989 -11.903   8.091  1.00  0.00     0.003 A 
HETATM   24  C   UNL     1      46.420 -12.888   7.283  1.00  0.00     0.029 A 
BRANCH  21  25
HETATM   25  C   UNL     1      44.103 -11.088  10.432  1.00  0.00     0.034 C 
HETATM   26  C   UNL     1      43.879 -12.042  11.596  1.00  0.00     0.010 C 
ENDBRANCH  21  25
ENDBRANCH  16  19
ENDBRANCH   1  15
TORSDOF 3
ENDMDL
MODEL 2
REMARK VINA RESULT:      -8.6      2.682      9.509
REMARK  3 active torsions:
REMARK  status: ('A' for Active; 'I' for Inactive)
REMARK    1  A    between atoms: C_2  and  C_3 
REMARK    2  A    between atoms: C_5  and  N_6 
REMARK       I    between atoms: N_6  and  C_7 
REMARK    3  A    between atoms: C_7  and  C_8 
ROOT
HETATM    1  C   UNL     1      44.771 -12.552   9.010  1.00  0.00     0.155 A 
HETATM    2  N   UNL     1      45.587 -12.723  10.080  1.00  0.00    -0.168 NA
HETATM    3  N   UNL     1      45.124 -11.836  10.991  1.00  0.00    -0.276 N 
HETATM    4  H   UNL     1      45.589 -11.780  11.890  1.00  0.00     0.189 HD
HETATM    5  C   UNL     1      44.062 -11.118  10.546  1.00  0.00     0.074 A 
HETATM    6  C   UNL     1      43.799 -11.561   9.278  1.00  0.00     0.031 A 
HETATM    7  C   UNL     1      42.697 -10.996   8.469  1.00  0.00     0.219 A 
HETATM    8  O   UNL     1      41.869 -10.006   9.143  1.00  0.00    -0.346 OA
HETATM    9  C   UNL     1      42.213  -9.568  10.404  1.00  0.00     0.081 A 
HETATM   10  C   UNL     1      43.286 -10.075  11.166  1.00  0.00     0.026 A 
HETATM   11  C   UNL     1      41.411  -8.555  10.929  1.00  0.00     0.038 A 
HETATM   12  C   UNL     1      41.674  -8.042  12.200  1.00  0.00     0.003 A 
HETATM   13  C   UNL     1      42.739  -8.542  12.951  1.00  0.00     0.001 A 
HETATM   14  C   UNL     1      43.547  -9.560  12.437  1.00  0.00     0.016 A 
ENDROOT
BRANCH   1  15
HETATM   15  C   UNL     1      44.944 -13.320   7.763  1.00  0.00     0.277 C 
HETATM   16  N   UNL     1      44.024 -14.342   7.662  1.00  0.00    -0.322 N 
HETATM   17  H   UNL     1      43.379 -14.380   8.449  1.00  0.00     0.169 HD
HETATM   18  O   UNL     1      45.825 -13.035   6.960  1.00  0.00    -0.266 OA
BRANCH  16  19
HETATM   19  C   UNL     1      43.890 -15.306   6.650  1.00  0.00     0.035 A 
HETATM   20  C   UNL     1      44.394 -16.606   6.742  1.00  0.00     0.036 A 
HETATM   21  C   UNL     1      44.213 -17.526   5.694  1.00  0.00    -0.056 A 
HETATM   22  C   UNL     1      43.528 -17.124   4.541  1.00  0.00     0.007 A 
HETATM   23  C   UNL     1      43.024 -15.830   4.442  1.00  0.00     0.003 A 
HETATM   24  C   UNL     1      43.202 -14.927   5.491  1.00  0.00     0.029 A 
BRANCH  21  25
HETATM   25  C   UNL     1      44.772 -18.922   5.806  1.00  0.00     0.034 C 
HETATM   26  C   UNL     1      44.516 -19.738   4.548  1.00  0.00     0.010 C 
ENDBRANCH  21  25
ENDBRANCH  16  19
ENDBRANCH   1  15
TORSDOF 3
ENDMDL
MODEL 3
REMARK VINA RESULT:      -8.6      5.178      8.417
REMARK  3 active torsions:
REMARK  status: ('A' for Active; 'I' for Inactive)
REMARK    1  A    between atoms: C_2  and  C_3 
REMARK    2  A    between atoms: C_5  and  N_6 
REMARK       I    between atoms: N_6  and  C_7 
REMARK    3  A    between atoms: C_7  and  C_8 
ROOT
HETATM    1  C   UNL     1      42.084 -15.305   2.056  1.00  0.00     0.155 A 
HETATM    2  N   UNL     1      42.357 -14.071   2.547  1.00  0.00    -0.168 NA
HETATM    3  N   UNL     1      42.210 -13.253   1.480  1.00  0.00    -0.276 N 
HETATM    4  H   UNL     1      42.368 -12.260   1.607  1.00  0.00     0.189 HD
HETATM    5  C   UNL     1      41.861 -13.911   0.345  1.00  0.00     0.074 A 
HETATM    6  C   UNL     1      41.759 -15.233   0.681  1.00  0.00     0.031 A 
HETATM    7  C   UNL     1      41.396 -16.264  -0.315  1.00  0.00     0.219 A 
HETATM    8  O   UNL     1      41.075 -15.764  -1.645  1.00  0.00    -0.346 OA
HETATM    9  C   UNL     1      41.242 -14.426  -1.932  1.00  0.00     0.081 A 
HETATM   10  C   UNL     1      41.625 -13.445  -0.997  1.00  0.00     0.026 A 
HETATM   11  C   UNL     1      40.994 -14.060  -3.255  1.00  0.00     0.038 A 
HETATM   12  C   UNL     1      41.133 -12.729  -3.651  1.00  0.00     0.003 A 
HETATM   13  C   UNL     1      41.517 -11.759  -2.723  1.00  0.00     0.001 A 
HETATM   14  C   UNL     1      41.763 -12.113  -1.394  1.00  0.00     0.016 A 
ENDROOT
BRANCH   1  15
HETATM   15  C   UNL     1      42.154 -16.515   2.896  1.00  0.00     0.277 C 
HETATM   16  N   UNL     1      43.411 -17.081   2.871  1.00  0.00    -0.322 N 
HETATM   17  H   UNL     1      44.073 -16.563   2.297  1.00  0.00     0.169 HD
HETATM   18  O   UNL     1      41.173 -16.918   3.511  1.00  0.00    -0.266 OA
BRANCH  16  19
HETATM   19  C   UNL     1      43.861 -18.250   3.506  1.00  0.00     0.035 A 
HETATM   20  C   UNL     1      43.955 -19.493   2.873  1.00  0.00     0.036 A 
HETATM   21  C   UNL     1      44.425 -20.622   3.567  1.00  0.00    -0.056 A 
HETATM   22  C   UNL     1      44.791 -20.495   4.912  1.00  0.00     0.007 A 
HETATM   23  C   UNL     1      44.699 -19.261   5.549  1.00  0.00     0.003 A 
HETATM   24  C   UNL     1      44.238 -18.144   4.850  1.00  0.00     0.029 A 
BRANCH  21  25
HETATM   25  C   UNL     1      44.511 -21.957   2.871  1.00  0.00     0.034 C 
HETATM   26  C   UNL     1      43.993 -21.885   1.443  1.00  0.00     0.010 C 
ENDBRANCH  21  25
ENDBRANCH  16  19
ENDBRANCH   1  15
TORSDOF 3
ENDMDL
MODEL 4
REMARK VINA RESULT:      -8.5      4.932      7.294
REMARK  3 active torsions:
REMARK  status: ('A' for Active; 'I' for Inactive)
REMARK    1  A    between atoms: C_2  and  C_3 
REMARK    2  A    between atoms: C_5  and  N_6 
REMARK       I    between atoms: N_6  and  C_7 
REMARK    3  A    between atoms: C_7  and  C_8 
ROOT
HETATM    1  C   UNL     1      42.941 -16.626   3.386  1.00  0.00     0.155 A 
HETATM    2  N   UNL     1      43.302 -16.444   4.680  1.00  0.00    -0.168 NA
HETATM    3  N   UNL     1      43.797 -17.646   5.055  1.00  0.00    -0.276 N 
HETATM    4  H   UNL     1      44.134 -17.756   6.004  1.00  0.00     0.189 HD
HETATM    5  C   UNL     1      43.762 -18.571   4.062  1.00  0.00     0.074 A 
HETATM    6  C   UNL     1      43.228 -17.946   2.969  1.00  0.00     0.031 A 
HETATM    7  C   UNL     1      43.032 -18.653   1.685  1.00  0.00     0.219 A 
HETATM    8  O   UNL     1      43.522 -20.024   1.645  1.00  0.00    -0.346 OA
HETATM    9  C   UNL     1      44.007 -20.613   2.793  1.00  0.00     0.081 A 
HETATM   10  C   UNL     1      44.161 -19.955   4.030  1.00  0.00     0.026 A 
HETATM   11  C   UNL     1      44.368 -21.955   2.674  1.00  0.00     0.038 A 
HETATM   12  C   UNL     1      44.872 -22.644   3.778  1.00  0.00     0.003 A 
HETATM   13  C   UNL     1      45.020 -21.992   5.004  1.00  0.00     0.001 A 
HETATM   14  C   UNL     1      44.666 -20.646   5.133  1.00  0.00     0.016 A 
ENDROOT
BRANCH   1  15
HETATM   15  C   UNL     1      42.322 -15.550   2.588  1.00  0.00     0.277 C 
HETATM   16  N   UNL     1      41.105 -15.937   2.068  1.00  0.00    -0.322 N 
HETATM   17  H   UNL     1      40.837 -16.883   2.336  1.00  0.00     0.169 HD
HETATM   18  O   UNL     1      42.880 -14.469   2.439  1.00  0.00    -0.266 OA
BRANCH  16  19
HETATM   19  C   UNL     1      40.236 -15.215   1.234  1.00  0.00     0.035 A 
HETATM   20  C   UNL     1      40.552 -14.829  -0.071  1.00  0.00     0.036 A 
HETATM   21  C   UNL     1      39.629 -14.117  -0.856  1.00  0.00    -0.056 A 
HETATM   22  C   UNL     1      38.383 -13.782  -0.313  1.00  0.00     0.007 A 
HETATM   23  C   UNL     1      38.061 -14.163   0.987  1.00  0.00     0.003 A 
HETATM   24  C   UNL     1      38.982 -14.877   1.756  1.00  0.00     0.029 A 
BRANCH  21  25
HETATM   25  C   UNL     1      39.990 -13.700  -2.259  1.00  0.00     0.034 C 
HETATM   26  C   UNL     1      40.893 -14.719  -2.938  1.00  0.00     0.010 C 
ENDBRANCH  21  25
ENDBRANCH  16  19
ENDBRANCH   1  15
TORSDOF 3
ENDMDL
MODEL 5
REMARK VINA RESULT:      -8.5      6.683      9.575
REMARK  3 active torsions:
REMARK  status: ('A' for Active; 'I' for Inactive)
REMARK    1  A    between atoms: C_2  and  C_3 
REMARK    2  A    between atoms: C_5  and  N_6 
REMARK       I    between atoms: N_6  and  C_7 
REMARK    3  A    between atoms: C_7  and  C_8 
ROOT
HETATM    1  C   UNL     1      41.456 -15.182  -0.720  1.00  0.00     0.155 A 
HETATM    2  N   UNL     1      41.057 -15.683  -1.915  1.00  0.00    -0.168 NA
HETATM    3  N   UNL     1      41.210 -14.647  -2.772  1.00  0.00    -0.276 N 
HETATM    4  H   UNL     1      40.967 -14.787  -3.746  1.00  0.00     0.189 HD
HETATM    5  C   UNL     1      41.683 -13.524  -2.174  1.00  0.00     0.074 A 
HETATM    6  C   UNL     1      41.865 -13.835  -0.855  1.00  0.00     0.031 A 
HETATM    7  C   UNL     1      42.372 -12.842   0.117  1.00  0.00     0.219 A 
HETATM    8  O   UNL     1      42.740 -11.549  -0.444  1.00  0.00    -0.346 OA
HETATM    9  C   UNL     1      42.490 -11.282  -1.773  1.00  0.00     0.081 A 
HETATM   10  C   UNL     1      41.970 -12.212  -2.696  1.00  0.00     0.026 A 
HETATM   11  C   UNL     1      42.795  -9.988  -2.194  1.00  0.00     0.038 A 
HETATM   12  C   UNL     1      42.580  -9.615  -3.521  1.00  0.00     0.003 A 
HETATM   13  C   UNL     1      42.061 -10.537  -4.433  1.00  0.00     0.001 A 
HETATM   14  C   UNL     1      41.756 -11.837  -4.024  1.00  0.00     0.016 A 
ENDROOT
BRANCH   1  15
HETATM   15  C   UNL     1      41.425 -15.988   0.515  1.00  0.00     0.277 C 
HETATM   16  N   UNL     1      42.658 -16.541   0.794  1.00  0.00    -0.322 N 
HETATM   17  H   UNL     1      43.374 -16.287   0.116  1.00  0.00     0.169 HD
HETATM   18  O   UNL     1      40.394 -16.115   1.165  1.00  0.00    -0.266 OA
BRANCH  16  19
HETATM   19  C   UNL     1      43.020 -17.391   1.851  1.00  0.00     0.035 A 
HETATM   20  C   UNL     1      43.583 -18.658   1.673  1.00  0.00     0.036 A 
HETATM   21  C   UNL     1      43.934 -19.453   2.778  1.00  0.00    -0.056 A 
HETATM   22  C   UNL     1      43.703 -18.969   4.070  1.00  0.00     0.007 A 
HETATM   23  C   UNL     1      43.141 -17.708   4.256  1.00  0.00     0.003 A 
HETATM   24  C   UNL     1      42.803 -16.923   3.152  1.00  0.00     0.029 A 
BRANCH  21  25
HETATM   25  C   UNL     1      44.532 -20.821   2.567  1.00  0.00     0.034 C 
HETATM   26  C   UNL     1      43.656 -21.691   1.678  1.00  0.00     0.010 C 
ENDBRANCH  21  25
ENDBRANCH  16  19
ENDBRANCH   1  15
TORSDOF 3
ENDMDL
MODEL 6
REMARK VINA RESULT:      -8.4      1.991      2.771
REMARK  3 active torsions:
REMARK  status: ('A' for Active; 'I' for Inactive)
REMARK    1  A    between atoms: C_2  and  C_3 
REMARK    2  A    between atoms: C_5  and  N_6 
REMARK       I    between atoms: N_6  and  C_7 
REMARK    3  A    between atoms: C_7  and  C_8 
ROOT
HETATM    1  C   UNL     1      43.721 -15.167   6.473  1.00  0.00     0.155 A 
HETATM    2  N   UNL     1      43.816 -16.294   7.221  1.00  0.00    -0.168 NA
HETATM    3  N   UNL     1      43.780 -17.295   6.311  1.00  0.00    -0.276 N 
HETATM    4  H   UNL     1      43.834 -18.252   6.643  1.00  0.00     0.189 HD
HETATM    5  C   UNL     1      43.666 -16.852   5.033  1.00  0.00     0.074 A 
HETATM    6  C   UNL     1      43.638 -15.486   5.098  1.00  0.00     0.031 A 
HETATM    7  C   UNL     1      43.515 -14.651   3.884  1.00  0.00     0.219 A 
HETATM    8  O   UNL     1      43.513 -15.378   2.622  1.00  0.00    -0.346 OA
HETATM    9  C   UNL     1      43.497 -16.756   2.625  1.00  0.00     0.081 A 
HETATM   10  C   UNL     1      43.574 -17.558   3.781  1.00  0.00     0.026 A 
HETATM   11  C   UNL     1      43.405 -17.359   1.371  1.00  0.00     0.038 A 
HETATM   12  C   UNL     1      43.383 -18.751   1.263  1.00  0.00     0.003 A 
HETATM   13  C   UNL     1      43.455 -19.543   2.410  1.00  0.00     0.001 A 
HETATM   14  C   UNL     1      43.553 -18.950   3.671  1.00  0.00     0.016 A 
ENDROOT
BRANCH   1  15
HETATM   15  C   UNL     1      43.698 -13.824   7.082  1.00  0.00     0.277 C 
HETATM   16  N   UNL     1      44.470 -13.768   8.224  1.00  0.00    -0.322 N 
HETATM   17  H   UNL     1      44.932 -14.650   8.439  1.00  0.00     0.169 HD
HETATM   18  O   UNL     1      43.045 -12.913   6.587  1.00  0.00    -0.266 OA
BRANCH  16  19
HETATM   19  C   UNL     1      44.671 -12.687   9.097  1.00  0.00     0.035 A 
HETATM   20  C   UNL     1      43.865 -12.424  10.208  1.00  0.00     0.036 A 
HETATM   21  C   UNL     1      44.131 -11.329  11.048  1.00  0.00    -0.056 A 
HETATM   22  C   UNL     1      45.211 -10.488  10.756  1.00  0.00     0.007 A 
HETATM   23  C   UNL     1      46.018 -10.743   9.650  1.00  0.00     0.003 A 
HETATM   24  C   UNL     1      45.750 -11.838   8.826  1.00  0.00     0.029 A 
BRANCH  21  25
HETATM   25  C   UNL     1      43.246 -11.054  12.238  1.00  0.00     0.034 C 
HETATM   26  C   UNL     1      43.568  -9.717  12.887  1.00  0.00     0.010 C 
ENDBRANCH  21  25
ENDBRANCH  16  19
ENDBRANCH   1  15
TORSDOF 3
ENDMDL
MODEL 7
REMARK VINA RESULT:      -8.3      4.203      5.798
REMARK  3 active torsions:
REMARK  status: ('A' for Active; 'I' for Inactive)
REMARK    1  A    between atoms: C_2  and  C_3 
REMARK    2  A    between atoms: C_5  and  N_6 
REMARK       I    between atoms: N_6  and  C_7 
REMARK    3  A    between atoms: C_7  and  C_8 
ROOT
HETATM    1  C   UNL     1      43.276 -16.550   4.279  1.00  0.00     0.155 A 
HETATM    2  N   UNL     1      43.654 -16.657   5.577  1.00  0.00    -0.168 NA
HETATM    3  N   UNL     1      44.064 -17.940   5.695  1.00  0.00    -0.276 N 
HETATM    4  H   UNL     1      44.397 -18.261   6.597  1.00  0.00     0.189 HD
HETATM    5  C   UNL     1      43.961 -18.643   4.538  1.00  0.00     0.074 A 
HETATM    6  C   UNL     1      43.468 -17.776   3.602  1.00  0.00     0.031 A 
HETATM    7  C   UNL     1      43.218 -18.196   2.206  1.00  0.00     0.219 A 
HETATM    8  O   UNL     1      43.610 -19.562   1.884  1.00  0.00    -0.346 OA
HETATM    9  C   UNL     1      44.057 -20.400   2.883  1.00  0.00     0.081 A 
HETATM   10  C   UNL     1      44.261 -20.016   4.223  1.00  0.00     0.026 A 
HETATM   11  C   UNL     1      44.322 -21.713   2.492  1.00  0.00     0.038 A 
HETATM   12  C   UNL     1      44.781 -22.642   3.427  1.00  0.00     0.003 A 
HETATM   13  C   UNL     1      44.979 -22.260   4.755  1.00  0.00     0.001 A 
HETATM   14  C   UNL     1      44.721 -20.947   5.157  1.00  0.00     0.016 A 
ENDROOT
BRANCH   1  15
HETATM   15  C   UNL     1      42.731 -15.297   3.724  1.00  0.00     0.277 C 
HETATM   16  N   UNL     1      41.433 -15.079   4.134  1.00  0.00    -0.322 N 
HETATM   17  H   UNL     1      41.082 -15.804   4.757  1.00  0.00     0.169 HD
HETATM   18  O   UNL     1      43.403 -14.585   2.986  1.00  0.00    -0.266 OA
BRANCH  16  19
HETATM   19  C   UNL     1      40.568 -14.026   3.793  1.00  0.00     0.035 A 
HETATM   20  C   UNL     1      39.868 -13.954   2.586  1.00  0.00     0.036 A 
HETATM   21  C   UNL     1      39.008 -12.876   2.314  1.00  0.00    -0.056 A 
HETATM   22  C   UNL     1      38.866 -11.858   3.264  1.00  0.00     0.007 A 
HETATM   23  C   UNL     1      39.562 -11.922   4.468  1.00  0.00     0.003 A 
HETATM   24  C   UNL     1      40.407 -13.001   4.732  1.00  0.00     0.029 A 
BRANCH  21  25
HETATM   25  C   UNL     1      38.267 -12.810   1.003  1.00  0.00     0.034 C 
HETATM   26  C   UNL     1      37.423 -14.053   0.765  1.00  0.00     0.010 C 
ENDBRANCH  21  25
ENDBRANCH  16  19
ENDBRANCH   1  15
TORSDOF 3
ENDMDL
MODEL 8
REMARK VINA RESULT:      -8.2      5.539      8.862
REMARK  3 active torsions:
REMARK  status: ('A' for Active; 'I' for Inactive)
REMARK    1  A    between atoms: C_2  and  C_3 
REMARK    2  A    between atoms: C_5  and  N_6 
REMARK       I    between atoms: N_6  and  C_7 
REMARK    3  A    between atoms: C_7  and  C_8 
ROOT
HETATM    1  C   UNL     1      41.149 -15.816   2.208  1.00  0.00     0.155 A 
HETATM    2  N   UNL     1      40.400 -15.560   3.308  1.00  0.00    -0.168 NA
HETATM    3  N   UNL     1      39.414 -14.754   2.854  1.00  0.00    -0.276 N 
HETATM    4  H   UNL     1      38.718 -14.423   3.513  1.00  0.00     0.189 HD
HETATM    5  C   UNL     1      39.508 -14.491   1.525  1.00  0.00     0.074 A 
HETATM    6  C   UNL     1      40.607 -15.169   1.074  1.00  0.00     0.031 A 
HETATM    7  C   UNL     1      41.028 -15.114  -0.343  1.00  0.00     0.219 A 
HETATM    8  O   UNL     1      40.148 -14.363  -1.229  1.00  0.00    -0.346 OA
HETATM    9  C   UNL     1      39.081 -13.665  -0.705  1.00  0.00     0.081 A 
HETATM   10  C   UNL     1      38.698 -13.682   0.651  1.00  0.00     0.026 A 
HETATM   11  C   UNL     1      38.352 -12.906  -1.620  1.00  0.00     0.038 A 
HETATM   12  C   UNL     1      37.251 -12.161  -1.192  1.00  0.00     0.003 A 
HETATM   13  C   UNL     1      36.875 -12.176   0.153  1.00  0.00     0.001 A 
HETATM   14  C   UNL     1      37.596 -12.937   1.077  1.00  0.00     0.016 A 
ENDROOT
BRANCH   1  15
HETATM   15  C   UNL     1      42.363 -16.653   2.264  1.00  0.00     0.277 C 
HETATM   16  N   UNL     1      42.250 -17.651   3.209  1.00  0.00    -0.322 N 
HETATM   17  H   UNL     1      41.352 -17.650   3.689  1.00  0.00     0.169 HD
HETATM   18  O   UNL     1      43.322 -16.429   1.535  1.00  0.00    -0.266 OA
BRANCH  16  19
HETATM   19  C   UNL     1      43.197 -18.618   3.582  1.00  0.00     0.035 A 
HETATM   20  C   UNL     1      43.526 -19.729   2.800  1.00  0.00     0.036 A 
HETATM   21  C   UNL     1      44.494 -20.653   3.230  1.00  0.00    -0.056 A 
HETATM   22  C   UNL     1      45.124 -20.459   4.465  1.00  0.00     0.007 A 
HETATM   23  C   UNL     1      44.801 -19.355   5.250  1.00  0.00     0.003 A 
HETATM   24  C   UNL     1      43.845 -18.439   4.810  1.00  0.00     0.029 A 
BRANCH  21  25
HETATM   25  C   UNL     1      44.829 -21.851   2.378  1.00  0.00     0.034 C 
HETATM   26  C   UNL     1      43.863 -22.006   1.214  1.00  0.00     0.010 C 
ENDBRANCH  21  25
ENDBRANCH  16  19
ENDBRANCH   1  15
TORSDOF 3
ENDMDL
MODEL 9
REMARK VINA RESULT:      -8.1      4.252      8.335
REMARK  3 active torsions:
REMARK  status: ('A' for Active; 'I' for Inactive)
REMARK    1  A    between atoms: C_2  and  C_3 
REMARK    2  A    between atoms: C_5  and  N_6 
REMARK       I    between atoms: N_6  and  C_7 
REMARK    3  A    between atoms: C_7  and  C_8 
ROOT
HETATM    1  C   UNL     1      42.548 -16.065   1.972  1.00  0.00     0.155 A 
HETATM    2  N   UNL     1      42.071 -15.460   0.856  1.00  0.00    -0.168 NA
HETATM    3  N   UNL     1      41.275 -14.475   1.330  1.00  0.00    -0.276 N 
HETATM    4  H   UNL     1      40.797 -13.878   0.665  1.00  0.00     0.189 HD
HETATM    5  C   UNL     1      41.227 -14.433   2.686  1.00  0.00     0.074 A 
HETATM    6  C   UNL     1      42.045 -15.434   3.133  1.00  0.00     0.031 A 
HETATM    7  C   UNL     1      42.239 -15.695   4.576  1.00  0.00     0.219 A 
HETATM    8  O   UNL     1      41.572 -14.764   5.476  1.00  0.00    -0.346 OA
HETATM    9  C   UNL     1      40.725 -13.804   4.964  1.00  0.00     0.081 A 
HETATM   10  C   UNL     1      40.505 -13.576   3.591  1.00  0.00     0.026 A 
HETATM   11  C   UNL     1      40.065 -13.020   5.910  1.00  0.00     0.038 A 
HETATM   12  C   UNL     1      39.185 -12.018   5.496  1.00  0.00     0.003 A 
HETATM   13  C   UNL     1      38.965 -11.796   4.136  1.00  0.00     0.001 A 
HETATM   14  C   UNL     1      39.625 -12.573   3.180  1.00  0.00     0.016 A 
ENDROOT
BRANCH   1  15
HETATM   15  C   UNL     1      43.453 -17.228   1.907  1.00  0.00     0.277 C 
HETATM   16  N   UNL     1      42.892 -18.343   2.493  1.00  0.00    -0.322 N 
HETATM   17  H   UNL     1      41.954 -18.178   2.852  1.00  0.00     0.169 HD
HETATM   18  O   UNL     1      44.559 -17.143   1.385  1.00  0.00    -0.266 OA
BRANCH  16  19
HETATM   19  C   UNL     1      43.449 -19.621   2.662  1.00  0.00     0.035 A 
HETATM   20  C   UNL     1      43.983 -20.085   3.867  1.00  0.00     0.036 A 
HETATM   21  C   UNL     1      44.514 -21.382   3.969  1.00  0.00    -0.056 A 
HETATM   22  C   UNL     1      44.518 -22.211   2.840  1.00  0.00     0.007 A 
HETATM   23  C   UNL     1      43.989 -21.755   1.636  1.00  0.00     0.003 A 
HETATM   24  C   UNL     1      43.456 -20.468   1.547  1.00  0.00     0.029 A 
BRANCH  21  25
HETATM   25  C   UNL     1      45.095 -21.863   5.275  1.00  0.00     0.034 C 
HETATM   26  C   UNL     1      44.196 -21.521   6.454  1.00  0.00     0.010 C 
ENDBRANCH  21  25
ENDBRANCH  16  19
ENDBRANCH   1  15
TORSDOF 3
ENDMDL
MODEL 10
REMARK VINA RESULT:      -8.1      3.594      4.574
REMARK  3 active torsions:
REMARK  status: ('A' for Active; 'I' for Inactive)
REMARK    1  A    between atoms: C_2  and  C_3 
REMARK    2  A    between atoms: C_5  and  N_6 
REMARK       I    between atoms: N_6  and  C_7 
REMARK    3  A    between atoms: C_7  and  C_8 
ROOT
HETATM    1  C   UNL     1      43.245 -16.324   2.794  1.00  0.00     0.155 A 
HETATM    2  N   UNL     1      43.050 -16.648   1.492  1.00  0.00    -0.168 NA
HETATM    3  N   UNL     1      43.309 -17.975   1.442  1.00  0.00    -0.276 N 
HETATM    4  H   UNL     1      43.229 -18.450   0.550  1.00  0.00     0.189 HD
HETATM    5  C   UNL     1      43.659 -18.497   2.646  1.00  0.00     0.074 A 
HETATM    6  C   UNL     1      43.616 -17.465   3.542  1.00  0.00     0.031 A 
HETATM    7  C   UNL     1      43.945 -17.660   4.971  1.00  0.00     0.219 A 
HETATM    8  O   UNL     1      44.230 -19.033   5.366  1.00  0.00    -0.346 OA
HETATM    9  C   UNL     1      44.303 -20.021   4.407  1.00  0.00     0.081 A 
HETATM   10  C   UNL     1      44.029 -19.833   3.037  1.00  0.00     0.026 A 
HETATM   11  C   UNL     1      44.670 -21.283   4.871  1.00  0.00     0.038 A 
HETATM   12  C   UNL     1      44.772 -22.354   3.982  1.00  0.00     0.003 A 
HETATM   13  C   UNL     1      44.504 -22.165   2.624  1.00  0.00     0.001 A 
HETATM   14  C   UNL     1      44.131 -20.905   2.149  1.00  0.00     0.016 A 
ENDROOT
BRANCH   1  15
HETATM   15  C   UNL     1      43.089 -14.943   3.288  1.00  0.00     0.277 C 
HETATM   16  N   UNL     1      41.889 -14.769   3.945  1.00  0.00    -0.322 N 
HETATM   17  H   UNL     1      41.330 -15.619   3.991  1.00  0.00     0.169 HD
HETATM   18  O   UNL     1      43.957 -14.098   3.097  1.00  0.00    -0.266 OA
BRANCH  16  19
HETATM   19  C   UNL     1      41.364 -13.600   4.520  1.00  0.00     0.035 A 
HETATM   20  C   UNL     1      40.315 -12.863   3.963  1.00  0.00     0.036 A 
HETATM   21  C   UNL     1      39.829 -11.707   4.599  1.00  0.00    -0.056 A 
HETATM   22  C   UNL     1      40.416 -11.288   5.799  1.00  0.00     0.007 A 
HETATM   23  C   UNL     1      41.462 -12.017   6.359  1.00  0.00     0.003 A 
HETATM   24  C   UNL     1      41.932 -13.168   5.724  1.00  0.00     0.029 A 
BRANCH  21  25
HETATM   25  C   UNL     1      38.703 -10.919   3.980  1.00  0.00     0.034 C 
HETATM   26  C   UNL     1      38.291 -11.484   2.629  1.00  0.00     0.010 C 
ENDBRANCH  21  25
ENDBRANCH  16  19
ENDBRANCH   1  15
TORSDOF 3
ENDMDL
