MODEL 1
REMARK VINA RESULT:      -7.7      0.000      0.000
REMARK  5 active torsions:
REMARK  status: ('A' for Active; 'I' for Inactive)
REMARK    1  A    between atoms: C_7  and  O_8 
REMARK    2  A    between atoms: O_8  and  C_9 
REMARK    3  A    between atoms: C_12  and  N_13 
REMARK    4  A    between atoms: N_13  and  C_16 
REMARK    5  A    between atoms: C_16  and  C_17 
ROOT
HETATM    1  C   UNL     1      44.216 -20.583   2.477  1.00  0.00     0.028 A 
HETATM    2  C   UNL     1      44.430 -20.319   3.826  1.00  0.00     0.062 A 
HETATM    3  C   UNL     1      44.764 -21.359   4.746  1.00  0.00     0.101 C 
HETATM    4  N   UNL     1      45.037 -22.187   5.511  1.00  0.00    -0.191 NA
HETATM    5  C   UNL     1      44.313 -19.003   4.262  1.00  0.00     0.142 A 
HETATM    6  N   UNL     1      44.003 -17.949   3.459  1.00  0.00    -0.236 NA
HETATM    7  C   UNL     1      43.803 -18.246   2.154  1.00  0.00     0.164 A 
HETATM    8  C   UNL     1      43.896 -19.528   1.626  1.00  0.00     0.059 A 
ENDROOT
BRANCH   7   9
HETATM    9  O   UNL     1      43.490 -17.262   1.248  1.00  0.00    -0.329 OA
BRANCH   9  10
HETATM   10  C   UNL     1      42.364 -16.417   1.464  1.00  0.00     0.130 C 
HETATM   11  C   UNL     1      42.652 -15.212   2.369  1.00  0.00     0.034 C 
HETATM   12  C   UNL     1      41.440 -14.285   2.459  1.00  0.00     0.035 C 
HETATM   13  C   UNL     1      40.146 -15.012   2.842  1.00  0.00     0.186 C 
HETATM   14  C   UNL     1      39.888 -16.222   1.934  1.00  0.00     0.035 C 
HETATM   15  C   UNL     1      41.083 -17.172   1.841  1.00  0.00     0.034 C 
BRANCH  13  16
HETATM   16  N   UNL     1      40.192 -15.479   4.267  1.00  0.00    -0.067 N 
HETATM   17  H   UNL     1      39.230 -15.663   4.585  1.00  0.00     0.278 HD
HETATM   18  H   UNL     1      40.673 -16.387   4.353  1.00  0.00     0.278 HD
BRANCH  16  19
HETATM   19  C   UNL     1      40.803 -14.525   5.246  1.00  0.00     0.278 C 
BRANCH  19  20
HETATM   20  C   UNL     1      41.998 -15.114   5.922  1.00  0.00     0.009 A 
HETATM   21  S   UNL     1      43.447 -14.208   6.055  1.00  0.00    -0.103 SA
HETATM   22  C   UNL     1      44.242 -15.472   6.893  1.00  0.00     0.072 A 
HETATM   23  C   UNL     1      43.426 -16.568   7.070  1.00  0.00     0.052 A 
HETATM   24  C   UNL     1      43.848 -17.762   7.742  1.00  0.00     0.100 C 
HETATM   25  C   UNL     1      42.129 -16.361   6.505  1.00  0.00     0.039 A 
HETATM   26  N   UNL     1      44.173 -18.739   8.274  1.00  0.00    -0.191 NA
ENDBRANCH  19  20
ENDBRANCH  16  19
ENDBRANCH  13  16
ENDBRANCH   9  10
ENDBRANCH   7   9
TORSDOF 5
ENDMDL
MODEL 2
REMARK VINA RESULT:      -7.7      4.182      7.141
REMARK  5 active torsions:
REMARK  status: ('A' for Active; 'I' for Inactive)
REMARK    1  A    between atoms: C_7  and  O_8 
REMARK    2  A    between atoms: O_8  and  C_9 
REMARK    3  A    between atoms: C_12  and  N_13 
REMARK    4  A    between atoms: N_13  and  C_16 
REMARK    5  A    between atoms: C_16  and  C_17 
ROOT
HETATM    1  C   UNL     1      38.004 -14.063  -2.174  1.00  0.00     0.028 A 
HETATM    2  C   UNL     1      38.050 -14.660  -3.430  1.00  0.00     0.062 A 
HETATM    3  C   UNL     1      36.934 -14.613  -4.320  1.00  0.00     0.101 C 
HETATM    4  N   UNL     1      36.042 -14.586  -5.060  1.00  0.00    -0.191 NA
HETATM    5  C   UNL     1      39.222 -15.309  -3.803  1.00  0.00     0.142 A 
HETATM    6  N   UNL     1      40.334 -15.401  -3.024  1.00  0.00    -0.236 NA
HETATM    7  C   UNL     1      40.251 -14.807  -1.811  1.00  0.00     0.164 A 
HETATM    8  C   UNL     1      39.123 -14.139  -1.350  1.00  0.00     0.059 A 
ENDROOT
BRANCH   7   9
HETATM    9  O   UNL     1      41.313 -14.832  -0.940  1.00  0.00    -0.329 OA
BRANCH   9  10
HETATM   10  C   UNL     1      41.097 -15.031   0.453  1.00  0.00     0.130 C 
HETATM   11  C   UNL     1      41.937 -14.113   1.353  1.00  0.00     0.034 C 
HETATM   12  C   UNL     1      41.568 -14.293   2.825  1.00  0.00     0.035 C 
HETATM   13  C   UNL     1      41.598 -15.755   3.284  1.00  0.00     0.186 C 
HETATM   14  C   UNL     1      40.767 -16.655   2.362  1.00  0.00     0.035 C 
HETATM   15  C   UNL     1      41.129 -16.503   0.884  1.00  0.00     0.034 C 
BRANCH  13  16
HETATM   16  N   UNL     1      43.005 -16.277   3.328  1.00  0.00    -0.067 N 
HETATM   17  H   UNL     1      43.147 -16.910   2.530  1.00  0.00     0.278 HD
HETATM   18  H   UNL     1      43.693 -15.522   3.189  1.00  0.00     0.278 HD
BRANCH  16  19
HETATM   19  C   UNL     1      43.379 -17.037   4.563  1.00  0.00     0.278 C 
BRANCH  19  20
HETATM   20  C   UNL     1      43.881 -18.407   4.240  1.00  0.00     0.009 A 
HETATM   21  S   UNL     1      44.879 -19.245   5.353  1.00  0.00    -0.103 SA
HETATM   22  C   UNL     1      44.990 -20.613   4.329  1.00  0.00     0.072 A 
HETATM   23  C   UNL     1      44.284 -20.441   3.158  1.00  0.00     0.052 A 
HETATM   24  C   UNL     1      44.213 -21.438   2.130  1.00  0.00     0.100 C 
HETATM   25  C   UNL     1      43.646 -19.163   3.106  1.00  0.00     0.039 A 
HETATM   26  N   UNL     1      44.151 -22.227   1.283  1.00  0.00    -0.191 NA
ENDBRANCH  19  20
ENDBRANCH  16  19
ENDBRANCH  13  16
ENDBRANCH   9  10
ENDBRANCH   7   9
TORSDOF 5
ENDMDL
MODEL 3
REMARK VINA RESULT:      -7.4      2.713      5.387
REMARK  5 active torsions:
REMARK  status: ('A' for Active; 'I' for Inactive)
REMARK    1  A    between atoms: C_7  and  O_8 
REMARK    2  A    between atoms: O_8  and  C_9 
REMARK    3  A    between atoms: C_12  and  N_13 
REMARK    4  A    between atoms: N_13  and  C_16 
REMARK    5  A    between atoms: C_16  and  C_17 
ROOT
HETATM    1  C   UNL     1      43.919 -19.043   2.671  1.00  0.00     0.028 A 
HETATM    2  C   UNL     1      44.260 -20.337   3.053  1.00  0.00     0.062 A 
HETATM    3  C   UNL     1      44.251 -21.418   2.120  1.00  0.00     0.101 C 
HETATM    4  N   UNL     1      44.253 -22.310   1.380  1.00  0.00    -0.191 NA
HETATM    5  C   UNL     1      44.615 -20.554   4.380  1.00  0.00     0.142 A 
HETATM    6  N   UNL     1      44.656 -19.586   5.336  1.00  0.00    -0.236 NA
HETATM    7  C   UNL     1      44.319 -18.342   4.925  1.00  0.00     0.164 A 
HETATM    8  C   UNL     1      43.948 -18.028   3.624  1.00  0.00     0.059 A 
ENDROOT
BRANCH   7   9
HETATM    9  O   UNL     1      44.327 -17.284   5.802  1.00  0.00    -0.329 OA
BRANCH   9  10
HETATM   10  C   UNL     1      43.137 -16.542   6.047  1.00  0.00     0.130 C 
HETATM   11  C   UNL     1      41.855 -17.386   6.002  1.00  0.00     0.034 C 
HETATM   12  C   UNL     1      40.632 -16.556   6.393  1.00  0.00     0.035 C 
HETATM   13  C   UNL     1      40.505 -15.251   5.599  1.00  0.00     0.186 C 
HETATM   14  C   UNL     1      41.802 -14.433   5.644  1.00  0.00     0.035 C 
HETATM   15  C   UNL     1      43.038 -15.240   5.242  1.00  0.00     0.034 C 
BRANCH  13  16
HETATM   16  N   UNL     1      40.156 -15.525   4.166  1.00  0.00    -0.067 N 
HETATM   17  H   UNL     1      40.946 -16.013   3.721  1.00  0.00     0.278 HD
HETATM   18  H   UNL     1      39.365 -16.182   4.087  1.00  0.00     0.278 HD
BRANCH  16  19
HETATM   19  C   UNL     1      39.857 -14.321   3.326  1.00  0.00     0.278 C 
BRANCH  19  20
HETATM   20  C   UNL     1      40.214 -14.542   1.893  1.00  0.00     0.009 A 
HETATM   21  S   UNL     1      41.602 -15.459   1.481  1.00  0.00    -0.103 SA
HETATM   22  C   UNL     1      41.315 -15.270  -0.196  1.00  0.00     0.072 A 
HETATM   23  C   UNL     1      40.185 -14.521  -0.446  1.00  0.00     0.052 A 
HETATM   24  C   UNL     1      39.721 -14.216  -1.768  1.00  0.00     0.100 C 
HETATM   25  C   UNL     1      39.551 -14.098   0.763  1.00  0.00     0.039 A 
HETATM   26  N   UNL     1      39.335 -13.950  -2.828  1.00  0.00    -0.191 NA
ENDBRANCH  19  20
ENDBRANCH  16  19
ENDBRANCH  13  16
ENDBRANCH   9  10
ENDBRANCH   7   9
TORSDOF 5
ENDMDL
MODEL 4
REMARK VINA RESULT:      -7.3      2.564      5.337
REMARK  5 active torsions:
REMARK  status: ('A' for Active; 'I' for Inactive)
REMARK    1  A    between atoms: C_7  and  O_8 
REMARK    2  A    between atoms: O_8  and  C_9 
REMARK    3  A    between atoms: C_12  and  N_13 
REMARK    4  A    between atoms: N_13  and  C_16 
REMARK    5  A    between atoms: C_16  and  C_17 
ROOT
HETATM    1  C   UNL     1      43.638 -15.233   6.578  1.00  0.00     0.028 A 
HETATM    2  C   UNL     1      43.817 -13.877   6.833  1.00  0.00     0.062 A 
HETATM    3  C   UNL     1      44.906 -13.405   7.628  1.00  0.00     0.101 C 
HETATM    4  N   UNL     1      45.783 -12.999   8.269  1.00  0.00    -0.191 NA
HETATM    5  C   UNL     1      42.903 -12.983   6.288  1.00  0.00     0.142 A 
HETATM    6  N   UNL     1      41.840 -13.340   5.517  1.00  0.00    -0.236 NA
HETATM    7  C   UNL     1      41.700 -14.667   5.290  1.00  0.00     0.164 A 
HETATM    8  C   UNL     1      42.560 -15.635   5.794  1.00  0.00     0.059 A 
ENDROOT
BRANCH   7   9
HETATM    9  O   UNL     1      40.666 -15.145   4.522  1.00  0.00    -0.329 OA
BRANCH   9  10
HETATM   10  C   UNL     1      40.892 -15.524   3.168  1.00  0.00     0.130 C 
HETATM   11  C   UNL     1      40.890 -17.042   2.936  1.00  0.00     0.034 C 
HETATM   12  C   UNL     1      41.015 -17.374   1.449  1.00  0.00     0.035 C 
HETATM   13  C   UNL     1      42.196 -16.675   0.767  1.00  0.00     0.186 C 
HETATM   14  C   UNL     1      42.186 -15.164   1.027  1.00  0.00     0.035 C 
HETATM   15  C   UNL     1      42.078 -14.807   2.510  1.00  0.00     0.034 C 
BRANCH  13  16
HETATM   16  N   UNL     1      43.503 -17.238   1.244  1.00  0.00    -0.067 N 
HETATM   17  H   UNL     1      44.250 -16.920   0.612  1.00  0.00     0.278 HD
HETATM   18  H   UNL     1      43.764 -16.861   2.168  1.00  0.00     0.278 HD
BRANCH  16  19
HETATM   19  C   UNL     1      43.586 -18.733   1.304  1.00  0.00     0.278 C 
BRANCH  19  20
HETATM   20  C   UNL     1      44.028 -19.210   2.648  1.00  0.00     0.009 A 
HETATM   21  S   UNL     1      44.668 -20.790   2.835  1.00  0.00    -0.103 SA
HETATM   22  C   UNL     1      44.924 -20.562   4.513  1.00  0.00     0.072 A 
HETATM   23  C   UNL     1      44.530 -19.310   4.931  1.00  0.00     0.052 A 
HETATM   24  C   UNL     1      44.638 -18.865   6.289  1.00  0.00     0.100 C 
HETATM   25  C   UNL     1      44.009 -18.529   3.852  1.00  0.00     0.039 A 
HETATM   26  N   UNL     1      44.709 -18.489   7.383  1.00  0.00    -0.191 NA
ENDBRANCH  19  20
ENDBRANCH  16  19
ENDBRANCH  13  16
ENDBRANCH   9  10
ENDBRANCH   7   9
TORSDOF 5
ENDMDL
MODEL 5
REMARK VINA RESULT:      -7.1      2.003      4.861
REMARK  5 active torsions:
REMARK  status: ('A' for Active; 'I' for Inactive)
REMARK    1  A    between atoms: C_7  and  O_8 
REMARK    2  A    between atoms: O_8  and  C_9 
REMARK    3  A    between atoms: C_12  and  N_13 
REMARK    4  A    between atoms: N_13  and  C_16 
REMARK    5  A    between atoms: C_16  and  C_17 
ROOT
HETATM    1  C   UNL     1      43.832 -15.725   6.653  1.00  0.00     0.028 A 
HETATM    2  C   UNL     1      43.099 -16.839   7.052  1.00  0.00     0.062 A 
HETATM    3  C   UNL     1      43.703 -17.905   7.785  1.00  0.00     0.101 C 
HETATM    4  N   UNL     1      44.171 -18.781   8.383  1.00  0.00    -0.191 NA
HETATM    5  C   UNL     1      41.750 -16.888   6.718  1.00  0.00     0.142 A 
HETATM    6  N   UNL     1      41.090 -15.919   6.027  1.00  0.00    -0.236 NA
HETATM    7  C   UNL     1      41.836 -14.852   5.657  1.00  0.00     0.164 A 
HETATM    8  C   UNL     1      43.189 -14.715   5.942  1.00  0.00     0.059 A 
ENDROOT
BRANCH   7   9
HETATM    9  O   UNL     1      41.277 -13.810   4.959  1.00  0.00    -0.329 OA
BRANCH   9  10
HETATM   10  C   UNL     1      41.112 -13.895   3.547  1.00  0.00     0.130 C 
HETATM   11  C   UNL     1      40.404 -15.174   3.077  1.00  0.00     0.034 C 
HETATM   12  C   UNL     1      40.152 -15.144   1.570  1.00  0.00     0.035 C 
HETATM   13  C   UNL     1      41.409 -14.832   0.750  1.00  0.00     0.186 C 
HETATM   14  C   UNL     1      42.109 -13.562   1.248  1.00  0.00     0.035 C 
HETATM   15  C   UNL     1      42.385 -13.575   2.752  1.00  0.00     0.034 C 
BRANCH  13  16
HETATM   16  N   UNL     1      42.384 -15.972   0.803  1.00  0.00    -0.067 N 
HETATM   17  H   UNL     1      42.917 -15.992  -0.077  1.00  0.00     0.278 HD
HETATM   18  H   UNL     1      43.095 -15.829   1.537  1.00  0.00     0.278 HD
BRANCH  16  19
HETATM   19  C   UNL     1      41.786 -17.334   0.984  1.00  0.00     0.278 C 
BRANCH  19  20
HETATM   20  C   UNL     1      42.662 -18.219   1.808  1.00  0.00     0.009 A 
HETATM   21  S   UNL     1      43.449 -17.601   3.199  1.00  0.00    -0.103 SA
HETATM   22  C   UNL     1      44.171 -19.113   3.548  1.00  0.00     0.072 A 
HETATM   23  C   UNL     1      43.825 -20.076   2.625  1.00  0.00     0.052 A 
HETATM   24  C   UNL     1      44.294 -21.430   2.689  1.00  0.00     0.100 C 
HETATM   25  C   UNL     1      42.955 -19.558   1.617  1.00  0.00     0.039 A 
HETATM   26  N   UNL     1      44.670 -22.526   2.717  1.00  0.00    -0.191 NA
ENDBRANCH  19  20
ENDBRANCH  16  19
ENDBRANCH  13  16
ENDBRANCH   9  10
ENDBRANCH   7   9
TORSDOF 5
ENDMDL
MODEL 6
REMARK VINA RESULT:      -7.1      4.075      4.675
REMARK  5 active torsions:
REMARK  status: ('A' for Active; 'I' for Inactive)
REMARK    1  A    between atoms: C_7  and  O_8 
REMARK    2  A    between atoms: O_8  and  C_9 
REMARK    3  A    between atoms: C_12  and  N_13 
REMARK    4  A    between atoms: N_13  and  C_16 
REMARK    5  A    between atoms: C_16  and  C_17 
ROOT
HETATM    1  C   UNL     1      43.834 -18.879   2.463  1.00  0.00     0.028 A 
HETATM    2  C   UNL     1      44.179 -20.092   3.051  1.00  0.00     0.062 A 
HETATM    3  C   UNL     1      44.308 -21.285   2.277  1.00  0.00     0.101 C 
HETATM    4  N   UNL     1      44.421 -22.266   1.669  1.00  0.00    -0.191 NA
HETATM    5  C   UNL     1      44.399 -20.114   4.424  1.00  0.00     0.142 A 
HETATM    6  N   UNL     1      44.302 -19.029   5.238  1.00  0.00    -0.236 NA
HETATM    7  C   UNL     1      43.966 -17.867   4.630  1.00  0.00     0.164 A 
HETATM    8  C   UNL     1      43.725 -17.747   3.267  1.00  0.00     0.059 A 
ENDROOT
BRANCH   7   9
HETATM    9  O   UNL     1      43.844 -16.704   5.351  1.00  0.00    -0.329 OA
BRANCH   9  10
HETATM   10  C   UNL     1      42.817 -15.769   5.038  1.00  0.00     0.130 C 
HETATM   11  C   UNL     1      43.324 -14.338   4.807  1.00  0.00     0.034 C 
HETATM   12  C   UNL     1      42.192 -13.415   4.358  1.00  0.00     0.035 C 
HETATM   13  C   UNL     1      40.967 -13.464   5.277  1.00  0.00     0.186 C 
HETATM   14  C   UNL     1      40.489 -14.903   5.507  1.00  0.00     0.035 C 
HETATM   15  C   UNL     1      41.602 -15.842   5.972  1.00  0.00     0.034 C 
BRANCH  13  16
HETATM   16  N   UNL     1      41.268 -12.837   6.608  1.00  0.00    -0.067 N 
HETATM   17  H   UNL     1      40.424 -12.890   7.195  1.00  0.00     0.278 HD
HETATM   18  H   UNL     1      41.981 -13.372   7.126  1.00  0.00     0.278 HD
BRANCH  16  19
HETATM   19  C   UNL     1      41.688 -11.400   6.571  1.00  0.00     0.278 C 
BRANCH  19  20
HETATM   20  C   UNL     1      41.661 -10.780   7.930  1.00  0.00     0.009 A 
HETATM   21  S   UNL     1      40.275  -9.924   8.461  1.00  0.00    -0.103 SA
HETATM   22  C   UNL     1      40.983  -9.580   9.981  1.00  0.00     0.072 A 
HETATM   23  C   UNL     1      42.253 -10.103  10.089  1.00  0.00     0.052 A 
HETATM   24  C   UNL     1      43.065  -9.959  11.262  1.00  0.00     0.100 C 
HETATM   25  C   UNL     1      42.646 -10.795   8.901  1.00  0.00     0.039 A 
HETATM   26  N   UNL     1      43.740  -9.846  12.197  1.00  0.00    -0.191 NA
ENDBRANCH  19  20
ENDBRANCH  16  19
ENDBRANCH  13  16
ENDBRANCH   9  10
ENDBRANCH   7   9
TORSDOF 5
ENDMDL
MODEL 7
REMARK VINA RESULT:      -7.0      4.600      7.298
REMARK  5 active torsions:
REMARK  status: ('A' for Active; 'I' for Inactive)
REMARK    1  A    between atoms: C_7  and  O_8 
REMARK    2  A    between atoms: O_8  and  C_9 
REMARK    3  A    between atoms: C_12  and  N_13 
REMARK    4  A    between atoms: N_13  and  C_16 
REMARK    5  A    between atoms: C_16  and  C_17 
ROOT
HETATM    1  C   UNL     1      43.916 -18.746   1.403  1.00  0.00     0.028 A 
HETATM    2  C   UNL     1      43.809 -19.680   2.429  1.00  0.00     0.062 A 
HETATM    3  C   UNL     1      44.094 -21.063   2.211  1.00  0.00     0.101 C 
HETATM    4  N   UNL     1      44.323 -22.189   2.058  1.00  0.00    -0.191 NA
HETATM    5  C   UNL     1      43.414 -19.231   3.684  1.00  0.00     0.142 A 
HETATM    6  N   UNL     1      43.126 -17.936   3.985  1.00  0.00    -0.236 NA
HETATM    7  C   UNL     1      43.243 -17.057   2.962  1.00  0.00     0.164 A 
HETATM    8  C   UNL     1      43.627 -17.411   1.675  1.00  0.00     0.059 A 
ENDROOT
BRANCH   7   9
HETATM    9  O   UNL     1      42.982 -15.721   3.148  1.00  0.00    -0.329 OA
BRANCH   9  10
HETATM   10  C   UNL     1      41.803 -15.136   2.605  1.00  0.00     0.130 C 
HETATM   11  C   UNL     1      40.692 -16.147   2.289  1.00  0.00     0.034 C 
HETATM   12  C   UNL     1      39.417 -15.442   1.826  1.00  0.00     0.035 C 
HETATM   13  C   UNL     1      39.653 -14.450   0.682  1.00  0.00     0.186 C 
HETATM   14  C   UNL     1      40.778 -13.461   1.012  1.00  0.00     0.035 C 
HETATM   15  C   UNL     1      42.069 -14.145   1.464  1.00  0.00     0.034 C 
BRANCH  13  16
HETATM   16  N   UNL     1      40.000 -15.168  -0.590  1.00  0.00    -0.067 N 
HETATM   17  H   UNL     1      40.816 -15.771  -0.416  1.00  0.00     0.278 HD
HETATM   18  H   UNL     1      39.251 -15.817  -0.874  1.00  0.00     0.278 HD
BRANCH  16  19
HETATM   19  C   UNL     1      40.340 -14.296  -1.759  1.00  0.00     0.278 C 
BRANCH  19  20
HETATM   20  C   UNL     1      39.115 -13.806  -2.460  1.00  0.00     0.009 A 
HETATM   21  S   UNL     1      38.666 -12.155  -2.358  1.00  0.00    -0.103 SA
HETATM   22  C   UNL     1      37.295 -12.394  -3.355  1.00  0.00     0.072 A 
HETATM   23  C   UNL     1      37.174 -13.706  -3.760  1.00  0.00     0.052 A 
HETATM   24  C   UNL     1      36.112 -14.172  -4.603  1.00  0.00     0.100 C 
HETATM   25  C   UNL     1      38.225 -14.522  -3.239  1.00  0.00     0.039 A 
HETATM   26  N   UNL     1      35.257 -14.572  -5.276  1.00  0.00    -0.191 NA
ENDBRANCH  19  20
ENDBRANCH  16  19
ENDBRANCH  13  16
ENDBRANCH   9  10
ENDBRANCH   7   9
TORSDOF 5
ENDMDL
MODEL 8
REMARK VINA RESULT:      -6.9      4.301      7.074
REMARK  5 active torsions:
REMARK  status: ('A' for Active; 'I' for Inactive)
REMARK    1  A    between atoms: C_7  and  O_8 
REMARK    2  A    between atoms: O_8  and  C_9 
REMARK    3  A    between atoms: C_12  and  N_13 
REMARK    4  A    between atoms: N_13  and  C_16 
REMARK    5  A    between atoms: C_16  and  C_17 
ROOT
HETATM    1  C   UNL     1      37.882 -13.894  -2.286  1.00  0.00     0.028 A 
HETATM    2  C   UNL     1      37.863 -14.553  -3.512  1.00  0.00     0.062 A 
HETATM    3  C   UNL     1      36.697 -14.561  -4.336  1.00  0.00     0.101 C 
HETATM    4  N   UNL     1      35.763 -14.580  -5.023  1.00  0.00    -0.191 NA
HETATM    5  C   UNL     1      39.020 -15.208  -3.920  1.00  0.00     0.142 A 
HETATM    6  N   UNL     1      40.176 -15.250  -3.204  1.00  0.00    -0.236 NA
HETATM    7  C   UNL     1      40.156 -14.597  -2.019  1.00  0.00     0.164 A 
HETATM    8  C   UNL     1      39.049 -13.918  -1.526  1.00  0.00     0.059 A 
ENDROOT
BRANCH   7   9
HETATM    9  O   UNL     1      41.267 -14.568  -1.211  1.00  0.00    -0.329 OA
BRANCH   9  10
HETATM   10  C   UNL     1      41.225 -15.139   0.092  1.00  0.00     0.130 C 
HETATM   11  C   UNL     1      42.042 -14.367   1.139  1.00  0.00     0.034 C 
HETATM   12  C   UNL     1      41.855 -14.961   2.534  1.00  0.00     0.035 C 
HETATM   13  C   UNL     1      42.104 -16.473   2.590  1.00  0.00     0.186 C 
HETATM   14  C   UNL     1      41.291 -17.220   1.526  1.00  0.00     0.035 C 
HETATM   15  C   UNL     1      41.475 -16.652   0.118  1.00  0.00     0.034 C 
BRANCH  13  16
HETATM   16  N   UNL     1      43.559 -16.786   2.394  1.00  0.00    -0.067 N 
HETATM   17  H   UNL     1      43.920 -16.206   1.624  1.00  0.00     0.278 HD
HETATM   18  H   UNL     1      44.120 -16.510   3.215  1.00  0.00     0.278 HD
BRANCH  16  19
HETATM   19  C   UNL     1      43.880 -18.209   2.058  1.00  0.00     0.278 C 
BRANCH  19  20
HETATM   20  C   UNL     1      44.090 -19.035   3.285  1.00  0.00     0.009 A 
HETATM   21  S   UNL     1      44.786 -20.597   3.166  1.00  0.00    -0.103 SA
HETATM   22  C   UNL     1      44.703 -20.839   4.858  1.00  0.00     0.072 A 
HETATM   23  C   UNL     1      44.154 -19.756   5.509  1.00  0.00     0.052 A 
HETATM   24  C   UNL     1      43.974 -19.702   6.931  1.00  0.00     0.100 C 
HETATM   25  C   UNL     1      43.797 -18.714   4.598  1.00  0.00     0.039 A 
HETATM   26  N   UNL     1      43.810 -19.643   8.076  1.00  0.00    -0.191 NA
ENDBRANCH  19  20
ENDBRANCH  16  19
ENDBRANCH  13  16
ENDBRANCH   9  10
ENDBRANCH   7   9
TORSDOF 5
ENDMDL
MODEL 9
REMARK VINA RESULT:      -6.8      3.826      7.126
REMARK  5 active torsions:
REMARK  status: ('A' for Active; 'I' for Inactive)
REMARK    1  A    between atoms: C_7  and  O_8 
REMARK    2  A    between atoms: O_8  and  C_9 
REMARK    3  A    between atoms: C_12  and  N_13 
REMARK    4  A    between atoms: N_13  and  C_16 
REMARK    5  A    between atoms: C_16  and  C_17 
ROOT
HETATM    1  C   UNL     1      44.651 -16.260   6.939  1.00  0.00     0.028 A 
HETATM    2  C   UNL     1      44.152 -14.962   6.875  1.00  0.00     0.062 A 
HETATM    3  C   UNL     1      44.715 -13.907   7.655  1.00  0.00     0.101 C 
HETATM    4  N   UNL     1      45.157 -13.034   8.277  1.00  0.00    -0.191 NA
HETATM    5  C   UNL     1      43.081 -14.716   6.023  1.00  0.00     0.142 A 
HETATM    6  N   UNL     1      42.484 -15.656   5.241  1.00  0.00    -0.236 NA
HETATM    7  C   UNL     1      42.999 -16.905   5.330  1.00  0.00     0.164 A 
HETATM    8  C   UNL     1      44.064 -17.248   6.154  1.00  0.00     0.059 A 
ENDROOT
BRANCH   7   9
HETATM    9  O   UNL     1      42.480 -17.935   4.584  1.00  0.00    -0.329 OA
BRANCH   9  10
HETATM   10  C   UNL     1      42.343 -17.804   3.173  1.00  0.00     0.130 C 
HETATM   11  C   UNL     1      43.528 -17.103   2.493  1.00  0.00     0.034 C 
HETATM   12  C   UNL     1      43.373 -17.105   0.972  1.00  0.00     0.035 C 
HETATM   13  C   UNL     1      42.020 -16.565   0.499  1.00  0.00     0.186 C 
HETATM   14  C   UNL     1      40.852 -17.267   1.203  1.00  0.00     0.035 C 
HETATM   15  C   UNL     1      40.978 -17.264   2.727  1.00  0.00     0.034 C 
BRANCH  13  16
HETATM   16  N   UNL     1      41.913 -15.088   0.744  1.00  0.00    -0.067 N 
HETATM   17  H   UNL     1      41.048 -14.902   1.270  1.00  0.00     0.278 HD
HETATM   18  H   UNL     1      42.670 -14.751   1.359  1.00  0.00     0.278 HD
BRANCH  16  19
HETATM   19  C   UNL     1      41.877 -14.225  -0.479  1.00  0.00     0.278 C 
BRANCH  19  20
HETATM   20  C   UNL     1      40.494 -14.107  -1.033  1.00  0.00     0.009 A 
HETATM   21  S   UNL     1      39.323 -13.147  -0.230  1.00  0.00    -0.103 SA
HETATM   22  C   UNL     1      38.129 -13.496  -1.407  1.00  0.00     0.072 A 
HETATM   23  C   UNL     1      38.606 -14.330  -2.395  1.00  0.00     0.052 A 
HETATM   24  C   UNL     1      37.809 -14.774  -3.500  1.00  0.00     0.100 C 
HETATM   25  C   UNL     1      39.973 -14.685  -2.176  1.00  0.00     0.039 A 
HETATM   26  N   UNL     1      37.178 -15.153  -4.396  1.00  0.00    -0.191 NA
ENDBRANCH  19  20
ENDBRANCH  16  19
ENDBRANCH  13  16
ENDBRANCH   9  10
ENDBRANCH   7   9
TORSDOF 5
ENDMDL
MODEL 10
REMARK VINA RESULT:      -6.8      3.328      5.618
REMARK  5 active torsions:
REMARK  status: ('A' for Active; 'I' for Inactive)
REMARK    1  A    between atoms: C_7  and  O_8 
REMARK    2  A    between atoms: O_8  and  C_9 
REMARK    3  A    between atoms: C_12  and  N_13 
REMARK    4  A    between atoms: N_13  and  C_16 
REMARK    5  A    between atoms: C_16  and  C_17 
ROOT
HETATM    1  C   UNL     1      43.828 -19.951   1.795  1.00  0.00     0.028 A 
HETATM    2  C   UNL     1      44.200 -20.418   3.052  1.00  0.00     0.062 A 
HETATM    3  C   UNL     1      44.393 -21.810   3.304  1.00  0.00     0.101 C 
HETATM    4  N   UNL     1      44.557 -22.935   3.531  1.00  0.00    -0.191 NA
HETATM    5  C   UNL     1      44.383 -19.485   4.068  1.00  0.00     0.142 A 
HETATM    6  N   UNL     1      44.225 -18.142   3.919  1.00  0.00    -0.236 NA
HETATM    7  C   UNL     1      43.864 -17.727   2.683  1.00  0.00     0.164 A 
HETATM    8  C   UNL     1      43.657 -18.582   1.608  1.00  0.00     0.059 A 
ENDROOT
BRANCH   7   9
HETATM    9  O   UNL     1      43.681 -16.393   2.414  1.00  0.00    -0.329 OA
BRANCH   9  10
HETATM   10  C   UNL     1      42.720 -15.637   3.144  1.00  0.00     0.130 C 
HETATM   11  C   UNL     1      41.291 -15.742   2.592  1.00  0.00     0.034 C 
HETATM   12  C   UNL     1      40.295 -15.009   3.490  1.00  0.00     0.035 C 
HETATM   13  C   UNL     1      40.703 -13.564   3.796  1.00  0.00     0.186 C 
HETATM   14  C   UNL     1      42.138 -13.481   4.329  1.00  0.00     0.035 C 
HETATM   15  C   UNL     1      43.155 -14.195   3.438  1.00  0.00     0.034 C 
BRANCH  13  16
HETATM   16  N   UNL     1      40.593 -12.703   2.571  1.00  0.00    -0.067 N 
HETATM   17  H   UNL     1      40.697 -11.718   2.850  1.00  0.00     0.278 HD
HETATM   18  H   UNL     1      41.372 -12.873   1.917  1.00  0.00     0.278 HD
BRANCH  16  19
HETATM   19  C   UNL     1      39.306 -12.811   1.812  1.00  0.00     0.278 C 
BRANCH  19  20
HETATM   20  C   UNL     1      39.538 -12.900   0.339  1.00  0.00     0.009 A 
HETATM   21  S   UNL     1      39.046 -11.620  -0.690  1.00  0.00    -0.103 SA
HETATM   22  C   UNL     1      39.634 -12.422  -2.084  1.00  0.00     0.072 A 
HETATM   23  C   UNL     1      40.193 -13.644  -1.779  1.00  0.00     0.052 A 
HETATM   24  C   UNL     1      40.760 -14.516  -2.766  1.00  0.00     0.100 C 
HETATM   25  C   UNL     1      40.134 -13.921  -0.378  1.00  0.00     0.039 A 
HETATM   26  N   UNL     1      41.214 -15.240  -3.549  1.00  0.00    -0.191 NA
ENDBRANCH  19  20
ENDBRANCH  16  19
ENDBRANCH  13  16
ENDBRANCH   9  10
ENDBRANCH   7   9
TORSDOF 5
ENDMDL
