MODEL 1
REMARK VINA RESULT:     -10.3      0.000      0.000
REMARK  6 active torsions:
REMARK  status: ('A' for Active; 'I' for Inactive)
REMARK    1  A    between atoms: C_2  and  C_3 
REMARK    2  A    between atoms: C_3  and  N_4 
REMARK    3  A    between atoms: C_10  and  S_11 
REMARK    4  A    between atoms: S_11  and  C_12 
REMARK    5  A    between atoms: C_12  and  C_13 
REMARK       I    between atoms: C_13  and  N_14 
REMARK    6  A    between atoms: N_14  and  C_15 
ROOT
HETATM    1  N   UNL     1      42.515 -17.144   2.793  1.00  0.00    -0.063 N 
HETATM    2  H   UNL     1      41.987 -17.880   3.277  1.00  0.00     0.280 HD
HETATM    3  C   UNL     1      43.192 -16.314   3.879  1.00  0.00     0.281 C 
HETATM    4  C   UNL     1      42.289 -15.313   4.512  1.00  0.00     0.060 A 
HETATM    5  C   UNL     1      41.046 -15.025   4.099  1.00  0.00     0.052 A 
HETATM    6  N   UNL     1      40.252 -14.067   4.674  1.00  0.00    -0.228 NA
HETATM    7  C   UNL     1      40.733 -13.423   5.684  1.00  0.00     0.169 A 
HETATM    8  N   UNL     1      41.967 -13.646   6.208  1.00  0.00    -0.302 N 
HETATM    9  C   UNL     1      42.817 -14.564   5.669  1.00  0.00     0.257 A 
HETATM   10  O   UNL     1      43.951 -14.769   6.076  1.00  0.00    -0.267 OA
HETATM   11  C   UNL     1      40.458 -15.729   2.904  1.00  0.00     0.088 C 
HETATM   12  C   UNL     1      41.529 -16.322   1.990  1.00  0.00     0.241 C 
HETATM   13  H   UNL     1      42.281 -13.101   6.998  1.00  0.00     0.171 HD
ENDROOT
BRANCH   7  14
HETATM   14  S   UNL     1      39.858 -12.164   6.500  1.00  0.00    -0.083 SA
BRANCH  14  15
HETATM   15  C   UNL     1      40.978 -10.768   6.167  1.00  0.00     0.185 C 
BRANCH  15  16
HETATM   16  C   UNL     1      41.561 -10.129   7.415  1.00  0.00     0.232 C 
HETATM   17  N   UNL     1      41.640 -10.959   8.518  1.00  0.00    -0.324 N 
HETATM   18  H   UNL     1      40.958 -11.710   8.546  1.00  0.00     0.169 HD
HETATM   19  O   UNL     1      41.952  -8.964   7.373  1.00  0.00    -0.272 OA
BRANCH  17  20
HETATM   20  C   UNL     1      42.341 -10.675   9.711  1.00  0.00     0.076 A 
HETATM   21  C   UNL     1      41.764 -10.065  10.837  1.00  0.00     0.143 A 
HETATM   22  F   UNL     1      40.504  -9.609  10.811  1.00  0.00    -0.204 F 
HETATM   23  C   UNL     1      42.514  -9.812  11.987  1.00  0.00     0.047 A 
HETATM   24  C   UNL     1      43.863 -10.154  12.023  1.00  0.00     0.045 A 
HETATM   25  C   UNL     1      44.447 -10.725  10.898  1.00  0.00     0.118 A 
HETATM   26  F   UNL     1      45.749 -11.040  10.921  1.00  0.00    -0.206 F 
HETATM   27  C   UNL     1      43.707 -10.978   9.744  1.00  0.00     0.074 A 
ENDBRANCH  17  20
ENDBRANCH  15  16
ENDBRANCH  14  15
ENDBRANCH   7  14
BRANCH   1  28
HETATM   28  C   UNL     1      43.505 -17.844   1.890  1.00  0.00     0.273 C 
BRANCH  28  29
HETATM   29  C   UNL     1      43.827 -19.249   2.318  1.00  0.00    -0.030 A 
HETATM   30  C   UNL     1      43.582 -20.337   1.445  1.00  0.00     0.012 A 
HETATM   31  C   UNL     1      43.857 -21.650   1.839  1.00  0.00     0.040 A 
HETATM   32  C   UNL     1      44.370 -21.850   3.101  1.00  0.00     0.105 A 
HETATM   33  C   UNL     1      44.618 -20.801   3.952  1.00  0.00     0.105 A 
HETATM   34  O   UNL     1      44.681 -23.051   3.654  1.00  0.00    -0.323 OA
HETATM   35  C   UNL     1      44.362 -19.494   3.595  1.00  0.00     0.048 A 
HETATM   36  O   UNL     1      45.116 -21.209   5.148  1.00  0.00    -0.323 OA
HETATM   37  C   UNL     1      45.123 -22.645   4.967  1.00  0.00     0.352 A 
ENDBRANCH  28  29
ENDBRANCH   1  28
TORSDOF 6
ENDMDL
MODEL 2
REMARK VINA RESULT:     -10.2      1.423      1.970
REMARK  6 active torsions:
REMARK  status: ('A' for Active; 'I' for Inactive)
REMARK    1  A    between atoms: C_2  and  C_3 
REMARK    2  A    between atoms: C_3  and  N_4 
REMARK    3  A    between atoms: C_10  and  S_11 
REMARK    4  A    between atoms: S_11  and  C_12 
REMARK    5  A    between atoms: C_12  and  C_13 
REMARK       I    between atoms: C_13  and  N_14 
REMARK    6  A    between atoms: N_14  and  C_15 
ROOT
HETATM    1  N   UNL     1      43.203 -16.907   3.173  1.00  0.00    -0.063 N 
HETATM    2  H   UNL     1      43.976 -16.924   3.849  1.00  0.00     0.280 HD
HETATM    3  C   UNL     1      43.006 -15.447   2.780  1.00  0.00     0.281 C 
HETATM    4  C   UNL     1      42.215 -14.666   3.771  1.00  0.00     0.060 A 
HETATM    5  C   UNL     1      41.587 -15.183   4.837  1.00  0.00     0.052 A 
HETATM    6  N   UNL     1      40.830 -14.447   5.710  1.00  0.00    -0.228 NA
HETATM    7  C   UNL     1      40.736 -13.177   5.494  1.00  0.00     0.169 A 
HETATM    8  N   UNL     1      41.349 -12.538   4.463  1.00  0.00    -0.302 N 
HETATM    9  C   UNL     1      42.094 -13.212   3.545  1.00  0.00     0.257 A 
HETATM   10  O   UNL     1      42.628 -12.689   2.577  1.00  0.00    -0.267 OA
HETATM   11  C   UNL     1      41.642 -16.664   5.109  1.00  0.00     0.088 C 
HETATM   12  C   UNL     1      41.979 -17.475   3.859  1.00  0.00     0.241 C 
HETATM   13  H   UNL     1      41.230 -11.541   4.352  1.00  0.00     0.171 HD
ENDROOT
BRANCH   7  14
HETATM   14  S   UNL     1      39.792 -12.119   6.496  1.00  0.00    -0.083 SA
BRANCH  14  15
HETATM   15  C   UNL     1      40.700 -10.566   6.214  1.00  0.00     0.185 C 
BRANCH  15  16
HETATM   16  C   UNL     1      41.691 -10.220   7.312  1.00  0.00     0.232 C 
HETATM   17  N   UNL     1      42.141 -11.294   8.056  1.00  0.00    -0.324 N 
HETATM   18  H   UNL     1      41.503 -12.081   8.114  1.00  0.00     0.169 HD
HETATM   19  O   UNL     1      42.057  -9.055   7.452  1.00  0.00    -0.272 OA
BRANCH  17  20
HETATM   20  C   UNL     1      43.220 -11.267   8.969  1.00  0.00     0.076 A 
HETATM   21  C   UNL     1      44.421 -11.973   8.790  1.00  0.00     0.143 A 
HETATM   22  F   UNL     1      44.582 -12.823   7.765  1.00  0.00    -0.204 F 
HETATM   23  C   UNL     1      45.449 -11.903   9.731  1.00  0.00     0.047 A 
HETATM   24  C   UNL     1      45.285 -11.132  10.879  1.00  0.00     0.045 A 
HETATM   25  C   UNL     1      44.084 -10.459  11.077  1.00  0.00     0.118 A 
HETATM   26  F   UNL     1      43.915  -9.730  12.188  1.00  0.00    -0.206 F 
HETATM   27  C   UNL     1      43.050 -10.528  10.144  1.00  0.00     0.074 A 
ENDBRANCH  17  20
ENDBRANCH  15  16
ENDBRANCH  14  15
ENDBRANCH   7  14
BRANCH   1  28
HETATM   28  C   UNL     1      43.628 -17.773   2.009  1.00  0.00     0.273 C 
BRANCH  28  29
HETATM   29  C   UNL     1      43.918 -19.199   2.388  1.00  0.00    -0.030 A 
HETATM   30  C   UNL     1      43.614 -20.254   1.494  1.00  0.00     0.012 A 
HETATM   31  C   UNL     1      43.859 -21.586   1.843  1.00  0.00     0.040 A 
HETATM   32  C   UNL     1      44.403 -21.836   3.083  1.00  0.00     0.105 A 
HETATM   33  C   UNL     1      44.708 -20.820   3.954  1.00  0.00     0.105 A 
HETATM   34  O   UNL     1      44.691 -23.061   3.594  1.00  0.00    -0.323 OA
HETATM   35  C   UNL     1      44.483 -19.496   3.641  1.00  0.00     0.048 A 
HETATM   36  O   UNL     1      45.228 -21.276   5.124  1.00  0.00    -0.323 OA
HETATM   37  C   UNL     1      45.184 -22.706   4.904  1.00  0.00     0.352 A 
ENDBRANCH  28  29
ENDBRANCH   1  28
TORSDOF 6
ENDMDL
MODEL 3
REMARK VINA RESULT:     -10.0      1.320      1.518
REMARK  6 active torsions:
REMARK  status: ('A' for Active; 'I' for Inactive)
REMARK    1  A    between atoms: C_2  and  C_3 
REMARK    2  A    between atoms: C_3  and  N_4 
REMARK    3  A    between atoms: C_10  and  S_11 
REMARK    4  A    between atoms: S_11  and  C_12 
REMARK    5  A    between atoms: C_12  and  C_13 
REMARK       I    between atoms: C_13  and  N_14 
REMARK    6  A    between atoms: N_14  and  C_15 
ROOT
HETATM    1  N   UNL     1      42.533 -16.853   3.138  1.00  0.00    -0.063 N 
HETATM    2  H   UNL     1      42.277 -17.543   3.855  1.00  0.00     0.280 HD
HETATM    3  C   UNL     1      43.337 -15.771   3.851  1.00  0.00     0.281 C 
HETATM    4  C   UNL     1      42.491 -14.777   4.568  1.00  0.00     0.060 A 
HETATM    5  C   UNL     1      41.154 -14.707   4.496  1.00  0.00     0.052 A 
HETATM    6  N   UNL     1      40.402 -13.754   5.133  1.00  0.00    -0.228 NA
HETATM    7  C   UNL     1      41.028 -12.888   5.857  1.00  0.00     0.169 A 
HETATM    8  N   UNL     1      42.377 -12.875   6.026  1.00  0.00    -0.302 N 
HETATM    9  C   UNL     1      43.184 -13.776   5.402  1.00  0.00     0.257 A 
HETATM   10  O   UNL     1      44.404 -13.777   5.488  1.00  0.00    -0.267 OA
HETATM   11  C   UNL     1      40.386 -15.678   3.637  1.00  0.00     0.088 C 
HETATM   12  C   UNL     1      41.252 -16.305   2.547  1.00  0.00     0.241 C 
HETATM   13  H   UNL     1      42.801 -12.164   6.605  1.00  0.00     0.171 HD
ENDROOT
BRANCH   7  14
HETATM   14  S   UNL     1      40.217 -11.606   6.702  1.00  0.00    -0.083 SA
BRANCH  14  15
HETATM   15  C   UNL     1      41.613 -10.980   7.689  1.00  0.00     0.185 C 
BRANCH  15  16
HETATM   16  C   UNL     1      41.256 -10.650   9.128  1.00  0.00     0.232 C 
HETATM   17  N   UNL     1      42.072 -11.227  10.082  1.00  0.00    -0.324 N 
HETATM   18  H   UNL     1      42.514 -12.097   9.806  1.00  0.00     0.169 HD
HETATM   19  O   UNL     1      40.321  -9.886   9.360  1.00  0.00    -0.272 OA
BRANCH  17  20
HETATM   20  C   UNL     1      42.089 -10.898  11.456  1.00  0.00     0.076 A 
HETATM   21  C   UNL     1      41.071 -11.245  12.361  1.00  0.00     0.143 A 
HETATM   22  F   UNL     1      39.942 -11.834  11.944  1.00  0.00    -0.204 F 
HETATM   23  C   UNL     1      41.149 -10.889  13.708  1.00  0.00     0.047 A 
HETATM   24  C   UNL     1      42.245 -10.164  14.171  1.00  0.00     0.045 A 
HETATM   25  C   UNL     1      43.237  -9.790  13.272  1.00  0.00     0.118 A 
HETATM   26  F   UNL     1      44.284  -9.078  13.709  1.00  0.00    -0.206 F 
HETATM   27  C   UNL     1      43.165 -10.137  11.924  1.00  0.00     0.074 A 
ENDBRANCH  17  20
ENDBRANCH  15  16
ENDBRANCH  14  15
ENDBRANCH   7  14
BRANCH   1  28
HETATM   28  C   UNL     1      43.343 -17.592   2.098  1.00  0.00     0.273 C 
BRANCH  28  29
HETATM   29  C   UNL     1      43.720 -18.990   2.503  1.00  0.00    -0.030 A 
HETATM   30  C   UNL     1      43.597 -20.060   1.584  1.00  0.00     0.012 A 
HETATM   31  C   UNL     1      43.924 -21.368   1.955  1.00  0.00     0.040 A 
HETATM   32  C   UNL     1      44.366 -21.581   3.242  1.00  0.00     0.105 A 
HETATM   33  C   UNL     1      44.495 -20.549   4.138  1.00  0.00     0.105 A 
HETATM   34  O   UNL     1      44.711 -22.780   3.778  1.00  0.00    -0.323 OA
HETATM   35  C   UNL     1      44.186 -19.247   3.805  1.00  0.00     0.048 A 
HETATM   36  O   UNL     1      44.940 -20.968   5.352  1.00  0.00    -0.323 OA
HETATM   37  C   UNL     1      45.043 -22.394   5.129  1.00  0.00     0.352 A 
ENDBRANCH  28  29
ENDBRANCH   1  28
TORSDOF 6
ENDMDL
MODEL 4
REMARK VINA RESULT:     -10.0      5.266      9.126
REMARK  6 active torsions:
REMARK  status: ('A' for Active; 'I' for Inactive)
REMARK    1  A    between atoms: C_2  and  C_3 
REMARK    2  A    between atoms: C_3  and  N_4 
REMARK    3  A    between atoms: C_10  and  S_11 
REMARK    4  A    between atoms: S_11  and  C_12 
REMARK    5  A    between atoms: C_12  and  C_13 
REMARK       I    between atoms: C_13  and  N_14 
REMARK    6  A    between atoms: N_14  and  C_15 
ROOT
HETATM    1  N   UNL     1      41.759 -14.861   0.872  1.00  0.00    -0.063 N 
HETATM    2  H   UNL     1      42.370 -15.592   0.488  1.00  0.00     0.280 HD
HETATM    3  C   UNL     1      42.518 -14.233   2.037  1.00  0.00     0.281 C 
HETATM    4  C   UNL     1      42.437 -15.025   3.296  1.00  0.00     0.060 A 
HETATM    5  C   UNL     1      41.661 -16.103   3.480  1.00  0.00     0.052 A 
HETATM    6  N   UNL     1      41.574 -16.788   4.664  1.00  0.00    -0.228 NA
HETATM    7  C   UNL     1      42.298 -16.372   5.648  1.00  0.00     0.169 A 
HETATM    8  N   UNL     1      43.141 -15.308   5.572  1.00  0.00    -0.302 N 
HETATM    9  C   UNL     1      43.257 -14.568   4.435  1.00  0.00     0.257 A 
HETATM   10  O   UNL     1      43.966 -13.578   4.331  1.00  0.00    -0.267 OA
HETATM   11  C   UNL     1      40.776 -16.603   2.369  1.00  0.00     0.088 C 
HETATM   12  C   UNL     1      40.477 -15.525   1.329  1.00  0.00     0.241 C 
HETATM   13  H   UNL     1      43.676 -15.035   6.384  1.00  0.00     0.171 HD
ENDROOT
BRANCH   7  14
HETATM   14  S   UNL     1      42.275 -17.119   7.216  1.00  0.00    -0.083 SA
BRANCH  14  15
HETATM   15  C   UNL     1      44.056 -17.443   7.410  1.00  0.00     0.185 C 
BRANCH  15  16
HETATM   16  C   UNL     1      44.642 -18.347   6.339  1.00  0.00     0.232 C 
HETATM   17  N   UNL     1      43.750 -19.237   5.770  1.00  0.00    -0.324 N 
HETATM   18  H   UNL     1      42.972 -19.509   6.361  1.00  0.00     0.169 HD
HETATM   19  O   UNL     1      45.822 -18.221   6.019  1.00  0.00    -0.272 OA
BRANCH  17  20
HETATM   20  C   UNL     1      43.989 -20.013   4.614  1.00  0.00     0.076 A 
HETATM   21  C   UNL     1      44.511 -21.317   4.636  1.00  0.00     0.143 A 
HETATM   22  F   UNL     1      44.922 -21.882   5.780  1.00  0.00    -0.204 F 
HETATM   23  C   UNL     1      44.724 -22.031   3.455  1.00  0.00     0.047 A 
HETATM   24  C   UNL     1      44.430 -21.443   2.228  1.00  0.00     0.045 A 
HETATM   25  C   UNL     1      43.947 -20.140   2.200  1.00  0.00     0.118 A 
HETATM   26  F   UNL     1      43.679 -19.563   1.021  1.00  0.00    -0.206 F 
HETATM   27  C   UNL     1      43.735 -19.418   3.374  1.00  0.00     0.074 A 
ENDBRANCH  17  20
ENDBRANCH  15  16
ENDBRANCH  14  15
ENDBRANCH   7  14
BRANCH   1  28
HETATM   28  C   UNL     1      41.497 -13.883  -0.250  1.00  0.00     0.273 C 
BRANCH  28  29
HETATM   29  C   UNL     1      40.643 -14.441  -1.354  1.00  0.00    -0.030 A 
HETATM   30  C   UNL     1      41.111 -15.515  -2.149  1.00  0.00     0.012 A 
HETATM   31  C   UNL     1      40.336 -16.029  -3.193  1.00  0.00     0.040 A 
HETATM   32  C   UNL     1      39.105 -15.456  -3.423  1.00  0.00     0.105 A 
HETATM   33  C   UNL     1      38.639 -14.418  -2.653  1.00  0.00     0.105 A 
HETATM   34  O   UNL     1      38.229 -15.813  -4.397  1.00  0.00    -0.323 OA
HETATM   35  C   UNL     1      39.376 -13.890  -1.614  1.00  0.00     0.048 A 
HETATM   36  O   UNL     1      37.409 -13.992  -3.045  1.00  0.00    -0.323 OA
HETATM   37  C   UNL     1      37.167 -14.859  -4.178  1.00  0.00     0.352 A 
ENDBRANCH  28  29
ENDBRANCH   1  28
TORSDOF 6
ENDMDL
MODEL 5
REMARK VINA RESULT:      -9.8      3.841     10.518
REMARK  6 active torsions:
REMARK  status: ('A' for Active; 'I' for Inactive)
REMARK    1  A    between atoms: C_2  and  C_3 
REMARK    2  A    between atoms: C_3  and  N_4 
REMARK    3  A    between atoms: C_10  and  S_11 
REMARK    4  A    between atoms: S_11  and  C_12 
REMARK    5  A    between atoms: C_12  and  C_13 
REMARK       I    between atoms: C_13  and  N_14 
REMARK    6  A    between atoms: N_14  and  C_15 
ROOT
HETATM    1  N   UNL     1      43.855 -12.930   8.036  1.00  0.00    -0.063 N 
HETATM    2  H   UNL     1      43.268 -13.459   8.693  1.00  0.00     0.280 HD
HETATM    3  C   UNL     1      42.907 -12.311   7.014  1.00  0.00     0.281 C 
HETATM    4  C   UNL     1      42.486 -13.257   5.944  1.00  0.00     0.060 A 
HETATM    5  C   UNL     1      42.982 -14.490   5.765  1.00  0.00     0.052 A 
HETATM    6  N   UNL     1      42.606 -15.324   4.745  1.00  0.00    -0.228 NA
HETATM    7  C   UNL     1      41.708 -14.895   3.924  1.00  0.00     0.169 A 
HETATM    8  N   UNL     1      41.115 -13.675   4.020  1.00  0.00    -0.302 N 
HETATM    9  C   UNL     1      41.460 -12.787   4.993  1.00  0.00     0.257 A 
HETATM   10  O   UNL     1      40.988 -11.664   5.095  1.00  0.00    -0.267 OA
HETATM   11  C   UNL     1      44.055 -15.019   6.681  1.00  0.00     0.088 C 
HETATM   12  C   UNL     1      44.818 -13.904   7.393  1.00  0.00     0.241 C 
HETATM   13  H   UNL     1      40.421 -13.402   3.339  1.00  0.00     0.171 HD
ENDROOT
BRANCH   7  14
HETATM   14  S   UNL     1      41.149 -15.825   2.568  1.00  0.00    -0.083 SA
BRANCH  14  15
HETATM   15  C   UNL     1      42.670 -15.821   1.567  1.00  0.00     0.185 C 
BRANCH  15  16
HETATM   16  C   UNL     1      43.565 -17.026   1.796  1.00  0.00     0.232 C 
HETATM   17  N   UNL     1      43.096 -17.939   2.722  1.00  0.00    -0.324 N 
HETATM   18  H   UNL     1      42.487 -17.557   3.438  1.00  0.00     0.169 HD
HETATM   19  O   UNL     1      44.601 -17.144   1.144  1.00  0.00    -0.272 OA
BRANCH  17  20
HETATM   20  C   UNL     1      43.622 -19.232   2.941  1.00  0.00     0.076 A 
HETATM   21  C   UNL     1      44.334 -19.607   4.093  1.00  0.00     0.143 A 
HETATM   22  F   UNL     1      44.655 -18.710   5.035  1.00  0.00    -0.204 F 
HETATM   23  C   UNL     1      44.828 -20.903   4.247  1.00  0.00     0.047 A 
HETATM   24  C   UNL     1      44.630 -21.845   3.240  1.00  0.00     0.045 A 
HETATM   25  C   UNL     1      43.958 -21.467   2.084  1.00  0.00     0.118 A 
HETATM   26  F   UNL     1      43.780 -22.364   1.104  1.00  0.00    -0.206 F 
HETATM   27  C   UNL     1      43.464 -20.173   1.919  1.00  0.00     0.074 A 
ENDBRANCH  17  20
ENDBRANCH  15  16
ENDBRANCH  14  15
ENDBRANCH   7  14
BRANCH   1  28
HETATM   28  C   UNL     1      44.591 -11.894   8.854  1.00  0.00     0.273 C 
BRANCH  28  29
HETATM   29  C   UNL     1      43.837 -11.432  10.070  1.00  0.00    -0.030 A 
HETATM   30  C   UNL     1      43.981 -12.113  11.303  1.00  0.00     0.012 A 
HETATM   31  C   UNL     1      43.268 -11.707  12.436  1.00  0.00     0.040 A 
HETATM   32  C   UNL     1      42.423 -10.627  12.312  1.00  0.00     0.105 A 
HETATM   33  C   UNL     1      42.282  -9.956  11.123  1.00  0.00     0.105 A 
HETATM   34  O   UNL     1      41.646 -10.107  13.296  1.00  0.00    -0.323 OA
HETATM   35  C   UNL     1      42.972 -10.327   9.987  1.00  0.00     0.048 A 
HETATM   36  O   UNL     1      41.399  -8.927  11.208  1.00  0.00    -0.323 OA
HETATM   37  C   UNL     1      40.969  -9.048  12.585  1.00  0.00     0.352 A 
ENDBRANCH  28  29
ENDBRANCH   1  28
TORSDOF 6
ENDMDL
MODEL 6
REMARK VINA RESULT:      -9.8      1.873      2.911
REMARK  6 active torsions:
REMARK  status: ('A' for Active; 'I' for Inactive)
REMARK    1  A    between atoms: C_2  and  C_3 
REMARK    2  A    between atoms: C_3  and  N_4 
REMARK    3  A    between atoms: C_10  and  S_11 
REMARK    4  A    between atoms: S_11  and  C_12 
REMARK    5  A    between atoms: C_12  and  C_13 
REMARK       I    between atoms: C_13  and  N_14 
REMARK    6  A    between atoms: N_14  and  C_15 
ROOT
HETATM    1  N   UNL     1      44.126 -17.358   5.905  1.00  0.00    -0.063 N 
HETATM    2  H   UNL     1      44.231 -17.315   4.884  1.00  0.00     0.280 HD
HETATM    3  C   UNL     1      42.626 -17.364   6.183  1.00  0.00     0.281 C 
HETATM    4  C   UNL     1      42.007 -16.010   6.132  1.00  0.00     0.060 A 
HETATM    5  C   UNL     1      42.681 -14.857   6.012  1.00  0.00     0.052 A 
HETATM    6  N   UNL     1      42.088 -13.622   6.011  1.00  0.00    -0.228 NA
HETATM    7  C   UNL     1      40.802 -13.578   6.115  1.00  0.00     0.169 A 
HETATM    8  N   UNL     1      40.012 -14.680   6.215  1.00  0.00    -0.302 N 
HETATM    9  C   UNL     1      40.537 -15.935   6.248  1.00  0.00     0.257 A 
HETATM   10  O   UNL     1      39.872 -16.953   6.382  1.00  0.00    -0.267 OA
HETATM   11  C   UNL     1      44.184 -14.860   5.922  1.00  0.00     0.088 C 
HETATM   12  C   UNL     1      44.802 -16.137   6.490  1.00  0.00     0.241 C 
HETATM   13  H   UNL     1      39.011 -14.571   6.297  1.00  0.00     0.171 HD
ENDROOT
BRANCH   7  14
HETATM   14  S   UNL     1      39.911 -12.088   6.155  1.00  0.00    -0.083 SA
BRANCH  14  15
HETATM   15  C   UNL     1      41.292 -10.918   5.955  1.00  0.00     0.185 C 
BRANCH  15  16
HETATM   16  C   UNL     1      41.757 -10.280   7.252  1.00  0.00     0.232 C 
HETATM   17  N   UNL     1      41.919 -11.154   8.311  1.00  0.00    -0.324 N 
HETATM   18  H   UNL     1      41.342 -11.987   8.279  1.00  0.00     0.169 HD
HETATM   19  O   UNL     1      41.992  -9.074   7.284  1.00  0.00    -0.272 OA
BRANCH  17  20
HETATM   20  C   UNL     1      42.550 -10.849   9.538  1.00  0.00     0.076 A 
HETATM   21  C   UNL     1      43.935 -10.944   9.757  1.00  0.00     0.143 A 
HETATM   22  F   UNL     1      44.754 -11.441   8.819  1.00  0.00    -0.204 F 
HETATM   23  C   UNL     1      44.495 -10.627  10.995  1.00  0.00     0.047 A 
HETATM   24  C   UNL     1      43.673 -10.223  12.044  1.00  0.00     0.045 A 
HETATM   25  C   UNL     1      42.299 -10.163  11.842  1.00  0.00     0.118 A 
HETATM   26  F   UNL     1      41.502  -9.792  12.854  1.00  0.00    -0.206 F 
HETATM   27  C   UNL     1      41.730 -10.482  10.610  1.00  0.00     0.074 A 
ENDBRANCH  17  20
ENDBRANCH  15  16
ENDBRANCH  14  15
ENDBRANCH   7  14
BRANCH   1  28
HETATM   28  C   UNL     1      44.808 -18.629   6.356  1.00  0.00     0.273 C 
BRANCH  28  29
HETATM   29  C   UNL     1      44.677 -19.767   5.382  1.00  0.00    -0.030 A 
HETATM   30  C   UNL     1      44.793 -21.106   5.825  1.00  0.00     0.012 A 
HETATM   31  C   UNL     1      44.694 -22.173   4.926  1.00  0.00     0.040 A 
HETATM   32  C   UNL     1      44.482 -21.877   3.597  1.00  0.00     0.105 A 
HETATM   33  C   UNL     1      44.362 -20.582   3.159  1.00  0.00     0.105 A 
HETATM   34  O   UNL     1      44.377 -22.779   2.588  1.00  0.00    -0.323 OA
HETATM   35  C   UNL     1      44.450 -19.507   4.018  1.00  0.00     0.048 A 
HETATM   36  O   UNL     1      44.163 -20.504   1.816  1.00  0.00    -0.323 OA
HETATM   37  C   UNL     1      44.208 -21.904   1.451  1.00  0.00     0.352 A 
ENDBRANCH  28  29
ENDBRANCH   1  28
TORSDOF 6
ENDMDL
MODEL 7
REMARK VINA RESULT:      -9.6      5.192      7.704
REMARK  6 active torsions:
REMARK  status: ('A' for Active; 'I' for Inactive)
REMARK    1  A    between atoms: C_2  and  C_3 
REMARK    2  A    between atoms: C_3  and  N_4 
REMARK    3  A    between atoms: C_10  and  S_11 
REMARK    4  A    between atoms: S_11  and  C_12 
REMARK    5  A    between atoms: C_12  and  C_13 
REMARK       I    between atoms: C_13  and  N_14 
REMARK    6  A    between atoms: N_14  and  C_15 
ROOT
HETATM    1  N   UNL     1      42.647 -17.336   2.113  1.00  0.00    -0.063 N 
HETATM    2  H   UNL     1      42.466 -17.760   3.032  1.00  0.00     0.280 HD
HETATM    3  C   UNL     1      43.159 -15.925   2.384  1.00  0.00     0.281 C 
HETATM    4  C   UNL     1      42.076 -14.944   2.673  1.00  0.00     0.060 A 
HETATM    5  C   UNL     1      40.762 -15.192   2.565  1.00  0.00     0.052 A 
HETATM    6  N   UNL     1      39.787 -14.257   2.796  1.00  0.00    -0.228 NA
HETATM    7  C   UNL     1      40.166 -13.076   3.155  1.00  0.00     0.169 A 
HETATM    8  N   UNL     1      41.467 -12.717   3.323  1.00  0.00    -0.302 N 
HETATM    9  C   UNL     1      42.486 -13.587   3.085  1.00  0.00     0.257 A 
HETATM   10  O   UNL     1      43.670 -13.299   3.179  1.00  0.00    -0.267 OA
HETATM   11  C   UNL     1      40.276 -16.545   2.118  1.00  0.00     0.088 C 
HETATM   12  C   UNL     1      41.341 -17.323   1.347  1.00  0.00     0.241 C 
HETATM   13  H   UNL     1      41.692 -11.772   3.602  1.00  0.00     0.171 HD
ENDROOT
BRANCH   7  14
HETATM   14  S   UNL     1      39.051 -11.780   3.457  1.00  0.00    -0.083 SA
BRANCH  14  15
HETATM   15  C   UNL     1      38.062 -11.887   1.932  1.00  0.00     0.185 C 
BRANCH  15  16
HETATM   16  C   UNL     1      38.867 -12.251   0.696  1.00  0.00     0.232 C 
HETATM   17  N   UNL     1      38.632 -13.518   0.195  1.00  0.00    -0.324 N 
HETATM   18  H   UNL     1      38.320 -14.202   0.875  1.00  0.00     0.169 HD
HETATM   19  O   UNL     1      39.627 -11.421   0.202  1.00  0.00    -0.272 OA
BRANCH  17  20
HETATM   20  C   UNL     1      39.077 -14.001  -1.056  1.00  0.00     0.076 A 
HETATM   21  C   UNL     1      40.410 -14.341  -1.339  1.00  0.00     0.143 A 
HETATM   22  F   UNL     1      41.388 -14.123  -0.448  1.00  0.00    -0.204 F 
HETATM   23  C   UNL     1      40.784 -14.814  -2.598  1.00  0.00     0.047 A 
HETATM   24  C   UNL     1      39.828 -14.942  -3.602  1.00  0.00     0.045 A 
HETATM   25  C   UNL     1      38.515 -14.573  -3.336  1.00  0.00     0.118 A 
HETATM   26  F   UNL     1      37.594 -14.678  -4.304  1.00  0.00    -0.206 F 
HETATM   27  C   UNL     1      38.133 -14.095  -2.083  1.00  0.00     0.074 A 
ENDBRANCH  17  20
ENDBRANCH  15  16
ENDBRANCH  14  15
ENDBRANCH   7  14
BRANCH   1  28
HETATM   28  C   UNL     1      43.673 -18.209   1.429  1.00  0.00     0.273 C 
BRANCH  28  29
HETATM   29  C   UNL     1      43.955 -19.496   2.155  1.00  0.00    -0.030 A 
HETATM   30  C   UNL     1      43.863 -20.735   1.477  1.00  0.00     0.012 A 
HETATM   31  C   UNL     1      44.102 -21.940   2.146  1.00  0.00     0.040 A 
HETATM   32  C   UNL     1      44.427 -21.881   3.483  1.00  0.00     0.105 A 
HETATM   33  C   UNL     1      44.526 -20.683   4.147  1.00  0.00     0.105 A 
HETATM   34  O   UNL     1      44.676 -22.944   4.290  1.00  0.00    -0.323 OA
HETATM   35  C   UNL     1      44.301 -19.477   3.518  1.00  0.00     0.048 A 
HETATM   36  O   UNL     1      44.850 -20.841   5.458  1.00  0.00    -0.323 OA
HETATM   37  C   UNL     1      44.911 -22.284   5.553  1.00  0.00     0.352 A 
ENDBRANCH  28  29
ENDBRANCH   1  28
TORSDOF 6
ENDMDL
MODEL 8
REMARK VINA RESULT:      -9.4      4.819      9.059
REMARK  6 active torsions:
REMARK  status: ('A' for Active; 'I' for Inactive)
REMARK    1  A    between atoms: C_2  and  C_3 
REMARK    2  A    between atoms: C_3  and  N_4 
REMARK    3  A    between atoms: C_10  and  S_11 
REMARK    4  A    between atoms: S_11  and  C_12 
REMARK    5  A    between atoms: C_12  and  C_13 
REMARK       I    between atoms: C_13  and  N_14 
REMARK    6  A    between atoms: N_14  and  C_15 
ROOT
HETATM    1  N   UNL     1      41.510 -13.927   2.797  1.00  0.00    -0.063 N 
HETATM    2  H   UNL     1      41.896 -14.623   2.149  1.00  0.00     0.280 HD
HETATM    3  C   UNL     1      42.630 -13.579   3.772  1.00  0.00     0.281 C 
HETATM    4  C   UNL     1      42.795 -14.573   4.869  1.00  0.00     0.060 A 
HETATM    5  C   UNL     1      41.969 -15.603   5.107  1.00  0.00     0.052 A 
HETATM    6  N   UNL     1      42.120 -16.479   6.150  1.00  0.00    -0.228 NA
HETATM    7  C   UNL     1      43.131 -16.304   6.933  1.00  0.00     0.169 A 
HETATM    8  N   UNL     1      44.049 -15.313   6.776  1.00  0.00    -0.302 N 
HETATM    9  C   UNL     1      43.944 -14.394   5.777  1.00  0.00     0.257 A 
HETATM   10  O   UNL     1      44.718 -13.460   5.621  1.00  0.00    -0.267 OA
HETATM   11  C   UNL     1      40.759 -15.825   4.238  1.00  0.00     0.088 C 
HETATM   12  C   UNL     1      40.328 -14.558   3.501  1.00  0.00     0.241 C 
HETATM   13  H   UNL     1      44.815 -15.232   7.430  1.00  0.00     0.171 HD
ENDROOT
BRANCH   7  14
HETATM   14  S   UNL     1      43.441 -17.314   8.311  1.00  0.00    -0.083 SA
BRANCH  14  15
HETATM   15  C   UNL     1      44.661 -18.445   7.574  1.00  0.00     0.185 C 
BRANCH  15  16
HETATM   16  C   UNL     1      44.093 -19.352   6.496  1.00  0.00     0.232 C 
HETATM   17  N   UNL     1      44.395 -18.982   5.199  1.00  0.00    -0.324 N 
HETATM   18  H   UNL     1      44.562 -17.991   5.058  1.00  0.00     0.169 HD
HETATM   19  O   UNL     1      43.453 -20.350   6.820  1.00  0.00    -0.272 OA
BRANCH  17  20
HETATM   20  C   UNL     1      44.180 -19.773   4.048  1.00  0.00     0.076 A 
HETATM   21  C   UNL     1      43.433 -19.356   2.934  1.00  0.00     0.143 A 
HETATM   22  F   UNL     1      42.773 -18.189   2.937  1.00  0.00    -0.204 F 
HETATM   23  C   UNL     1      43.259 -20.188   1.827  1.00  0.00     0.047 A 
HETATM   24  C   UNL     1      43.821 -21.463   1.823  1.00  0.00     0.045 A 
HETATM   25  C   UNL     1      44.531 -21.892   2.939  1.00  0.00     0.118 A 
HETATM   26  F   UNL     1      45.059 -23.123   2.947  1.00  0.00    -0.206 F 
HETATM   27  C   UNL     1      44.706 -21.069   4.050  1.00  0.00     0.074 A 
ENDBRANCH  17  20
ENDBRANCH  15  16
ENDBRANCH  14  15
ENDBRANCH   7  14
BRANCH   1  28
HETATM   28  C   UNL     1      41.079 -12.747   1.957  1.00  0.00     0.273 C 
BRANCH  28  29
HETATM   29  C   UNL     1      40.660 -13.117   0.561  1.00  0.00    -0.030 A 
HETATM   30  C   UNL     1      39.766 -12.290  -0.161  1.00  0.00     0.012 A 
HETATM   31  C   UNL     1      39.351 -12.634  -1.451  1.00  0.00     0.040 A 
HETATM   32  C   UNL     1      39.839 -13.802  -1.994  1.00  0.00     0.105 A 
HETATM   33  C   UNL     1      40.713 -14.606  -1.305  1.00  0.00     0.105 A 
HETATM   34  O   UNL     1      39.535 -14.298  -3.221  1.00  0.00    -0.323 OA
HETATM   35  C   UNL     1      41.145 -14.295  -0.033  1.00  0.00     0.048 A 
HETATM   36  O   UNL     1      41.070 -15.711  -2.012  1.00  0.00    -0.323 OA
HETATM   37  C   UNL     1      40.291 -15.529  -3.217  1.00  0.00     0.352 A 
ENDBRANCH  28  29
ENDBRANCH   1  28
TORSDOF 6
ENDMDL
MODEL 9
REMARK VINA RESULT:      -9.3      1.876      2.588
REMARK  6 active torsions:
REMARK  status: ('A' for Active; 'I' for Inactive)
REMARK    1  A    between atoms: C_2  and  C_3 
REMARK    2  A    between atoms: C_3  and  N_4 
REMARK    3  A    between atoms: C_10  and  S_11 
REMARK    4  A    between atoms: S_11  and  C_12 
REMARK    5  A    between atoms: C_12  and  C_13 
REMARK       I    between atoms: C_13  and  N_14 
REMARK    6  A    between atoms: N_14  and  C_15 
ROOT
HETATM    1  N   UNL     1      43.652 -16.297   6.028  1.00  0.00    -0.063 N 
HETATM    2  H   UNL     1      44.086 -16.236   5.099  1.00  0.00     0.280 HD
HETATM    3  C   UNL     1      42.173 -15.976   5.835  1.00  0.00     0.281 C 
HETATM    4  C   UNL     1      41.889 -14.516   5.750  1.00  0.00     0.060 A 
HETATM    5  C   UNL     1      42.783 -13.541   5.970  1.00  0.00     0.052 A 
HETATM    6  N   UNL     1      42.483 -12.205   5.927  1.00  0.00    -0.228 NA
HETATM    7  C   UNL     1      41.268 -11.876   5.639  1.00  0.00     0.169 A 
HETATM    8  N   UNL     1      40.283 -12.774   5.371  1.00  0.00    -0.302 N 
HETATM    9  C   UNL     1      40.506 -14.115   5.422  1.00  0.00     0.257 A 
HETATM   10  O   UNL     1      39.644 -14.961   5.233  1.00  0.00    -0.267 OA
HETATM   11  C   UNL     1      44.203 -13.880   6.340  1.00  0.00     0.088 C 
HETATM   12  C   UNL     1      44.336 -15.286   6.923  1.00  0.00     0.241 C 
HETATM   13  H   UNL     1      39.353 -12.445   5.156  1.00  0.00     0.171 HD
ENDROOT
BRANCH   7  14
HETATM   14  S   UNL     1      40.731 -10.226   5.573  1.00  0.00    -0.083 SA
BRANCH  14  15
HETATM   15  C   UNL     1      39.645 -10.216   7.034  1.00  0.00     0.185 C 
BRANCH  15  16
HETATM   16  C   UNL     1      40.336 -10.625   8.323  1.00  0.00     0.232 C 
HETATM   17  N   UNL     1      41.618 -10.130   8.484  1.00  0.00    -0.324 N 
HETATM   18  H   UNL     1      42.119  -9.935   7.624  1.00  0.00     0.169 HD
HETATM   19  O   UNL     1      39.733 -11.315   9.142  1.00  0.00    -0.272 OA
BRANCH  17  20
HETATM   20  C   UNL     1      42.372 -10.178   9.678  1.00  0.00     0.076 A 
HETATM   21  C   UNL     1      42.157  -9.333  10.779  1.00  0.00     0.143 A 
HETATM   22  F   UNL     1      41.266  -8.333  10.725  1.00  0.00    -0.204 F 
HETATM   23  C   UNL     1      42.940  -9.433  11.931  1.00  0.00     0.047 A 
HETATM   24  C   UNL     1      43.965 -10.374  11.993  1.00  0.00     0.045 A 
HETATM   25  C   UNL     1      44.203 -11.188  10.891  1.00  0.00     0.118 A 
HETATM   26  F   UNL     1      45.199 -12.083  10.939  1.00  0.00    -0.206 F 
HETATM   27  C   UNL     1      43.429 -11.092   9.735  1.00  0.00     0.074 A 
ENDBRANCH  17  20
ENDBRANCH  15  16
ENDBRANCH  14  15
ENDBRANCH   7  14
BRANCH   1  28
HETATM   28  C   UNL     1      43.883 -17.707   6.520  1.00  0.00     0.273 C 
BRANCH  28  29
HETATM   29  C   UNL     1      44.087 -18.709   5.418  1.00  0.00    -0.030 A 
HETATM   30  C   UNL     1      43.982 -18.314   4.062  1.00  0.00     0.012 A 
HETATM   31  C   UNL     1      44.148 -19.240   3.028  1.00  0.00     0.040 A 
HETATM   32  C   UNL     1      44.415 -20.547   3.370  1.00  0.00     0.105 A 
HETATM   33  C   UNL     1      44.526 -20.939   4.682  1.00  0.00     0.105 A 
HETATM   34  O   UNL     1      44.589 -21.578   2.504  1.00  0.00    -0.323 OA
HETATM   35  C   UNL     1      44.372 -20.051   5.726  1.00  0.00     0.048 A 
HETATM   36  O   UNL     1      44.786 -22.267   4.807  1.00  0.00    -0.323 OA
HETATM   37  C   UNL     1      44.791 -22.677   3.419  1.00  0.00     0.352 A 
ENDBRANCH  28  29
ENDBRANCH   1  28
TORSDOF 6
ENDMDL
MODEL 10
REMARK VINA RESULT:      -9.2      5.672      9.139
REMARK  6 active torsions:
REMARK  status: ('A' for Active; 'I' for Inactive)
REMARK    1  A    between atoms: C_2  and  C_3 
REMARK    2  A    between atoms: C_3  and  N_4 
REMARK    3  A    between atoms: C_10  and  S_11 
REMARK    4  A    between atoms: S_11  and  C_12 
REMARK    5  A    between atoms: C_12  and  C_13 
REMARK       I    between atoms: C_13  and  N_14 
REMARK    6  A    between atoms: N_14  and  C_15 
ROOT
HETATM    1  N   UNL     1      41.903 -14.502  -1.231  1.00  0.00    -0.063 N 
HETATM    2  H   UNL     1      42.905 -14.694  -1.101  1.00  0.00     0.280 HD
HETATM    3  C   UNL     1      41.579 -13.298  -0.352  1.00  0.00     0.281 C 
HETATM    4  C   UNL     1      41.372 -13.647   1.081  1.00  0.00     0.060 A 
HETATM    5  C   UNL     1      41.312 -14.894   1.571  1.00  0.00     0.052 A 
HETATM    6  N   UNL     1      41.077 -15.188   2.889  1.00  0.00    -0.228 NA
HETATM    7  C   UNL     1      40.923 -14.197   3.702  1.00  0.00     0.169 A 
HETATM    8  N   UNL     1      40.989 -12.892   3.326  1.00  0.00    -0.302 N 
HETATM    9  C   UNL     1      41.193 -12.531   2.030  1.00  0.00     0.257 A 
HETATM   10  O   UNL     1      41.216 -11.373   1.636  1.00  0.00    -0.267 OA
HETATM   11  C   UNL     1      41.454 -16.080   0.653  1.00  0.00     0.088 C 
HETATM   12  C   UNL     1      41.138 -15.735  -0.801  1.00  0.00     0.241 C 
HETATM   13  H   UNL     1      40.855 -12.166   4.016  1.00  0.00     0.171 HD
ENDROOT
BRANCH   7  14
HETATM   14  S   UNL     1      40.593 -14.409   5.393  1.00  0.00    -0.083 SA
BRANCH  14  15
HETATM   15  C   UNL     1      42.140 -15.229   5.890  1.00  0.00     0.185 C 
BRANCH  15  16
HETATM   16  C   UNL     1      42.260 -16.666   5.413  1.00  0.00     0.232 C 
HETATM   17  N   UNL     1      43.371 -16.935   4.635  1.00  0.00    -0.324 N 
HETATM   18  H   UNL     1      43.738 -16.146   4.115  1.00  0.00     0.169 HD
HETATM   19  O   UNL     1      41.419 -17.493   5.761  1.00  0.00    -0.272 OA
BRANCH  17  20
HETATM   20  C   UNL     1      43.823 -18.222   4.265  1.00  0.00     0.076 A 
HETATM   21  C   UNL     1      44.722 -18.989   5.025  1.00  0.00     0.143 A 
HETATM   22  F   UNL     1      45.302 -18.492   6.126  1.00  0.00    -0.204 F 
HETATM   23  C   UNL     1      45.128 -20.256   4.602  1.00  0.00     0.047 A 
HETATM   24  C   UNL     1      44.651 -20.771   3.399  1.00  0.00     0.045 A 
HETATM   25  C   UNL     1      43.789 -20.000   2.628  1.00  0.00     0.118 A 
HETATM   26  F   UNL     1      43.341 -20.484   1.461  1.00  0.00    -0.206 F 
HETATM   27  C   UNL     1      43.381 -18.732   3.040  1.00  0.00     0.074 A 
ENDBRANCH  17  20
ENDBRANCH  15  16
ENDBRANCH  14  15
ENDBRANCH   7  14
BRANCH   1  28
HETATM   28  C   UNL     1      41.705 -14.221  -2.703  1.00  0.00     0.273 C 
BRANCH  28  29
HETATM   29  C   UNL     1      40.300 -14.459  -3.182  1.00  0.00    -0.030 A 
HETATM   30  C   UNL     1      39.907 -15.740  -3.638  1.00  0.00     0.012 A 
HETATM   31  C   UNL     1      38.609 -15.970  -4.107  1.00  0.00     0.040 A 
HETATM   32  C   UNL     1      37.730 -14.910  -4.112  1.00  0.00     0.105 A 
HETATM   33  C   UNL     1      38.099 -13.666  -3.665  1.00  0.00     0.105 A 
HETATM   34  O   UNL     1      36.443 -14.945  -4.543  1.00  0.00    -0.323 OA
HETATM   35  C   UNL     1      39.369 -13.405  -3.193  1.00  0.00     0.048 A 
HETATM   36  O   UNL     1      37.091 -12.759  -3.758  1.00  0.00    -0.323 OA
HETATM   37  C   UNL     1      36.048 -13.569  -4.350  1.00  0.00     0.352 A 
ENDBRANCH  28  29
ENDBRANCH   1  28
TORSDOF 6
ENDMDL
