MODEL 1
REMARK VINA RESULT:      -9.0      0.000      0.000
REMARK  8 active torsions:
REMARK  status: ('A' for Active; 'I' for Inactive)
REMARK    1  A    between atoms: C_2  and  N_3 
REMARK       I    between atoms: N_3  and  C_4 
REMARK       I    between atoms: C_4  and  N_5 
REMARK    2  A    between atoms: N_5  and  C_6 
REMARK    3  A    between atoms: N_5  and  C_21 
REMARK    4  A    between atoms: C_6  and  C_7 
REMARK    5  A    between atoms: C_8  and  O_9 
REMARK    6  A    between atoms: C_21  and  C_22 
REMARK    7  A    between atoms: C_22  and  C_23 
REMARK    8  A    between atoms: C_23  and  N_24 
ROOT
HETATM    1  N   UNL     1      41.739 -14.045   0.021  1.00  0.00    -0.309 N 
HETATM    2  C   UNL     1      40.924 -14.088   1.126  1.00  0.00     0.323 C 
HETATM    3  N   UNL     1      41.510 -14.627   2.282  1.00  0.00    -0.330 N 
HETATM    4  O   UNL     1      39.761 -13.693   1.159  1.00  0.00    -0.247 OA
HETATM    5  H   UNL     1      42.473 -14.736  -0.021  1.00  0.00     0.170 HD
ENDROOT
BRANCH   3   6
HETATM    6  C   UNL     1      42.939 -14.966   2.367  1.00  0.00     0.170 C 
BRANCH   6   7
HETATM    7  C   UNL     1      43.284 -16.426   2.289  1.00  0.00     0.013 A 
HETATM    8  C   UNL     1      43.107 -17.210   1.155  1.00  0.00     0.170 A 
HETATM    9  N   UNL     1      43.394 -18.522   1.080  1.00  0.00    -0.224 NA
HETATM   10  C   UNL     1      43.786 -19.154   2.200  1.00  0.00     0.072 A 
HETATM   11  C   UNL     1      43.962 -18.463   3.428  1.00  0.00    -0.004 A 
HETATM   12  C   UNL     1      44.007 -20.528   2.175  1.00  0.00     0.072 A 
HETATM   13  C   UNL     1      43.719 -17.085   3.444  1.00  0.00     0.027 A 
HETATM   14  C   UNL     1      44.349 -19.141   4.598  1.00  0.00     0.053 A 
HETATM   15  C   UNL     1      44.538 -20.499   4.519  1.00  0.00     0.106 A 
HETATM   16  C   UNL     1      44.372 -21.176   3.339  1.00  0.00     0.107 A 
HETATM   17  O   UNL     1      44.884 -21.316   5.547  1.00  0.00    -0.323 OA
HETATM   18  O   UNL     1      44.594 -22.510   3.474  1.00  0.00    -0.323 OA
HETATM   19  C   UNL     1      44.884 -22.600   4.886  1.00  0.00     0.352 A 
BRANCH   8  20
HETATM   20  O   UNL     1      42.649 -16.686  -0.021  1.00  0.00    -0.344 OA
HETATM   21  H   UNL     1      43.384 -16.731  -0.654  1.00  0.00     0.219 HD
ENDBRANCH   8  20
ENDBRANCH   6   7
ENDBRANCH   3   6
BRANCH   3  22
HETATM   22  C   UNL     1      40.586 -15.253   3.243  1.00  0.00     0.129 C 
BRANCH  22  23
HETATM   23  C   UNL     1      40.550 -14.637   4.652  1.00  0.00     0.048 C 
BRANCH  23  24
HETATM   24  C   UNL     1      40.455 -15.670   5.769  1.00  0.00     0.236 C 
BRANCH  24  25
HETATM   25  N   UNL     1      41.710 -15.690   6.620  1.00  0.00    -0.067 N 
HETATM   26  H   UNL     1      41.486 -15.267   7.528  1.00  0.00     0.280 HD
HETATM   27  C   UNL     1      42.257 -17.095   6.875  1.00  0.00     0.261 C 
HETATM   28  C   UNL     1      43.545 -16.996   7.704  1.00  0.00     0.195 C 
HETATM   29  O   UNL     1      44.525 -16.182   7.048  1.00  0.00    -0.388 OA
HETATM   30  C   UNL     1      44.057 -14.845   6.847  1.00  0.00     0.195 C 
HETATM   31  C   UNL     1      42.801 -14.830   5.974  1.00  0.00     0.261 C 
ENDBRANCH  24  25
ENDBRANCH  23  24
ENDBRANCH  22  23
ENDBRANCH   3  22
BRANCH   1  32
HETATM   32  C   UNL     1      41.463 -13.428  -1.221  1.00  0.00     0.036 A 
HETATM   33  C   UNL     1      40.684 -14.012  -2.224  1.00  0.00     0.032 A 
HETATM   34  C   UNL     1      40.459 -13.332  -3.426  1.00  0.00     0.044 A 
HETATM   35  C   UNL     1      41.004 -12.069  -3.618  1.00  0.00     0.116 A 
HETATM   36  C   UNL     1      41.769 -11.468  -2.628  1.00  0.00     0.044 A 
HETATM   37  F   UNL     1      40.789 -11.423  -4.770  1.00  0.00    -0.206 F 
HETATM   38  C   UNL     1      41.995 -12.146  -1.427  1.00  0.00     0.032 A 
ENDBRANCH   1  32
TORSDOF 8
ENDMDL
MODEL 2
REMARK VINA RESULT:      -8.9      3.448      5.449
REMARK  8 active torsions:
REMARK  status: ('A' for Active; 'I' for Inactive)
REMARK    1  A    between atoms: C_2  and  N_3 
REMARK       I    between atoms: N_3  and  C_4 
REMARK       I    between atoms: C_4  and  N_5 
REMARK    2  A    between atoms: N_5  and  C_6 
REMARK    3  A    between atoms: N_5  and  C_21 
REMARK    4  A    between atoms: C_6  and  C_7 
REMARK    5  A    between atoms: C_8  and  O_9 
REMARK    6  A    between atoms: C_21  and  C_22 
REMARK    7  A    between atoms: C_22  and  C_23 
REMARK    8  A    between atoms: C_23  and  N_24 
ROOT
HETATM    1  N   UNL     1      41.985 -14.919   5.336  1.00  0.00    -0.309 N 
HETATM    2  C   UNL     1      43.262 -14.421   5.429  1.00  0.00     0.323 C 
HETATM    3  N   UNL     1      43.997 -14.860   6.541  1.00  0.00    -0.330 N 
HETATM    4  O   UNL     1      43.775 -13.647   4.624  1.00  0.00    -0.247 OA
HETATM    5  H   UNL     1      41.542 -15.180   6.204  1.00  0.00     0.170 HD
ENDROOT
BRANCH   3   6
HETATM    6  C   UNL     1      43.514 -15.908   7.453  1.00  0.00     0.170 C 
BRANCH   6   7
HETATM    7  C   UNL     1      43.676 -17.326   6.984  1.00  0.00     0.013 A 
HETATM    8  C   UNL     1      43.893 -18.408   7.829  1.00  0.00     0.170 A 
HETATM    9  N   UNL     1      44.060 -19.678   7.419  1.00  0.00    -0.224 NA
HETATM   10  C   UNL     1      44.122 -19.919   6.098  1.00  0.00     0.072 A 
HETATM   11  C   UNL     1      43.955 -18.884   5.139  1.00  0.00    -0.004 A 
HETATM   12  C   UNL     1      44.380 -21.208   5.644  1.00  0.00     0.072 A 
HETATM   13  C   UNL     1      43.714 -17.589   5.610  1.00  0.00     0.027 A 
HETATM   14  C   UNL     1      44.046 -19.145   3.760  1.00  0.00     0.053 A 
HETATM   15  C   UNL     1      44.318 -20.434   3.369  1.00  0.00     0.106 A 
HETATM   16  C   UNL     1      44.480 -21.439   4.286  1.00  0.00     0.107 A 
HETATM   17  O   UNL     1      44.467 -20.862   2.089  1.00  0.00    -0.323 OA
HETATM   18  O   UNL     1      44.753 -22.634   3.697  1.00  0.00    -0.323 OA
HETATM   19  C   UNL     1      44.780 -22.256   2.304  1.00  0.00     0.352 A 
BRANCH   8  20
HETATM   20  O   UNL     1      43.919 -18.268   9.189  1.00  0.00    -0.344 OA
HETATM   21  H   UNL     1      43.424 -17.459   9.398  1.00  0.00     0.219 HD
ENDBRANCH   8  20
ENDBRANCH   6   7
ENDBRANCH   3   6
BRANCH   3  22
HETATM   22  C   UNL     1      45.048 -13.947   7.022  1.00  0.00     0.129 C 
BRANCH  22  23
HETATM   23  C   UNL     1      44.572 -12.699   7.781  1.00  0.00     0.048 C 
BRANCH  23  24
HETATM   24  C   UNL     1      44.878 -12.736   9.274  1.00  0.00     0.236 C 
BRANCH  24  25
HETATM   25  N   UNL     1      43.699 -12.258  10.099  1.00  0.00    -0.067 N 
HETATM   26  H   UNL     1      42.947 -12.952  10.013  1.00  0.00     0.280 HD
HETATM   27  C   UNL     1      44.017 -12.089  11.585  1.00  0.00     0.261 C 
HETATM   28  C   UNL     1      42.773 -11.561  12.313  1.00  0.00     0.195 C 
HETATM   29  O   UNL     1      42.322 -10.325  11.748  1.00  0.00    -0.388 OA
HETATM   30  C   UNL     1      41.965 -10.471  10.370  1.00  0.00     0.195 C 
HETATM   31  C   UNL     1      43.164 -10.936   9.540  1.00  0.00     0.261 C 
ENDBRANCH  24  25
ENDBRANCH  23  24
ENDBRANCH  22  23
ENDBRANCH   3  22
BRANCH   1  32
HETATM   32  C   UNL     1      41.083 -14.765   4.258  1.00  0.00     0.036 A 
HETATM   33  C   UNL     1      40.342 -13.603   4.024  1.00  0.00     0.032 A 
HETATM   34  C   UNL     1      39.471 -13.532   2.933  1.00  0.00     0.044 A 
HETATM   35  C   UNL     1      39.349 -14.616   2.073  1.00  0.00     0.116 A 
HETATM   36  C   UNL     1      40.087 -15.773   2.282  1.00  0.00     0.044 A 
HETATM   37  F   UNL     1      38.512 -14.545   1.031  1.00  0.00    -0.206 F 
HETATM   38  C   UNL     1      40.958 -15.846   3.372  1.00  0.00     0.032 A 
ENDBRANCH   1  32
TORSDOF 8
ENDMDL
MODEL 3
REMARK VINA RESULT:      -8.8      3.469      7.690
REMARK  8 active torsions:
REMARK  status: ('A' for Active; 'I' for Inactive)
REMARK    1  A    between atoms: C_2  and  N_3 
REMARK       I    between atoms: N_3  and  C_4 
REMARK       I    between atoms: C_4  and  N_5 
REMARK    2  A    between atoms: N_5  and  C_6 
REMARK    3  A    between atoms: N_5  and  C_21 
REMARK    4  A    between atoms: C_6  and  C_7 
REMARK    5  A    between atoms: C_8  and  O_9 
REMARK    6  A    between atoms: C_21  and  C_22 
REMARK    7  A    between atoms: C_22  and  C_23 
REMARK    8  A    between atoms: C_23  and  N_24 
ROOT
HETATM    1  N   UNL     1      43.616 -17.610   3.686  1.00  0.00    -0.309 N 
HETATM    2  C   UNL     1      42.597 -17.120   4.466  1.00  0.00     0.323 C 
HETATM    3  N   UNL     1      42.485 -15.721   4.495  1.00  0.00    -0.330 N 
HETATM    4  O   UNL     1      41.808 -17.810   5.109  1.00  0.00    -0.247 OA
HETATM    5  H   UNL     1      44.413 -17.004   3.558  1.00  0.00     0.170 HD
ENDROOT
BRANCH   3   6
HETATM    6  C   UNL     1      43.280 -14.839   3.628  1.00  0.00     0.170 C 
BRANCH   6   7
HETATM    7  C   UNL     1      42.610 -14.360   2.371  1.00  0.00     0.013 A 
HETATM    8  C   UNL     1      42.103 -13.078   2.198  1.00  0.00     0.170 A 
HETATM    9  N   UNL     1      41.483 -12.644   1.085  1.00  0.00    -0.224 NA
HETATM   10  C   UNL     1      41.244 -13.530   0.102  1.00  0.00     0.072 A 
HETATM   11  C   UNL     1      41.680 -14.879   0.186  1.00  0.00    -0.004 A 
HETATM   12  C   UNL     1      40.529 -13.133  -1.024  1.00  0.00     0.072 A 
HETATM   13  C   UNL     1      42.382 -15.269   1.332  1.00  0.00     0.027 A 
HETATM   14  C   UNL     1      41.402 -15.801  -0.839  1.00  0.00     0.053 A 
HETATM   15  C   UNL     1      40.679 -15.358  -1.920  1.00  0.00     0.106 A 
HETATM   16  C   UNL     1      40.254 -14.059  -2.011  1.00  0.00     0.107 A 
HETATM   17  O   UNL     1      40.297 -16.111  -2.983  1.00  0.00    -0.323 OA
HETATM   18  O   UNL     1      39.548 -13.826  -3.149  1.00  0.00    -0.323 OA
HETATM   19  C   UNL     1      39.546 -15.141  -3.747  1.00  0.00     0.352 A 
BRANCH   8  20
HETATM   20  O   UNL     1      42.228 -12.115   3.159  1.00  0.00    -0.344 OA
HETATM   21  H   UNL     1      43.164 -12.097   3.419  1.00  0.00     0.219 HD
ENDBRANCH   8  20
ENDBRANCH   6   7
ENDBRANCH   3   6
BRANCH   3  22
HETATM   22  C   UNL     1      41.884 -15.147   5.711  1.00  0.00     0.129 C 
BRANCH  22  23
HETATM   23  C   UNL     1      40.348 -15.090   5.750  1.00  0.00     0.048 C 
BRANCH  23  24
HETATM   24  C   UNL     1      39.743 -14.163   4.702  1.00  0.00     0.236 C 
BRANCH  24  25
HETATM   25  N   UNL     1      39.863 -12.706   5.108  1.00  0.00    -0.067 N 
HETATM   26  H   UNL     1      40.841 -12.420   4.980  1.00  0.00     0.280 HD
HETATM   27  C   UNL     1      38.983 -11.765   4.285  1.00  0.00     0.261 C 
HETATM   28  C   UNL     1      39.149 -10.331   4.807  1.00  0.00     0.195 C 
HETATM   29  O   UNL     1      38.822 -10.241   6.198  1.00  0.00    -0.388 OA
HETATM   30  C   UNL     1      39.670 -11.073   6.996  1.00  0.00     0.195 C 
HETATM   31  C   UNL     1      39.531 -12.543   6.594  1.00  0.00     0.261 C 
ENDBRANCH  24  25
ENDBRANCH  23  24
ENDBRANCH  22  23
ENDBRANCH   3  22
BRANCH   1  32
HETATM   32  C   UNL     1      43.868 -18.962   3.360  1.00  0.00     0.036 A 
HETATM   33  C   UNL     1      43.459 -19.564   2.166  1.00  0.00     0.032 A 
HETATM   34  C   UNL     1      43.750 -20.910   1.920  1.00  0.00     0.044 A 
HETATM   35  C   UNL     1      44.456 -21.648   2.862  1.00  0.00     0.116 A 
HETATM   36  C   UNL     1      44.882 -21.063   4.047  1.00  0.00     0.044 A 
HETATM   37  F   UNL     1      44.729 -22.936   2.624  1.00  0.00    -0.206 F 
HETATM   38  C   UNL     1      44.592 -19.719   4.294  1.00  0.00     0.032 A 
ENDBRANCH   1  32
TORSDOF 8
ENDMDL
MODEL 4
REMARK VINA RESULT:      -8.8      3.461      7.556
REMARK  8 active torsions:
REMARK  status: ('A' for Active; 'I' for Inactive)
REMARK    1  A    between atoms: C_2  and  N_3 
REMARK       I    between atoms: N_3  and  C_4 
REMARK       I    between atoms: C_4  and  N_5 
REMARK    2  A    between atoms: N_5  and  C_6 
REMARK    3  A    between atoms: N_5  and  C_21 
REMARK    4  A    between atoms: C_6  and  C_7 
REMARK    5  A    between atoms: C_8  and  O_9 
REMARK    6  A    between atoms: C_21  and  C_22 
REMARK    7  A    between atoms: C_22  and  C_23 
REMARK    8  A    between atoms: C_23  and  N_24 
ROOT
HETATM    1  N   UNL     1      43.682 -17.309   3.617  1.00  0.00    -0.309 N 
HETATM    2  C   UNL     1      42.702 -16.760   4.407  1.00  0.00     0.323 C 
HETATM    3  N   UNL     1      42.568 -15.366   4.316  1.00  0.00    -0.330 N 
HETATM    4  O   UNL     1      41.963 -17.397   5.156  1.00  0.00    -0.247 OA
HETATM    5  H   UNL     1      44.460 -16.708   3.387  1.00  0.00     0.170 HD
ENDROOT
BRANCH   3   6
HETATM    6  C   UNL     1      43.297 -14.559   3.326  1.00  0.00     0.170 C 
BRANCH   6   7
HETATM    7  C   UNL     1      42.532 -14.162   2.096  1.00  0.00     0.013 A 
HETATM    8  C   UNL     1      41.898 -12.935   1.934  1.00  0.00     0.170 A 
HETATM    9  N   UNL     1      41.193 -12.577   0.845  1.00  0.00    -0.224 NA
HETATM   10  C   UNL     1      40.997 -13.494  -0.119  1.00  0.00     0.072 A 
HETATM   11  C   UNL     1      41.563 -14.794  -0.042  1.00  0.00    -0.004 A 
HETATM   12  C   UNL     1      40.201 -13.181  -1.216  1.00  0.00     0.072 A 
HETATM   13  C   UNL     1      42.347 -15.101   1.076  1.00  0.00     0.027 A 
HETATM   14  C   UNL     1      41.331 -15.752  -1.045  1.00  0.00     0.053 A 
HETATM   15  C   UNL     1      40.524 -15.393  -2.098  1.00  0.00     0.106 A 
HETATM   16  C   UNL     1      39.973 -14.141  -2.182  1.00  0.00     0.107 A 
HETATM   17  O   UNL     1      40.170 -16.192  -3.137  1.00  0.00    -0.323 OA
HETATM   18  O   UNL     1      39.200 -13.992  -3.290  1.00  0.00    -0.323 OA
HETATM   19  C   UNL     1      39.298 -15.308  -3.875  1.00  0.00     0.352 A 
BRANCH   8  20
HETATM   20  O   UNL     1      41.972 -11.953   2.880  1.00  0.00    -0.344 OA
HETATM   21  H   UNL     1      42.755 -11.417   2.669  1.00  0.00     0.219 HD
ENDBRANCH   8  20
ENDBRANCH   6   7
ENDBRANCH   3   6
BRANCH   3  22
HETATM   22  C   UNL     1      42.029 -14.689   5.508  1.00  0.00     0.129 C 
BRANCH  22  23
HETATM   23  C   UNL     1      42.811 -13.464   6.008  1.00  0.00     0.048 C 
BRANCH  23  24
HETATM   24  C   UNL     1      44.047 -13.819   6.827  1.00  0.00     0.236 C 
BRANCH  24  25
HETATM   25  N   UNL     1      44.126 -13.001   8.102  1.00  0.00    -0.067 N 
HETATM   26  H   UNL     1      43.758 -13.574   8.870  1.00  0.00     0.280 HD
HETATM   27  C   UNL     1      45.547 -12.574   8.470  1.00  0.00     0.261 C 
HETATM   28  C   UNL     1      45.505 -11.720   9.745  1.00  0.00     0.195 C 
HETATM   29  O   UNL     1      44.659 -10.576   9.579  1.00  0.00    -0.388 OA
HETATM   30  C   UNL     1      43.310 -10.952   9.288  1.00  0.00     0.195 C 
HETATM   31  C   UNL     1      43.235 -11.761   7.991  1.00  0.00     0.261 C 
ENDBRANCH  24  25
ENDBRANCH  23  24
ENDBRANCH  22  23
ENDBRANCH   3  22
BRANCH   1  32
HETATM   32  C   UNL     1      43.937 -18.682   3.401  1.00  0.00     0.036 A 
HETATM   33  C   UNL     1      44.610 -19.502   4.312  1.00  0.00     0.032 A 
HETATM   34  C   UNL     1      44.821 -20.853   4.021  1.00  0.00     0.044 A 
HETATM   35  C   UNL     1      44.352 -21.384   2.826  1.00  0.00     0.116 A 
HETATM   36  C   UNL     1      43.670 -20.589   1.916  1.00  0.00     0.044 A 
HETATM   37  F   UNL     1      44.559 -22.677   2.550  1.00  0.00    -0.206 F 
HETATM   38  C   UNL     1      43.459 -19.239   2.205  1.00  0.00     0.032 A 
ENDBRANCH   1  32
TORSDOF 8
ENDMDL
MODEL 5
REMARK VINA RESULT:      -8.6      4.003      9.486
REMARK  8 active torsions:
REMARK  status: ('A' for Active; 'I' for Inactive)
REMARK    1  A    between atoms: C_2  and  N_3 
REMARK       I    between atoms: N_3  and  C_4 
REMARK       I    between atoms: C_4  and  N_5 
REMARK    2  A    between atoms: N_5  and  C_6 
REMARK    3  A    between atoms: N_5  and  C_21 
REMARK    4  A    between atoms: C_6  and  C_7 
REMARK    5  A    between atoms: C_8  and  O_9 
REMARK    6  A    between atoms: C_21  and  C_22 
REMARK    7  A    between atoms: C_22  and  C_23 
REMARK    8  A    between atoms: C_23  and  N_24 
ROOT
HETATM    1  N   UNL     1      42.299 -17.721   2.826  1.00  0.00    -0.309 N 
HETATM    2  C   UNL     1      42.650 -16.730   1.942  1.00  0.00     0.323 C 
HETATM    3  N   UNL     1      41.643 -15.793   1.662  1.00  0.00    -0.330 N 
HETATM    4  O   UNL     1      43.752 -16.620   1.408  1.00  0.00    -0.247 OA
HETATM    5  H   UNL     1      41.318 -17.957   2.868  1.00  0.00     0.170 HD
ENDROOT
BRANCH   3   6
HETATM    6  C   UNL     1      40.362 -15.760   2.383  1.00  0.00     0.170 C 
BRANCH   6   7
HETATM    7  C   UNL     1      40.275 -14.812   3.546  1.00  0.00     0.013 A 
HETATM    8  C   UNL     1      40.379 -15.198   4.877  1.00  0.00     0.170 A 
HETATM    9  N   UNL     1      40.284 -14.361   5.926  1.00  0.00    -0.224 NA
HETATM   10  C   UNL     1      39.967 -13.076   5.690  1.00  0.00     0.072 A 
HETATM   11  C   UNL     1      39.796 -12.577   4.371  1.00  0.00    -0.004 A 
HETATM   12  C   UNL     1      39.776 -12.206   6.758  1.00  0.00     0.072 A 
HETATM   13  C   UNL     1      39.974 -13.467   3.307  1.00  0.00     0.027 A 
HETATM   14  C   UNL     1      39.442 -11.236   4.139  1.00  0.00     0.053 A 
HETATM   15  C   UNL     1      39.250 -10.425   5.232  1.00  0.00     0.106 A 
HETATM   16  C   UNL     1      39.413 -10.897   6.508  1.00  0.00     0.107 A 
HETATM   17  O   UNL     1      38.881  -9.119   5.199  1.00  0.00    -0.323 OA
HETATM   18  O   UNL     1      39.168  -9.943   7.445  1.00  0.00    -0.323 OA
HETATM   19  C   UNL     1      38.794  -8.825   6.610  1.00  0.00     0.352 A 
BRANCH   8  20
HETATM   20  O   UNL     1      40.631 -16.492   5.236  1.00  0.00    -0.344 OA
HETATM   21  H   UNL     1      41.510 -16.715   4.888  1.00  0.00     0.219 HD
ENDBRANCH   8  20
ENDBRANCH   6   7
ENDBRANCH   3   6
BRANCH   3  22
HETATM   22  C   UNL     1      41.720 -15.134   0.347  1.00  0.00     0.129 C 
BRANCH  22  23
HETATM   23  C   UNL     1      40.458 -14.388  -0.117  1.00  0.00     0.048 C 
BRANCH  23  24
HETATM   24  C   UNL     1      40.444 -14.078  -1.610  1.00  0.00     0.236 C 
BRANCH  24  25
HETATM   25  N   UNL     1      39.389 -14.888  -2.338  1.00  0.00    -0.067 N 
HETATM   26  H   UNL     1      39.064 -15.630  -1.707  1.00  0.00     0.280 HD
HETATM   27  C   UNL     1      38.172 -14.067  -2.768  1.00  0.00     0.261 C 
HETATM   28  C   UNL     1      37.194 -14.971  -3.531  1.00  0.00     0.195 C 
HETATM   29  O   UNL     1      37.822 -15.578  -4.666  1.00  0.00    -0.388 OA
HETATM   30  C   UNL     1      38.932 -16.397  -4.284  1.00  0.00     0.195 C 
HETATM   31  C   UNL     1      40.001 -15.571  -3.566  1.00  0.00     0.261 C 
ENDBRANCH  24  25
ENDBRANCH  23  24
ENDBRANCH  22  23
ENDBRANCH   3  22
BRANCH   1  32
HETATM   32  C   UNL     1      43.146 -18.700   3.393  1.00  0.00     0.036 A 
HETATM   33  C   UNL     1      43.579 -18.678   4.722  1.00  0.00     0.032 A 
HETATM   34  C   UNL     1      44.418 -19.687   5.206  1.00  0.00     0.044 A 
HETATM   35  C   UNL     1      44.815 -20.718   4.365  1.00  0.00     0.116 A 
HETATM   36  C   UNL     1      44.384 -20.764   3.046  1.00  0.00     0.044 A 
HETATM   37  F   UNL     1      45.621 -21.680   4.831  1.00  0.00    -0.206 F 
HETATM   38  C   UNL     1      43.546 -19.757   2.561  1.00  0.00     0.032 A 
ENDBRANCH   1  32
TORSDOF 8
ENDMDL
MODEL 6
REMARK VINA RESULT:      -8.5      3.214      6.807
REMARK  8 active torsions:
REMARK  status: ('A' for Active; 'I' for Inactive)
REMARK    1  A    between atoms: C_2  and  N_3 
REMARK       I    between atoms: N_3  and  C_4 
REMARK       I    between atoms: C_4  and  N_5 
REMARK    2  A    between atoms: N_5  and  C_6 
REMARK    3  A    between atoms: N_5  and  C_21 
REMARK    4  A    between atoms: C_6  and  C_7 
REMARK    5  A    between atoms: C_8  and  O_9 
REMARK    6  A    between atoms: C_21  and  C_22 
REMARK    7  A    between atoms: C_22  and  C_23 
REMARK    8  A    between atoms: C_23  and  N_24 
ROOT
HETATM    1  N   UNL     1      41.250 -13.338   3.734  1.00  0.00    -0.309 N 
HETATM    2  C   UNL     1      40.476 -14.073   2.868  1.00  0.00     0.323 C 
HETATM    3  N   UNL     1      41.184 -14.942   2.023  1.00  0.00    -0.330 N 
HETATM    4  O   UNL     1      39.250 -14.016   2.798  1.00  0.00    -0.247 OA
HETATM    5  H   UNL     1      42.196 -13.149   3.438  1.00  0.00     0.170 HD
ENDROOT
BRANCH   3   6
HETATM    6  C   UNL     1      42.627 -15.187   2.159  1.00  0.00     0.170 C 
BRANCH   6   7
HETATM    7  C   UNL     1      43.025 -16.412   2.932  1.00  0.00     0.013 A 
HETATM    8  C   UNL     1      43.381 -16.406   4.275  1.00  0.00     0.170 A 
HETATM    9  N   UNL     1      43.757 -17.494   4.972  1.00  0.00    -0.224 NA
HETATM   10  C   UNL     1      43.899 -18.657   4.312  1.00  0.00     0.072 A 
HETATM   11  C   UNL     1      43.602 -18.773   2.928  1.00  0.00    -0.004 A 
HETATM   12  C   UNL     1      44.369 -19.779   4.986  1.00  0.00     0.072 A 
HETATM   13  C   UNL     1      43.147 -17.632   2.258  1.00  0.00     0.027 A 
HETATM   14  C   UNL     1      43.777 -19.990   2.245  1.00  0.00     0.053 A 
HETATM   15  C   UNL     1      44.260 -21.061   2.957  1.00  0.00     0.106 A 
HETATM   16  C   UNL     1      44.548 -20.959   4.292  1.00  0.00     0.107 A 
HETATM   17  O   UNL     1      44.515 -22.298   2.458  1.00  0.00    -0.323 OA
HETATM   18  O   UNL     1      45.023 -22.124   4.807  1.00  0.00    -0.323 OA
HETATM   19  C   UNL     1      45.035 -22.962   3.631  1.00  0.00     0.352 A 
BRANCH   8  20
HETATM   20  O   UNL     1      43.341 -15.266   5.028  1.00  0.00    -0.344 OA
HETATM   21  H   UNL     1      43.637 -15.508   5.921  1.00  0.00     0.219 HD
ENDBRANCH   8  20
ENDBRANCH   6   7
ENDBRANCH   3   6
BRANCH   3  22
HETATM   22  C   UNL     1      40.541 -15.255   0.734  1.00  0.00     0.129 C 
BRANCH  22  23
HETATM   23  C   UNL     1      41.330 -14.879  -0.530  1.00  0.00     0.048 C 
BRANCH  23  24
HETATM   24  C   UNL     1      40.532 -14.042  -1.523  1.00  0.00     0.236 C 
BRANCH  24  25
HETATM   25  N   UNL     1      39.480 -14.871  -2.234  1.00  0.00    -0.067 N 
HETATM   26  H   UNL     1      39.161 -15.603  -1.588  1.00  0.00     0.280 HD
HETATM   27  C   UNL     1      38.257 -14.065  -2.674  1.00  0.00     0.261 C 
HETATM   28  C   UNL     1      37.282 -14.988  -3.418  1.00  0.00     0.195 C 
HETATM   29  O   UNL     1      37.910 -15.612  -4.544  1.00  0.00    -0.388 OA
HETATM   30  C   UNL     1      39.025 -16.417  -4.151  1.00  0.00     0.195 C 
HETATM   31  C   UNL     1      40.091 -15.572  -3.451  1.00  0.00     0.261 C 
ENDBRANCH  24  25
ENDBRANCH  23  24
ENDBRANCH  22  23
ENDBRANCH   3  22
BRANCH   1  32
HETATM   32  C   UNL     1      40.801 -12.505   4.783  1.00  0.00     0.036 A 
HETATM   33  C   UNL     1      41.044 -11.129   4.843  1.00  0.00     0.032 A 
HETATM   34  C   UNL     1      40.564 -10.375   5.918  1.00  0.00     0.044 A 
HETATM   35  C   UNL     1      39.835 -10.994   6.925  1.00  0.00     0.116 A 
HETATM   36  C   UNL     1      39.571 -12.356   6.876  1.00  0.00     0.044 A 
HETATM   37  F   UNL     1      39.379 -10.269   7.954  1.00  0.00    -0.206 F 
HETATM   38  C   UNL     1      40.051 -13.111   5.802  1.00  0.00     0.032 A 
ENDBRANCH   1  32
TORSDOF 8
ENDMDL
MODEL 7
REMARK VINA RESULT:      -8.4      3.123      8.092
REMARK  8 active torsions:
REMARK  status: ('A' for Active; 'I' for Inactive)
REMARK    1  A    between atoms: C_2  and  N_3 
REMARK       I    between atoms: N_3  and  C_4 
REMARK       I    between atoms: C_4  and  N_5 
REMARK    2  A    between atoms: N_5  and  C_6 
REMARK    3  A    between atoms: N_5  and  C_21 
REMARK    4  A    between atoms: C_6  and  C_7 
REMARK    5  A    between atoms: C_8  and  O_9 
REMARK    6  A    between atoms: C_21  and  C_22 
REMARK    7  A    between atoms: C_22  and  C_23 
REMARK    8  A    between atoms: C_23  and  N_24 
ROOT
HETATM    1  N   UNL     1      42.991 -17.503   2.683  1.00  0.00    -0.309 N 
HETATM    2  C   UNL     1      41.733 -17.052   3.000  1.00  0.00     0.323 C 
HETATM    3  N   UNL     1      41.432 -15.755   2.557  1.00  0.00    -0.330 N 
HETATM    4  O   UNL     1      40.890 -17.697   3.621  1.00  0.00    -0.247 OA
HETATM    5  H   UNL     1      43.703 -16.797   2.563  1.00  0.00     0.170 HD
ENDROOT
BRANCH   3   6
HETATM    6  C   UNL     1      42.321 -14.989   1.670  1.00  0.00     0.170 C 
BRANCH   6   7
HETATM    7  C   UNL     1      41.711 -14.478   0.395  1.00  0.00     0.013 A 
HETATM    8  C   UNL     1      41.156 -15.293  -0.585  1.00  0.00     0.170 A 
HETATM    9  N   UNL     1      40.626 -14.848  -1.739  1.00  0.00    -0.224 NA
HETATM   10  C   UNL     1      40.722 -13.537  -2.022  1.00  0.00     0.072 A 
HETATM   11  C   UNL     1      41.306 -12.615  -1.112  1.00  0.00    -0.004 A 
HETATM   12  C   UNL     1      40.261 -13.060  -3.244  1.00  0.00     0.072 A 
HETATM   13  C   UNL     1      41.782 -13.112   0.106  1.00  0.00     0.027 A 
HETATM   14  C   UNL     1      41.422 -11.250  -1.431  1.00  0.00     0.053 A 
HETATM   15  C   UNL     1      40.964 -10.838  -2.659  1.00  0.00     0.106 A 
HETATM   16  C   UNL     1      40.398 -11.719  -3.543  1.00  0.00     0.107 A 
HETATM   17  O   UNL     1      41.018  -9.571  -3.144  1.00  0.00    -0.323 OA
HETATM   18  O   UNL     1      40.021 -11.116  -4.701  1.00  0.00    -0.323 OA
HETATM   19  C   UNL     1      40.450  -9.758  -4.458  1.00  0.00     0.352 A 
BRANCH   8  20
HETATM   20  O   UNL     1      41.069 -16.648  -0.434  1.00  0.00    -0.344 OA
HETATM   21  H   UNL     1      40.831 -16.813   0.493  1.00  0.00     0.219 HD
ENDBRANCH   8  20
ENDBRANCH   6   7
ENDBRANCH   3   6
BRANCH   3  22
HETATM   22  C   UNL     1      40.431 -15.018   3.347  1.00  0.00     0.129 C 
BRANCH  22  23
HETATM   23  C   UNL     1      40.944 -14.323   4.619  1.00  0.00     0.048 C 
BRANCH  23  24
HETATM   24  C   UNL     1      40.605 -15.069   5.904  1.00  0.00     0.236 C 
BRANCH  24  25
HETATM   25  N   UNL     1      41.855 -15.479   6.659  1.00  0.00    -0.067 N 
HETATM   26  H   UNL     1      41.822 -15.045   7.589  1.00  0.00     0.280 HD
HETATM   27  C   UNL     1      41.990 -16.990   6.848  1.00  0.00     0.261 C 
HETATM   28  C   UNL     1      43.305 -17.294   7.580  1.00  0.00     0.195 C 
HETATM   29  O   UNL     1      44.431 -16.769   6.869  1.00  0.00    -0.388 OA
HETATM   30  C   UNL     1      44.355 -15.347   6.728  1.00  0.00     0.195 C 
HETATM   31  C   UNL     1      43.101 -14.941   5.950  1.00  0.00     0.261 C 
ENDBRANCH  24  25
ENDBRANCH  23  24
ENDBRANCH  22  23
ENDBRANCH   3  22
BRANCH   1  32
HETATM   32  C   UNL     1      43.506 -18.806   2.872  1.00  0.00     0.036 A 
HETATM   33  C   UNL     1      44.193 -19.212   4.019  1.00  0.00     0.032 A 
HETATM   34  C   UNL     1      44.669 -20.522   4.127  1.00  0.00     0.044 A 
HETATM   35  C   UNL     1      44.451 -21.425   3.094  1.00  0.00     0.116 A 
HETATM   36  C   UNL     1      43.759 -21.043   1.953  1.00  0.00     0.044 A 
HETATM   37  F   UNL     1      44.911 -22.677   3.200  1.00  0.00    -0.206 F 
HETATM   38  C   UNL     1      43.282 -19.734   1.844  1.00  0.00     0.032 A 
ENDBRANCH   1  32
TORSDOF 8
ENDMDL
MODEL 8
REMARK VINA RESULT:      -8.4      3.791      8.127
REMARK  8 active torsions:
REMARK  status: ('A' for Active; 'I' for Inactive)
REMARK    1  A    between atoms: C_2  and  N_3 
REMARK       I    between atoms: N_3  and  C_4 
REMARK       I    between atoms: C_4  and  N_5 
REMARK    2  A    between atoms: N_5  and  C_6 
REMARK    3  A    between atoms: N_5  and  C_21 
REMARK    4  A    between atoms: C_6  and  C_7 
REMARK    5  A    between atoms: C_8  and  O_9 
REMARK    6  A    between atoms: C_21  and  C_22 
REMARK    7  A    between atoms: C_22  and  C_23 
REMARK    8  A    between atoms: C_23  and  N_24 
ROOT
HETATM    1  N   UNL     1      43.009 -17.555   3.243  1.00  0.00    -0.309 N 
HETATM    2  C   UNL     1      41.912 -17.139   3.959  1.00  0.00     0.323 C 
HETATM    3  N   UNL     1      41.532 -15.804   3.751  1.00  0.00    -0.330 N 
HETATM    4  O   UNL     1      41.270 -17.844   4.735  1.00  0.00    -0.247 OA
HETATM    5  H   UNL     1      43.673 -16.840   2.988  1.00  0.00     0.170 HD
ENDROOT
BRANCH   3   6
HETATM    6  C   UNL     1      42.143 -14.953   2.720  1.00  0.00     0.170 C 
BRANCH   6   7
HETATM    7  C   UNL     1      41.417 -14.870   1.407  1.00  0.00     0.013 A 
HETATM    8  C   UNL     1      41.755 -15.610   0.280  1.00  0.00     0.170 A 
HETATM    9  N   UNL     1      41.125 -15.530  -0.906  1.00  0.00    -0.224 NA
HETATM   10  C   UNL     1      40.163 -14.602  -1.055  1.00  0.00     0.072 A 
HETATM   11  C   UNL     1      39.761 -13.760   0.016  1.00  0.00    -0.004 A 
HETATM   12  C   UNL     1      39.553 -14.436  -2.294  1.00  0.00     0.072 A 
HETATM   13  C   UNL     1      40.396 -13.926   1.252  1.00  0.00     0.027 A 
HETATM   14  C   UNL     1      38.771 -12.778  -0.160  1.00  0.00     0.053 A 
HETATM   15  C   UNL     1      38.213 -12.647  -1.409  1.00  0.00     0.106 A 
HETATM   16  C   UNL     1      38.593 -13.455  -2.449  1.00  0.00     0.107 A 
HETATM   17  O   UNL     1      37.269 -11.740  -1.768  1.00  0.00    -0.323 OA
HETATM   18  O   UNL     1      37.933 -13.159  -3.600  1.00  0.00    -0.323 OA
HETATM   19  C   UNL     1      37.119 -12.045  -3.172  1.00  0.00     0.352 A 
BRANCH   8  20
HETATM   20  O   UNL     1      42.762 -16.534   0.298  1.00  0.00    -0.344 OA
HETATM   21  H   UNL     1      43.353 -16.292   1.030  1.00  0.00     0.219 HD
ENDBRANCH   8  20
ENDBRANCH   6   7
ENDBRANCH   3   6
BRANCH   3  22
HETATM   22  C   UNL     1      40.828 -15.152   4.868  1.00  0.00     0.129 C 
BRANCH  22  23
HETATM   23  C   UNL     1      41.616 -14.078   5.635  1.00  0.00     0.048 C 
BRANCH  23  24
HETATM   24  C   UNL     1      40.936 -12.713   5.652  1.00  0.00     0.236 C 
BRANCH  24  25
HETATM   25  N   UNL     1      40.873 -12.137   7.054  1.00  0.00    -0.067 N 
HETATM   26  H   UNL     1      41.214 -12.852   7.707  1.00  0.00     0.280 HD
HETATM   27  C   UNL     1      41.727 -10.882   7.240  1.00  0.00     0.261 C 
HETATM   28  C   UNL     1      41.556 -10.360   8.673  1.00  0.00     0.195 C 
HETATM   29  O   UNL     1      40.181 -10.087   8.968  1.00  0.00    -0.388 OA
HETATM   30  C   UNL     1      39.370 -11.260   8.854  1.00  0.00     0.195 C 
HETATM   31  C   UNL     1      39.423 -11.826   7.434  1.00  0.00     0.261 C 
ENDBRANCH  24  25
ENDBRANCH  23  24
ENDBRANCH  22  23
ENDBRANCH   3  22
BRANCH   1  32
HETATM   32  C   UNL     1      43.518 -18.870   3.147  1.00  0.00     0.036 A 
HETATM   33  C   UNL     1      44.348 -19.456   4.107  1.00  0.00     0.032 A 
HETATM   34  C   UNL     1      44.809 -20.765   3.935  1.00  0.00     0.044 A 
HETATM   35  C   UNL     1      44.433 -21.488   2.810  1.00  0.00     0.116 A 
HETATM   36  C   UNL     1      43.599 -20.927   1.853  1.00  0.00     0.044 A 
HETATM   37  F   UNL     1      44.879 -22.739   2.648  1.00  0.00    -0.206 F 
HETATM   38  C   UNL     1      43.137 -19.619   2.023  1.00  0.00     0.032 A 
ENDBRANCH   1  32
TORSDOF 8
ENDMDL
MODEL 9
REMARK VINA RESULT:      -8.3      4.155      7.274
REMARK  8 active torsions:
REMARK  status: ('A' for Active; 'I' for Inactive)
REMARK    1  A    between atoms: C_2  and  N_3 
REMARK       I    between atoms: N_3  and  C_4 
REMARK       I    between atoms: C_4  and  N_5 
REMARK    2  A    between atoms: N_5  and  C_6 
REMARK    3  A    between atoms: N_5  and  C_21 
REMARK    4  A    between atoms: C_6  and  C_7 
REMARK    5  A    between atoms: C_8  and  O_9 
REMARK    6  A    between atoms: C_21  and  C_22 
REMARK    7  A    between atoms: C_22  and  C_23 
REMARK    8  A    between atoms: C_23  and  N_24 
ROOT
HETATM    1  N   UNL     1      42.097 -11.722   6.990  1.00  0.00    -0.309 N 
HETATM    2  C   UNL     1      40.964 -12.317   6.492  1.00  0.00     0.323 C 
HETATM    3  N   UNL     1      41.163 -13.146   5.378  1.00  0.00    -0.330 N 
HETATM    4  O   UNL     1      39.833 -12.171   6.951  1.00  0.00    -0.247 OA
HETATM    5  H   UNL     1      42.849 -11.570   6.333  1.00  0.00     0.170 HD
ENDROOT
BRANCH   3   6
HETATM    6  C   UNL     1      42.499 -13.501   4.875  1.00  0.00     0.170 C 
BRANCH   6   7
HETATM    7  C   UNL     1      42.992 -14.880   5.210  1.00  0.00     0.013 A 
HETATM    8  C   UNL     1      43.624 -15.214   6.402  1.00  0.00     0.170 A 
HETATM    9  N   UNL     1      44.087 -16.441   6.704  1.00  0.00    -0.224 NA
HETATM   10  C   UNL     1      44.031 -17.395   5.758  1.00  0.00     0.072 A 
HETATM   11  C   UNL     1      43.444 -17.155   4.487  1.00  0.00    -0.004 A 
HETATM   12  C   UNL     1      44.581 -18.648   6.010  1.00  0.00     0.072 A 
HETATM   13  C   UNL     1      42.912 -15.885   4.241  1.00  0.00     0.027 A 
HETATM   14  C   UNL     1      43.414 -18.155   3.498  1.00  0.00     0.053 A 
HETATM   15  C   UNL     1      43.985 -19.368   3.796  1.00  0.00     0.106 A 
HETATM   16  C   UNL     1      44.553 -19.609   5.019  1.00  0.00     0.107 A 
HETATM   17  O   UNL     1      44.071 -20.434   2.959  1.00  0.00    -0.323 OA
HETATM   18  O   UNL     1      45.071 -20.863   5.109  1.00  0.00    -0.323 OA
HETATM   19  C   UNL     1      44.795 -21.371   3.785  1.00  0.00     0.352 A 
BRANCH   8  20
HETATM   20  O   UNL     1      43.797 -14.306   7.408  1.00  0.00    -0.344 OA
HETATM   21  H   UNL     1      43.135 -14.510   8.089  1.00  0.00     0.219 HD
ENDBRANCH   8  20
ENDBRANCH   6   7
ENDBRANCH   3   6
BRANCH   3  22
HETATM   22  C   UNL     1      40.014 -13.292   4.467  1.00  0.00     0.129 C 
BRANCH  22  23
HETATM   23  C   UNL     1      40.341 -13.397   2.968  1.00  0.00     0.048 C 
BRANCH  23  24
HETATM   24  C   UNL     1      39.231 -14.037   2.142  1.00  0.00     0.236 C 
BRANCH  24  25
HETATM   25  N   UNL     1      39.765 -15.137   1.245  1.00  0.00    -0.067 N 
HETATM   26  H   UNL     1      38.996 -15.463   0.648  1.00  0.00     0.280 HD
HETATM   27  C   UNL     1      40.910 -14.686   0.336  1.00  0.00     0.261 C 
HETATM   28  C   UNL     1      41.401 -15.881  -0.492  1.00  0.00     0.195 C 
HETATM   29  O   UNL     1      41.818 -16.962   0.350  1.00  0.00    -0.388 OA
HETATM   30  C   UNL     1      40.749 -17.439   1.171  1.00  0.00     0.195 C 
HETATM   31  C   UNL     1      40.226 -16.330   2.087  1.00  0.00     0.261 C 
ENDBRANCH  24  25
ENDBRANCH  23  24
ENDBRANCH  22  23
ENDBRANCH   3  22
BRANCH   1  32
HETATM   32  C   UNL     1      42.214 -10.964   8.177  1.00  0.00     0.036 A 
HETATM   33  C   UNL     1      41.280 -10.008   8.585  1.00  0.00     0.032 A 
HETATM   34  C   UNL     1      41.470  -9.300   9.776  1.00  0.00     0.044 A 
HETATM   35  C   UNL     1      42.587  -9.557  10.561  1.00  0.00     0.116 A 
HETATM   36  C   UNL     1      43.518 -10.512  10.179  1.00  0.00     0.044 A 
HETATM   37  F   UNL     1      42.767  -8.875  11.699  1.00  0.00    -0.206 F 
HETATM   38  C   UNL     1      43.330 -11.219   8.989  1.00  0.00     0.032 A 
ENDBRANCH   1  32
TORSDOF 8
ENDMDL
MODEL 10
REMARK VINA RESULT:      -8.3      1.921      2.611
REMARK  8 active torsions:
REMARK  status: ('A' for Active; 'I' for Inactive)
REMARK    1  A    between atoms: C_2  and  N_3 
REMARK       I    between atoms: N_3  and  C_4 
REMARK       I    between atoms: C_4  and  N_5 
REMARK    2  A    between atoms: N_5  and  C_6 
REMARK    3  A    between atoms: N_5  and  C_21 
REMARK    4  A    between atoms: C_6  and  C_7 
REMARK    5  A    between atoms: C_8  and  O_9 
REMARK    6  A    between atoms: C_21  and  C_22 
REMARK    7  A    between atoms: C_22  and  C_23 
REMARK    8  A    between atoms: C_23  and  N_24 
ROOT
HETATM    1  N   UNL     1      40.100 -13.300  -0.432  1.00  0.00    -0.309 N 
HETATM    2  C   UNL     1      40.028 -12.677   0.791  1.00  0.00     0.323 C 
HETATM    3  N   UNL     1      39.507 -13.460   1.832  1.00  0.00    -0.330 N 
HETATM    4  O   UNL     1      40.383 -11.521   1.014  1.00  0.00    -0.247 OA
HETATM    5  H   UNL     1      39.435 -14.040  -0.597  1.00  0.00     0.170 HD
ENDROOT
BRANCH   3   6
HETATM    6  C   UNL     1      39.217 -14.894   1.684  1.00  0.00     0.170 C 
BRANCH   6   7
HETATM    7  C   UNL     1      40.377 -15.831   1.870  1.00  0.00     0.013 A 
HETATM    8  C   UNL     1      41.078 -16.421   0.826  1.00  0.00     0.170 A 
HETATM    9  N   UNL     1      42.105 -17.277   0.981  1.00  0.00    -0.224 NA
HETATM   10  C   UNL     1      42.421 -17.674   2.226  1.00  0.00     0.072 A 
HETATM   11  C   UNL     1      41.745 -17.168   3.368  1.00  0.00    -0.004 A 
HETATM   12  C   UNL     1      43.421 -18.623   2.413  1.00  0.00     0.072 A 
HETATM   13  C   UNL     1      40.730 -16.227   3.164  1.00  0.00     0.027 A 
HETATM   14  C   UNL     1      42.071 -17.610   4.663  1.00  0.00     0.053 A 
HETATM   15  C   UNL     1      43.055 -18.560   4.788  1.00  0.00     0.106 A 
HETATM   16  C   UNL     1      43.713 -19.054   3.692  1.00  0.00     0.107 A 
HETATM   17  O   UNL     1      43.478 -19.119   5.951  1.00  0.00    -0.323 OA
HETATM   18  O   UNL     1      44.640 -19.990   4.028  1.00  0.00    -0.323 OA
HETATM   19  C   UNL     1      44.462 -20.055   5.459  1.00  0.00     0.352 A 
BRANCH   8  20
HETATM   20  O   UNL     1      40.796 -16.144  -0.482  1.00  0.00    -0.344 OA
HETATM   21  H   UNL     1      40.269 -15.328  -0.490  1.00  0.00     0.219 HD
ENDBRANCH   8  20
ENDBRANCH   6   7
ENDBRANCH   3   6
BRANCH   3  22
HETATM   22  C   UNL     1      38.848 -12.724   2.926  1.00  0.00     0.129 C 
BRANCH  22  23
HETATM   23  C   UNL     1      39.263 -13.114   4.354  1.00  0.00     0.048 C 
BRANCH  23  24
HETATM   24  C   UNL     1      40.528 -12.414   4.837  1.00  0.00     0.236 C 
BRANCH  24  25
HETATM   25  N   UNL     1      41.744 -13.314   4.716  1.00  0.00    -0.067 N 
HETATM   26  H   UNL     1      41.418 -14.286   4.674  1.00  0.00     0.280 HD
HETATM   27  C   UNL     1      42.586 -13.044   3.469  1.00  0.00     0.261 C 
HETATM   28  C   UNL     1      43.807 -13.974   3.470  1.00  0.00     0.195 C 
HETATM   29  O   UNL     1      44.591 -13.804   4.657  1.00  0.00    -0.388 OA
HETATM   30  C   UNL     1      43.840 -14.104   5.837  1.00  0.00     0.195 C 
HETATM   31  C   UNL     1      42.625 -13.182   5.962  1.00  0.00     0.261 C 
ENDBRANCH  24  25
ENDBRANCH  23  24
ENDBRANCH  22  23
ENDBRANCH   3  22
BRANCH   1  32
HETATM   32  C   UNL     1      40.710 -12.807  -1.608  1.00  0.00     0.036 A 
HETATM   33  C   UNL     1      40.048 -12.027  -2.559  1.00  0.00     0.032 A 
HETATM   34  C   UNL     1      40.725 -11.578  -3.697  1.00  0.00     0.044 A 
HETATM   35  C   UNL     1      42.064 -11.902  -3.877  1.00  0.00     0.116 A 
HETATM   36  C   UNL     1      42.742 -12.664  -2.936  1.00  0.00     0.044 A 
HETATM   37  F   UNL     1      42.709 -11.472  -4.969  1.00  0.00    -0.206 F 
HETATM   38  C   UNL     1      42.066 -13.113  -1.798  1.00  0.00     0.032 A 
ENDBRANCH   1  32
TORSDOF 8
ENDMDL
