MODEL 1
REMARK VINA RESULT:      -8.3      0.000      0.000
REMARK  8 active torsions:
REMARK  status: ('A' for Active; 'I' for Inactive)
REMARK    1  A    between atoms: C_1  and  C_15 
REMARK    2  A    between atoms: C_2  and  C_11 
REMARK    3  A    between atoms: C_2  and  N_12 
REMARK    4  A    between atoms: C_5  and  C_6 
REMARK    5  A    between atoms: C_6  and  O_7 
REMARK       I    between atoms: N_10  and  C_11 
REMARK    6  A    between atoms: C_16  and  O_17 
REMARK    7  A    between atoms: C_20  and  O_22 
REMARK    8  A    between atoms: C_25  and  O_26 
ROOT
HETATM    1  C           1      41.623 -14.633   4.329  0.00  0.00     0.231 C 
HETATM    2  N           1      42.312 -14.358   3.003  0.00  0.00    -0.054 N 
HETATM    3  C           1      40.312 -13.817   4.443  0.00  0.00     0.055 C 
HETATM    4  C           1      40.326 -12.360   3.959  0.00  0.00     0.065 C 
HETATM    5  C           1      41.111 -12.243   2.646  0.00  0.00     0.066 C 
HETATM    6  C           1      42.494 -12.897   2.651  0.00  0.00     0.239 C 
HETATM    7  C           1      39.595 -14.008   5.801  0.00  0.00     0.010 C 
HETATM    8  C           1      39.302 -12.707   6.565  0.00  0.00     0.001 C 
HETATM    9  C           1      40.491 -11.750   6.463  0.00  0.00     0.003 C 
HETATM   10  C           1      40.773 -11.337   5.009  0.00  0.00     0.038 C 
HETATM   11  H           1      41.659 -14.738   2.277  0.00  0.00     0.281 HD
ENDROOT
BRANCH   2  12
HETATM   12  C           1      43.601 -15.141   2.854  0.00  0.00     0.338 C 
BRANCH  12  13
HETATM   13  C           1      43.324 -16.564   2.395  0.00  0.00     0.248 C 
HETATM   14  N           1      43.928 -17.512   3.166  0.00  0.00    -0.319 N 
HETATM   15  C           1      43.971 -18.858   3.109  0.00  0.00     0.094 A 
HETATM   16  H           1      44.413 -17.174   3.981  0.00  0.00     0.169 HD
HETATM   17  C           1      44.325 -19.675   4.123  0.00  0.00     0.080 A 
HETATM   18  S           1      43.866 -19.584   1.845  0.00  0.00    -0.076 SA
HETATM   19  C           1      44.383 -20.939   3.664  0.00  0.00    -0.030 A 
HETATM   20  C           1      44.706 -22.184   4.448  0.00  0.00     0.050 C 
HETATM   21  C           1      44.107 -20.939   2.349  0.00  0.00    -0.012 A 
HETATM   22  C           1      44.070 -22.155   1.459  0.00  0.00     0.057 C 
HETATM   23  O           1      42.614 -16.790   1.448  0.00  0.00    -0.271 OA
BRANCH  17  24
HETATM   24  C           1      44.571 -19.300   5.417  0.00  0.00     0.296 C 
HETATM   25  O           1      45.358 -18.396   5.620  0.00  0.00    -0.259 OA
BRANCH  24  26
HETATM   26  O           1      43.957 -19.907   6.479  0.00  0.00    -0.322 OA
HETATM   27  C           1      43.927 -19.242   7.719  0.00  0.00     0.213 C 
ENDBRANCH  24  26
ENDBRANCH  17  24
ENDBRANCH  12  13
ENDBRANCH   2  12
BRANCH   1  28
HETATM   28  C           1      42.581 -14.701   5.528  0.00  0.00     0.009 A 
HETATM   29  C           1      42.783 -15.873   6.181  0.00  0.00     0.076 A 
HETATM   30  C           1      43.598 -15.845   7.253  0.00  0.00     0.040 A 
HETATM   31  C           1      44.236 -14.735   7.643  0.00  0.00     0.039 A 
HETATM   32  C           1      44.092 -13.571   6.989  0.00  0.00     0.069 A 
HETATM   33  C           1      43.235 -13.604   5.951  0.00  0.00     0.048 A 
BRANCH  29  34
HETATM   34  O           1      42.109 -17.003   5.785  0.00  0.00    -0.355 OA
HETATM   35  C           1      40.890 -17.336   6.407  0.00  0.00     0.210 C 
ENDBRANCH  29  34
BRANCH  32  36
HETATM   36  O           1      44.759 -12.461   7.449  0.00  0.00    -0.356 OA
HETATM   37  C           1      45.595 -12.588   8.576  0.00  0.00     0.210 C 
ENDBRANCH  32  36
ENDBRANCH   1  28
BRANCH   4  38
HETATM   38  O           1      38.999 -12.029   3.600  0.00  0.00    -0.389 OA
HETATM   39  H           1      38.723 -11.194   3.973  0.00  0.00     0.210 HD
ENDBRANCH   4  38
TORSDOF 8
ENDMDL
MODEL 2
REMARK VINA RESULT:      -8.0      3.757      6.604
REMARK  8 active torsions:
REMARK  status: ('A' for Active; 'I' for Inactive)
REMARK    1  A    between atoms: C_1  and  C_15 
REMARK    2  A    between atoms: C_2  and  C_11 
REMARK    3  A    between atoms: C_2  and  N_12 
REMARK    4  A    between atoms: C_5  and  C_6 
REMARK    5  A    between atoms: C_6  and  O_7 
REMARK       I    between atoms: N_10  and  C_11 
REMARK    6  A    between atoms: C_16  and  O_17 
REMARK    7  A    between atoms: C_20  and  O_22 
REMARK    8  A    between atoms: C_25  and  O_26 
ROOT
HETATM    1  C           1      40.963 -13.187   0.510  0.00  0.00     0.231 C 
HETATM    2  N           1      41.075 -14.423   1.386  0.00  0.00    -0.054 N 
HETATM    3  C           1      39.622 -12.455   0.768  0.00  0.00     0.055 C 
HETATM    4  C           1      38.356 -13.308   0.929  0.00  0.00     0.065 C 
HETATM    5  C           1      38.652 -14.545   1.785  0.00  0.00     0.066 C 
HETATM    6  C           1      39.880 -15.353   1.362  0.00  0.00     0.239 C 
HETATM    7  C           1      39.421 -11.220  -0.142  0.00  0.00     0.010 C 
HETATM    8  C           1      38.119 -11.222  -0.957  0.00  0.00     0.001 C 
HETATM    9  C           1      37.838 -12.622  -1.506  0.00  0.00     0.003 C 
HETATM   10  C           1      37.640 -13.652  -0.382  0.00  0.00     0.038 C 
HETATM   11  H           1      41.119 -14.056   2.366  0.00  0.00     0.281 HD
ENDROOT
BRANCH   2  12
HETATM   12  C           1      42.376 -15.167   1.163  0.00  0.00     0.338 C 
BRANCH  12  13
HETATM   13  C           1      43.048 -15.500   2.486  0.00  0.00     0.248 C 
HETATM   14  N           1      43.066 -16.835   2.766  0.00  0.00    -0.319 N 
HETATM   15  C           1      43.526 -17.551   3.811  0.00  0.00     0.094 A 
HETATM   16  H           1      42.713 -17.441   2.045  0.00  0.00     0.169 HD
HETATM   17  C           1      43.779 -18.877   3.802  0.00  0.00     0.080 A 
HETATM   18  S           1      43.577 -17.003   5.164  0.00  0.00    -0.076 SA
HETATM   19  C           1      44.093 -19.268   5.051  0.00  0.00    -0.030 A 
HETATM   20  C           1      44.478 -20.652   5.507  0.00  0.00     0.050 C 
HETATM   21  C           1      44.006 -18.211   5.875  0.00  0.00    -0.012 A 
HETATM   22  C           1      44.277 -18.229   7.358  0.00  0.00     0.057 C 
HETATM   23  O           1      43.527 -14.640   3.179  0.00  0.00    -0.271 OA
BRANCH  17  24
HETATM   24  C           1      43.744 -19.701   2.708  0.00  0.00     0.296 C 
HETATM   25  O           1      42.794 -19.625   1.954  0.00  0.00    -0.259 OA
BRANCH  24  26
HETATM   26  O           1      44.745 -20.596   2.441  0.00  0.00    -0.322 OA
HETATM   27  C           1      44.403 -21.872   1.955  0.00  0.00     0.213 C 
ENDBRANCH  24  26
ENDBRANCH  17  24
ENDBRANCH  12  13
ENDBRANCH   2  12
BRANCH   1  28
HETATM   28  C           1      41.446 -13.398  -0.933  0.00  0.00     0.009 A 
HETATM   29  C           1      42.464 -12.653  -1.432  0.00  0.00     0.076 A 
HETATM   30  C           1      42.800 -12.858  -2.720  0.00  0.00     0.040 A 
HETATM   31  C           1      42.210 -13.791  -3.477  0.00  0.00     0.039 A 
HETATM   32  C           1      41.231 -14.576  -2.997  0.00  0.00     0.069 A 
HETATM   33  C           1      40.873 -14.323  -1.724  0.00  0.00     0.048 A 
BRANCH  29  34
HETATM   34  O           1      43.050 -11.684  -0.653  0.00  0.00    -0.355 OA
HETATM   35  C           1      43.218 -10.386  -1.171  0.00  0.00     0.210 C 
ENDBRANCH  29  34
BRANCH  32  36
HETATM   36  O           1      40.651 -15.503  -3.829  0.00  0.00    -0.356 OA
HETATM   37  C           1      39.246 -15.565  -3.904  0.00  0.00     0.210 C 
ENDBRANCH  32  36
ENDBRANCH   1  28
BRANCH   4  38
HETATM   38  O           1      37.447 -12.556   1.710  0.00  0.00    -0.389 OA
HETATM   39  H           1      36.537 -12.783   1.521  0.00  0.00     0.210 HD
ENDBRANCH   4  38
TORSDOF 8
ENDMDL
MODEL 3
REMARK VINA RESULT:      -7.9      3.460      8.235
REMARK  8 active torsions:
REMARK  status: ('A' for Active; 'I' for Inactive)
REMARK    1  A    between atoms: C_1  and  C_15 
REMARK    2  A    between atoms: C_2  and  C_11 
REMARK    3  A    between atoms: C_2  and  N_12 
REMARK    4  A    between atoms: C_5  and  C_6 
REMARK    5  A    between atoms: C_6  and  O_7 
REMARK       I    between atoms: N_10  and  C_11 
REMARK    6  A    between atoms: C_16  and  O_17 
REMARK    7  A    between atoms: C_20  and  O_22 
REMARK    8  A    between atoms: C_25  and  O_26 
ROOT
HETATM    1  C           1      41.489 -14.495   5.827  0.00  0.00     0.231 C 
HETATM    2  N           1      42.556 -13.533   6.320  0.00  0.00    -0.054 N 
HETATM    3  C           1      41.715 -15.910   6.417  0.00  0.00     0.055 C 
HETATM    4  C           1      43.154 -16.442   6.478  0.00  0.00     0.065 C 
HETATM    5  C           1      44.113 -15.334   6.931  0.00  0.00     0.066 C 
HETATM    6  C           1      43.985 -14.010   6.176  0.00  0.00     0.239 C 
HETATM    7  C           1      40.695 -16.952   5.901  0.00  0.00     0.010 C 
HETATM    8  C           1      41.316 -18.203   5.262  0.00  0.00     0.001 C 
HETATM    9  C           1      42.512 -17.817   4.389  0.00  0.00     0.003 C 
HETATM   10  C           1      43.632 -17.156   5.208  0.00  0.00     0.038 C 
HETATM   11  H           1      42.394 -13.456   7.352  0.00  0.00     0.281 HD
ENDROOT
BRANCH   2  12
HETATM   12  C           1      42.367 -12.135   5.765  0.00  0.00     0.338 C 
BRANCH  12  13
HETATM   13  C           1      41.948 -11.166   6.859  0.00  0.00     0.248 C 
HETATM   14  N           1      42.622 -11.343   8.031  0.00  0.00    -0.319 N 
HETATM   15  C           1      42.555 -10.740   9.233  0.00  0.00     0.094 A 
HETATM   16  H           1      43.359 -12.028   8.015  0.00  0.00     0.169 HD
HETATM   17  C           1      43.506 -10.791  10.191  0.00  0.00     0.080 A 
HETATM   18  S           1      41.318 -10.147   9.736  0.00  0.00    -0.076 SA
HETATM   19  C           1      43.040 -10.188  11.300  0.00  0.00    -0.030 A 
HETATM   20  C           1      43.766  -9.982  12.604  0.00  0.00     0.050 C 
HETATM   21  C           1      41.779  -9.782  11.079  0.00  0.00    -0.012 A 
HETATM   22  C           1      40.900  -9.065  12.073  0.00  0.00     0.057 C 
HETATM   23  O           1      41.114 -10.320   6.661  0.00  0.00    -0.271 OA
BRANCH  17  24
HETATM   24  C           1      44.753 -11.345  10.066  0.00  0.00     0.296 C 
HETATM   25  O           1      45.004 -12.356  10.692  0.00  0.00    -0.259 OA
BRANCH  24  26
HETATM   26  O           1      45.713 -10.799   9.257  0.00  0.00    -0.322 OA
HETATM   27  C           1      46.471 -11.650   8.432  0.00  0.00     0.213 C 
ENDBRANCH  24  26
ENDBRANCH  17  24
ENDBRANCH  12  13
ENDBRANCH   2  12
BRANCH   1  28
HETATM   28  C           1      41.147 -14.341   4.338  0.00  0.00     0.009 A 
HETATM   29  C           1      40.044 -13.651   3.954  0.00  0.00     0.076 A 
HETATM   30  C           1      39.781 -13.599   2.634  0.00  0.00     0.040 A 
HETATM   31  C           1      40.590 -14.147   1.718  0.00  0.00     0.039 A 
HETATM   32  C           1      41.713 -14.796   2.065  0.00  0.00     0.069 A 
HETATM   33  C           1      41.934 -14.882   3.390  0.00  0.00     0.048 A 
BRANCH  29  34
HETATM   34  O           1      39.210 -13.109   4.903  0.00  0.00    -0.355 OA
HETATM   35  C           1      38.755 -11.785   4.749  0.00  0.00     0.210 C 
ENDBRANCH  29  34
BRANCH  32  36
HETATM   36  O           1      42.493 -15.353   1.079  0.00  0.00    -0.356 OA
HETATM   37  C           1      42.376 -16.733   0.818  0.00  0.00     0.210 C 
ENDBRANCH  32  36
ENDBRANCH   1  28
BRANCH   4  38
HETATM   38  O           1      43.201 -17.391   7.526  0.00  0.00    -0.389 OA
HETATM   39  H           1      42.358 -17.479   7.969  0.00  0.00     0.210 HD
ENDBRANCH   4  38
TORSDOF 8
ENDMDL
MODEL 4
REMARK VINA RESULT:      -7.9      3.791      6.320
REMARK  8 active torsions:
REMARK  status: ('A' for Active; 'I' for Inactive)
REMARK    1  A    between atoms: C_1  and  C_15 
REMARK    2  A    between atoms: C_2  and  C_11 
REMARK    3  A    between atoms: C_2  and  N_12 
REMARK    4  A    between atoms: C_5  and  C_6 
REMARK    5  A    between atoms: C_6  and  O_7 
REMARK       I    between atoms: N_10  and  C_11 
REMARK    6  A    between atoms: C_16  and  O_17 
REMARK    7  A    between atoms: C_20  and  O_22 
REMARK    8  A    between atoms: C_25  and  O_26 
ROOT
HETATM    1  C           1      39.466 -13.975  -0.592  0.00  0.00     0.231 C 
HETATM    2  N           1      40.141 -15.260  -0.144  0.00  0.00    -0.054 N 
HETATM    3  C           1      39.190 -14.006  -2.115  0.00  0.00     0.055 C 
HETATM    4  C           1      40.282 -14.571  -3.034  0.00  0.00     0.065 C 
HETATM    5  C           1      40.904 -15.827  -2.410  0.00  0.00     0.066 C 
HETATM    6  C           1      41.348 -15.683  -0.954  0.00  0.00     0.239 C 
HETATM    7  C           1      38.559 -12.696  -2.644  0.00  0.00     0.010 C 
HETATM    8  C           1      39.320 -12.033  -3.802  0.00  0.00     0.001 C 
HETATM    9  C           1      40.829 -12.103  -3.556  0.00  0.00     0.003 C 
HETATM   10  C           1      41.334 -13.552  -3.488  0.00  0.00     0.038 C 
HETATM   11  H           1      39.426 -16.009  -0.303  0.00  0.00     0.281 HD
ENDROOT
BRANCH   2  12
HETATM   12  C           1      40.427 -15.268   1.345  0.00  0.00     0.338 C 
BRANCH  12  13
HETATM   13  C           1      41.033 -16.594   1.776  0.00  0.00     0.248 C 
HETATM   14  N           1      41.915 -16.479   2.810  0.00  0.00    -0.319 N 
HETATM   15  C           1      42.679 -17.368   3.473  0.00  0.00     0.094 A 
HETATM   16  H           1      42.003 -15.561   3.213  0.00  0.00     0.169 HD
HETATM   17  C           1      43.244 -17.169   4.683  0.00  0.00     0.080 A 
HETATM   18  S           1      43.186 -18.582   2.837  0.00  0.00    -0.076 SA
HETATM   19  C           1      44.042 -18.214   4.969  0.00  0.00    -0.030 A 
HETATM   20  C           1      44.848 -18.435   6.223  0.00  0.00     0.050 C 
HETATM   21  C           1      44.028 -19.070   3.934  0.00  0.00    -0.012 A 
HETATM   22  C           1      44.793 -20.367   3.856  0.00  0.00     0.057 C 
HETATM   23  O           1      40.719 -17.629   1.245  0.00  0.00    -0.271 OA
BRANCH  17  24
HETATM   24  C           1      43.037 -16.094   5.507  0.00  0.00     0.296 C 
HETATM   25  O           1      41.983 -16.016   6.107  0.00  0.00    -0.259 OA
BRANCH  24  26
HETATM   26  O           1      43.979 -15.115   5.674  0.00  0.00    -0.322 OA
HETATM   27  C           1      44.361 -14.756   6.981  0.00  0.00     0.213 C 
ENDBRANCH  24  26
ENDBRANCH  17  24
ENDBRANCH  12  13
ENDBRANCH   2  12
BRANCH   1  28
HETATM   28  C           1      40.052 -12.706   0.047  0.00  0.00     0.009 A 
HETATM   29  C           1      39.307 -11.961   0.902  0.00  0.00     0.076 A 
HETATM   30  C           1      39.869 -10.836   1.384  0.00  0.00     0.040 A 
HETATM   31  C           1      41.126 -10.478   1.092  0.00  0.00     0.039 A 
HETATM   32  C           1      41.903 -11.219   0.286  0.00  0.00     0.069 A 
HETATM   33  C           1      41.309 -12.313  -0.227  0.00  0.00     0.048 A 
BRANCH  29  34
HETATM   34  O           1      38.012 -12.327   1.180  0.00  0.00    -0.355 OA
HETATM   35  C           1      36.968 -11.412   0.945  0.00  0.00     0.210 C 
ENDBRANCH  29  34
BRANCH  32  36
HETATM   36  O           1      43.178 -10.789   0.009  0.00  0.00    -0.356 OA
HETATM   37  C           1      43.424 -10.131  -1.212  0.00  0.00     0.210 C 
ENDBRANCH  32  36
ENDBRANCH   1  28
BRANCH   4  38
HETATM   38  O           1      39.638 -15.046  -4.200  0.00  0.00    -0.389 OA
HETATM   39  H           1      39.394 -15.968  -4.127  0.00  0.00     0.210 HD
ENDBRANCH   4  38
TORSDOF 8
ENDMDL
MODEL 5
REMARK VINA RESULT:      -7.5      2.597      5.077
REMARK  8 active torsions:
REMARK  status: ('A' for Active; 'I' for Inactive)
REMARK    1  A    between atoms: C_1  and  C_15 
REMARK    2  A    between atoms: C_2  and  C_11 
REMARK    3  A    between atoms: C_2  and  N_12 
REMARK    4  A    between atoms: C_5  and  C_6 
REMARK    5  A    between atoms: C_6  and  O_7 
REMARK       I    between atoms: N_10  and  C_11 
REMARK    6  A    between atoms: C_16  and  O_17 
REMARK    7  A    between atoms: C_20  and  O_22 
REMARK    8  A    between atoms: C_25  and  O_26 
ROOT
HETATM    1  C           1      40.467 -13.831   2.389  0.00  0.00     0.231 C 
HETATM    2  N           1      41.934 -13.640   2.044  0.00  0.00    -0.054 N 
HETATM    3  C           1      39.704 -14.464   1.200  0.00  0.00     0.055 C 
HETATM    4  C           1      40.023 -13.955  -0.213  0.00  0.00     0.065 C 
HETATM    5  C           1      41.535 -13.756  -0.379  0.00  0.00     0.066 C 
HETATM    6  C           1      42.212 -12.946   0.728  0.00  0.00     0.239 C 
HETATM    7  C           1      38.189 -14.626   1.468  0.00  0.00     0.010 C 
HETATM    8  C           1      37.273 -13.975   0.420  0.00  0.00     0.001 C 
HETATM    9  C           1      37.828 -12.612   0.002  0.00  0.00     0.003 C 
HETATM   10  C           1      39.212 -12.731  -0.655  0.00  0.00     0.038 C 
HETATM   11  H           1      42.312 -14.611   1.929  0.00  0.00     0.281 HD
ENDROOT
BRANCH   2  12
HETATM   12  C           1      42.716 -13.023   3.186  0.00  0.00     0.338 C 
BRANCH  12  13
HETATM   13  C           1      43.315 -14.097   4.080  0.00  0.00     0.248 C 
HETATM   14  N           1      43.207 -15.356   3.567  0.00  0.00    -0.319 N 
HETATM   15  C           1      43.570 -16.571   4.021  0.00  0.00     0.094 A 
HETATM   16  H           1      42.823 -15.421   2.639  0.00  0.00     0.169 HD
HETATM   17  C           1      43.705 -17.682   3.267  0.00  0.00     0.080 A 
HETATM   18  S           1      43.628 -16.880   5.448  0.00  0.00    -0.076 SA
HETATM   19  C           1      43.945 -18.731   4.075  0.00  0.00    -0.030 A 
HETATM   20  C           1      44.192 -20.162   3.671  0.00  0.00     0.050 C 
HETATM   21  C           1      43.927 -18.312   5.351  0.00  0.00    -0.012 A 
HETATM   22  C           1      44.150 -19.179   6.565  0.00  0.00     0.057 C 
HETATM   23  O           1      43.847 -13.818   5.125  0.00  0.00    -0.271 OA
BRANCH  17  24
HETATM   24  C           1      43.631 -17.748   1.900  0.00  0.00     0.296 C 
HETATM   25  O           1      44.548 -17.290   1.247  0.00  0.00    -0.259 OA
BRANCH  24  26
HETATM   26  O           1      42.564 -18.314   1.257  0.00  0.00    -0.322 OA
HETATM   27  C           1      41.350 -17.605   1.198  0.00  0.00     0.213 C 
ENDBRANCH  24  26
ENDBRANCH  17  24
ENDBRANCH  12  13
ENDBRANCH   2  12
BRANCH   1  28
HETATM   28  C           1      39.844 -12.648   3.146  0.00  0.00     0.009 A 
HETATM   29  C           1      39.405 -12.802   4.420  0.00  0.00     0.076 A 
HETATM   30  C           1      38.826 -11.735   5.003  0.00  0.00     0.040 A 
HETATM   31  C           1      38.728 -10.548   4.392  0.00  0.00     0.039 A 
HETATM   32  C           1      39.196 -10.352   3.148  0.00  0.00     0.069 A 
HETATM   33  C           1      39.726 -11.442   2.563  0.00  0.00     0.048 A 
BRANCH  29  34
HETATM   34  O           1      39.492 -14.030   5.031  0.00  0.00    -0.355 OA
HETATM   35  C           1      40.383 -14.207   6.107  0.00  0.00     0.210 C 
ENDBRANCH  29  34
BRANCH  32  36
HETATM   36  O           1      39.049  -9.115   2.568  0.00  0.00    -0.356 OA
HETATM   37  C           1      37.939  -8.882   1.732  0.00  0.00     0.210 C 
ENDBRANCH  32  36
ENDBRANCH   1  28
BRANCH   4  38
HETATM   38  O           1      39.711 -15.002  -1.112  0.00  0.00    -0.389 OA
HETATM   39  H           1      38.918 -15.471  -0.856  0.00  0.00     0.210 HD
ENDBRANCH   4  38
TORSDOF 8
ENDMDL
MODEL 6
REMARK VINA RESULT:      -7.5      3.477      6.431
REMARK  8 active torsions:
REMARK  status: ('A' for Active; 'I' for Inactive)
REMARK    1  A    between atoms: C_1  and  C_15 
REMARK    2  A    between atoms: C_2  and  C_11 
REMARK    3  A    between atoms: C_2  and  N_12 
REMARK    4  A    between atoms: C_5  and  C_6 
REMARK    5  A    between atoms: C_6  and  O_7 
REMARK       I    between atoms: N_10  and  C_11 
REMARK    6  A    between atoms: C_16  and  O_17 
REMARK    7  A    between atoms: C_20  and  O_22 
REMARK    8  A    between atoms: C_25  and  O_26 
ROOT
HETATM    1  C           1      41.177 -13.352   0.665  0.00  0.00     0.231 C 
HETATM    2  N           1      41.194 -14.709   1.348  0.00  0.00    -0.054 N 
HETATM    3  C           1      40.242 -12.374   1.417  0.00  0.00     0.055 C 
HETATM    4  C           1      38.895 -12.912   1.923  0.00  0.00     0.065 C 
HETATM    5  C           1      39.073 -14.311   2.525  0.00  0.00     0.066 C 
HETATM    6  C           1      39.836 -15.307   1.650  0.00  0.00     0.239 C 
HETATM    7  C           1      40.134 -10.991   0.733  0.00  0.00     0.010 C 
HETATM    8  C           1      38.702 -10.541   0.405  0.00  0.00     0.001 C 
HETATM    9  C           1      37.884 -11.718  -0.131  0.00  0.00     0.003 C 
HETATM   10  C           1      37.751 -12.845   0.905  0.00  0.00     0.038 C 
HETATM   11  H           1      41.633 -14.536   2.283  0.00  0.00     0.281 HD
ENDROOT
BRANCH   2  12
HETATM   12  C           1      42.101 -15.696   0.640  0.00  0.00     0.338 C 
BRANCH  12  13
HETATM   13  C           1      42.326 -16.937   1.490  0.00  0.00     0.248 C 
HETATM   14  N           1      42.831 -16.665   2.727  0.00  0.00    -0.319 N 
HETATM   15  C           1      43.194 -17.443   3.765  0.00  0.00     0.094 A 
HETATM   16  H           1      42.922 -15.691   2.961  0.00  0.00     0.169 HD
HETATM   17  C           1      43.359 -17.026   5.038  0.00  0.00     0.080 A 
HETATM   18  S           1      43.690 -18.805   3.578  0.00  0.00    -0.076 SA
HETATM   19  C           1      43.853 -18.042   5.769  0.00  0.00    -0.030 A 
HETATM   20  C           1      44.165 -18.042   7.244  0.00  0.00     0.050 C 
HETATM   21  C           1      44.045 -19.103   4.969  0.00  0.00    -0.012 A 
HETATM   22  C           1      44.588 -20.442   5.400  0.00  0.00     0.057 C 
HETATM   23  O           1      42.048 -18.035   1.080  0.00  0.00    -0.271 OA
BRANCH  17  24
HETATM   24  C           1      43.062 -15.781   5.527  0.00  0.00     0.296 C 
HETATM   25  O           1      43.776 -14.849   5.215  0.00  0.00    -0.259 OA
BRANCH  24  26
HETATM   26  O           1      41.988 -15.560   6.346  0.00  0.00    -0.322 OA
HETATM   27  C           1      40.695 -15.565   5.789  0.00  0.00     0.213 C 
ENDBRANCH  24  26
ENDBRANCH  17  24
ENDBRANCH  12  13
ENDBRANCH   2  12
BRANCH   1  28
HETATM   28  C           1      41.124 -13.425  -0.868  0.00  0.00     0.009 A 
HETATM   29  C           1      42.078 -12.819  -1.619  0.00  0.00     0.076 A 
HETATM   30  C           1      41.939 -12.883  -2.957  0.00  0.00     0.040 A 
HETATM   31  C           1      40.943 -13.557  -3.545  0.00  0.00     0.039 A 
HETATM   32  C           1      40.010 -14.206  -2.829  0.00  0.00     0.069 A 
HETATM   33  C           1      40.135 -14.089  -1.493  0.00  0.00     0.048 A 
BRANCH  29  34
HETATM   34  O           1      43.086 -12.113  -1.006  0.00  0.00    -0.355 OA
HETATM   35  C           1      43.263 -10.751  -1.314  0.00  0.00     0.210 C 
ENDBRANCH  29  34
BRANCH  32  36
HETATM   36  O           1      39.001 -14.865  -3.490  0.00  0.00    -0.356 OA
HETATM   37  C           1      39.232 -16.177  -3.949  0.00  0.00     0.210 C 
ENDBRANCH  32  36
ENDBRANCH   1  28
BRANCH   4  38
HETATM   38  O           1      38.515 -12.107   3.023  0.00  0.00    -0.389 OA
HETATM   39  H           1      39.123 -12.190   3.756  0.00  0.00     0.210 HD
ENDBRANCH   4  38
TORSDOF 8
ENDMDL
MODEL 7
REMARK VINA RESULT:      -7.4      4.572      7.519
REMARK  8 active torsions:
REMARK  status: ('A' for Active; 'I' for Inactive)
REMARK    1  A    between atoms: C_1  and  C_15 
REMARK    2  A    between atoms: C_2  and  C_11 
REMARK    3  A    between atoms: C_2  and  N_12 
REMARK    4  A    between atoms: C_5  and  C_6 
REMARK    5  A    between atoms: C_6  and  O_7 
REMARK       I    between atoms: N_10  and  C_11 
REMARK    6  A    between atoms: C_16  and  O_17 
REMARK    7  A    between atoms: C_20  and  O_22 
REMARK    8  A    between atoms: C_25  and  O_26 
ROOT
HETATM    1  C           1      39.658 -12.802  -0.416  0.00  0.00     0.231 C 
HETATM    2  N           1      39.081 -13.438   0.837  0.00  0.00    -0.054 N 
HETATM    3  C           1      39.096 -11.372  -0.611  0.00  0.00     0.055 C 
HETATM    4  C           1      37.601 -11.143  -0.343  0.00  0.00     0.065 C 
HETATM    5  C           1      37.164 -11.901   0.917  0.00  0.00     0.066 C 
HETATM    6  C           1      37.574 -13.374   0.969  0.00  0.00     0.239 C 
HETATM    7  C           1      39.600 -10.693  -1.906  0.00  0.00     0.010 C 
HETATM    8  C           1      38.492 -10.184  -2.842  0.00  0.00     0.001 C 
HETATM    9  C           1      37.347 -11.196  -2.912  0.00  0.00     0.003 C 
HETATM   10  C           1      36.684 -11.409  -1.542  0.00  0.00     0.038 C 
HETATM   11  H           1      39.452 -12.861   1.628  0.00  0.00     0.281 HD
ENDROOT
BRANCH   2  12
HETATM   12  C           1      39.610 -14.840   1.063  0.00  0.00     0.338 C 
BRANCH  12  13
HETATM   13  C           1      40.264 -14.963   2.430  0.00  0.00     0.248 C 
HETATM   14  N           1      40.995 -16.104   2.584  0.00  0.00    -0.319 N 
HETATM   15  C           1      41.701 -16.615   3.611  0.00  0.00     0.094 A 
HETATM   16  H           1      41.082 -16.684   1.766  0.00  0.00     0.169 HD
HETATM   17  C           1      42.643 -17.577   3.513  0.00  0.00     0.080 A 
HETATM   18  S           1      41.351 -16.344   5.003  0.00  0.00    -0.076 SA
HETATM   19  C           1      43.036 -17.929   4.751  0.00  0.00    -0.030 A 
HETATM   20  C           1      44.087 -18.942   5.125  0.00  0.00     0.050 C 
HETATM   21  C           1      42.326 -17.227   5.651  0.00  0.00    -0.012 A 
HETATM   22  C           1      42.462 -17.329   7.149  0.00  0.00     0.057 C 
HETATM   23  O           1      40.142 -14.101   3.263  0.00  0.00    -0.271 OA
BRANCH  17  24
HETATM   24  C           1      43.141 -18.109   2.353  0.00  0.00     0.296 C 
HETATM   25  O           1      43.982 -17.480   1.741  0.00  0.00    -0.259 OA
BRANCH  24  26
HETATM   26  O           1      42.724 -19.320   1.871  0.00  0.00    -0.322 OA
HETATM   27  C           1      43.612 -20.411   1.912  0.00  0.00     0.213 C 
ENDBRANCH  24  26
ENDBRANCH  17  24
ENDBRANCH  12  13
ENDBRANCH   2  12
BRANCH   1  28
HETATM   28  C           1      39.742 -13.754  -1.619  0.00  0.00     0.009 A 
HETATM   29  C           1      40.948 -14.144  -2.103  0.00  0.00     0.076 A 
HETATM   30  C           1      40.944 -14.940  -3.189  0.00  0.00     0.040 A 
HETATM   31  C           1      39.813 -15.385  -3.750  0.00  0.00     0.039 A 
HETATM   32  C           1      38.605 -15.054  -3.265  0.00  0.00     0.069 A 
HETATM   33  C           1      38.627 -14.217  -2.210  0.00  0.00     0.048 A 
BRANCH  29  34
HETATM   34  O           1      42.103 -13.666  -1.532  0.00  0.00    -0.355 OA
HETATM   35  C           1      42.839 -12.664  -2.193  0.00  0.00     0.210 C 
ENDBRANCH  29  34
BRANCH  32  36
HETATM   36  O           1      37.480 -15.528  -3.896  0.00  0.00    -0.356 OA
HETATM   37  C           1      36.544 -14.605  -4.402  0.00  0.00     0.210 C 
ENDBRANCH  32  36
ENDBRANCH   1  28
BRANCH   4  38
HETATM   38  O           1      37.445  -9.781   0.001  0.00  0.00    -0.389 OA
HETATM   39  H           1      36.724  -9.644   0.614  0.00  0.00     0.210 HD
ENDBRANCH   4  38
TORSDOF 8
ENDMDL
MODEL 8
REMARK VINA RESULT:      -7.4      2.748      4.754
REMARK  8 active torsions:
REMARK  status: ('A' for Active; 'I' for Inactive)
REMARK    1  A    between atoms: C_1  and  C_15 
REMARK    2  A    between atoms: C_2  and  C_11 
REMARK    3  A    between atoms: C_2  and  N_12 
REMARK    4  A    between atoms: C_5  and  C_6 
REMARK    5  A    between atoms: C_6  and  O_7 
REMARK       I    between atoms: N_10  and  C_11 
REMARK    6  A    between atoms: C_16  and  O_17 
REMARK    7  A    between atoms: C_20  and  O_22 
REMARK    8  A    between atoms: C_25  and  O_26 
ROOT
HETATM    1  C           1      39.762 -13.590   0.664  0.00  0.00     0.231 C 
HETATM    2  N           1      39.907 -15.090   0.470  0.00  0.00    -0.054 N 
HETATM    3  C           1      39.980 -12.843  -0.676  0.00  0.00     0.055 C 
HETATM    4  C           1      41.121 -13.317  -1.587  0.00  0.00     0.065 C 
HETATM    5  C           1      41.170 -14.850  -1.625  0.00  0.00     0.066 C 
HETATM    6  C           1      41.155 -15.539  -0.260  0.00  0.00     0.239 C 
HETATM    7  C           1      39.907 -11.305  -0.530  0.00  0.00     0.010 C 
HETATM    8  C           1      41.138 -10.547  -1.053  0.00  0.00     0.001 C 
HETATM    9  C           1      42.421 -11.285  -0.666  0.00  0.00     0.003 C 
HETATM   10  C           1      42.487 -12.688  -1.290  0.00  0.00     0.038 C 
HETATM   11  H           1      39.111 -15.359  -0.155  0.00  0.00     0.281 HD
ENDROOT
BRANCH   2  12
HETATM   12  C           1      39.699 -15.857   1.761  0.00  0.00     0.338 C 
BRANCH  12  13
HETATM   13  C           1      40.539 -17.124   1.783  0.00  0.00     0.248 C 
HETATM   14  N           1      41.402 -17.187   2.837  0.00  0.00    -0.319 N 
HETATM   15  C           1      42.322 -18.092   3.222  0.00  0.00     0.094 A 
HETATM   16  H           1      41.331 -16.441   3.509  0.00  0.00     0.169 HD
HETATM   17  C           1      42.861 -18.187   4.456  0.00  0.00     0.080 A 
HETATM   18  S           1      43.028 -18.937   2.262  0.00  0.00    -0.076 SA
HETATM   19  C           1      43.837 -19.112   4.436  0.00  0.00    -0.030 A 
HETATM   20  C           1      44.689 -19.572   5.591  0.00  0.00     0.050 C 
HETATM   21  C           1      43.960 -19.590   3.186  0.00  0.00    -0.012 A 
HETATM   22  C           1      44.943 -20.643   2.740  0.00  0.00     0.057 C 
HETATM   23  O           1      40.407 -17.979   0.944  0.00  0.00    -0.271 OA
BRANCH  17  24
HETATM   24  C           1      42.478 -17.477   5.564  0.00  0.00     0.296 C 
HETATM   25  O           1      43.340 -16.997   6.273  0.00  0.00    -0.259 OA
BRANCH  24  26
HETATM   26  O           1      41.161 -17.292   5.888  0.00  0.00    -0.322 OA
HETATM   27  C           1      40.704 -15.988   6.156  0.00  0.00     0.213 C 
ENDBRANCH  24  26
ENDBRANCH  17  24
ENDBRANCH  12  13
ENDBRANCH   2  12
BRANCH   1  28
HETATM   28  C           1      40.424 -13.059   1.944  0.00  0.00     0.009 A 
HETATM   29  C           1      39.725 -12.277   2.805  0.00  0.00     0.076 A 
HETATM   30  C           1      40.384 -11.808   3.882  0.00  0.00     0.040 A 
HETATM   31  C           1      41.657 -12.131   4.142  0.00  0.00     0.039 A 
HETATM   32  C           1      42.360 -12.940   3.333  0.00  0.00     0.069 A 
HETATM   33  C           1      41.702 -13.359   2.236  0.00  0.00     0.048 A 
BRANCH  29  34
HETATM   34  O           1      38.425 -11.935   2.519  0.00  0.00    -0.355 OA
HETATM   35  C           1      37.984 -10.621   2.765  0.00  0.00     0.210 C 
ENDBRANCH  29  34
BRANCH  32  36
HETATM   36  O           1      43.669 -13.221   3.645  0.00  0.00    -0.356 OA
HETATM   37  C           1      43.948 -13.955   4.814  0.00  0.00     0.210 C 
ENDBRANCH  32  36
ENDBRANCH   1  28
BRANCH   4  38
HETATM   38  O           1      40.776 -12.949  -2.908  0.00  0.00    -0.389 OA
HETATM   39  H           1      40.059 -13.478  -3.254  0.00  0.00     0.210 HD
ENDBRANCH   4  38
TORSDOF 8
ENDMDL
MODEL 9
REMARK VINA RESULT:      -7.3      3.211      7.967
REMARK  8 active torsions:
REMARK  status: ('A' for Active; 'I' for Inactive)
REMARK    1  A    between atoms: C_1  and  C_15 
REMARK    2  A    between atoms: C_2  and  C_11 
REMARK    3  A    between atoms: C_2  and  N_12 
REMARK    4  A    between atoms: C_5  and  C_6 
REMARK    5  A    between atoms: C_6  and  O_7 
REMARK       I    between atoms: N_10  and  C_11 
REMARK    6  A    between atoms: C_16  and  O_17 
REMARK    7  A    between atoms: C_20  and  O_22 
REMARK    8  A    between atoms: C_25  and  O_26 
ROOT
HETATM    1  C           1      42.626 -14.843   4.012  0.00  0.00     0.231 C 
HETATM    2  N           1      41.267 -14.266   4.368  0.00  0.00    -0.054 N 
HETATM    3  C           1      42.679 -15.230   2.513  0.00  0.00     0.055 C 
HETATM    4  C           1      41.451 -15.922   1.904  0.00  0.00     0.065 C 
HETATM    5  C           1      40.162 -15.262   2.411  0.00  0.00     0.066 C 
HETATM    6  C           1      40.072 -15.084   3.927  0.00  0.00     0.239 C 
HETATM    7  C           1      44.020 -15.882   2.103  0.00  0.00     0.010 C 
HETATM    8  C           1      43.891 -17.258   1.430  0.00  0.00     0.001 C 
HETATM    9  C           1      42.823 -18.097   2.135  0.00  0.00     0.003 C 
HETATM   10  C           1      41.433 -17.447   2.051  0.00  0.00     0.038 C 
HETATM   11  H           1      41.203 -13.371   3.826  0.00  0.00     0.281 HD
ENDROOT
BRANCH   2  12
HETATM   12  C           1      41.176 -13.873   5.829  0.00  0.00     0.338 C 
BRANCH  12  13
HETATM   13  C           1      40.688 -12.440   5.980  0.00  0.00     0.248 C 
HETATM   14  N           1      40.990 -11.887   7.189  0.00  0.00    -0.319 N 
HETATM   15  C           1      40.736 -10.685   7.742  0.00  0.00     0.094 A 
HETATM   16  H           1      41.558 -12.449   7.801  0.00  0.00     0.169 HD
HETATM   17  C           1      41.379 -10.159   8.806  0.00  0.00     0.080 A 
HETATM   18  S           1      39.552  -9.905   7.390  0.00  0.00    -0.076 SA
HETATM   19  C           1      40.771  -9.012   9.159  0.00  0.00    -0.030 A 
HETATM   20  C           1      41.163  -8.072  10.270  0.00  0.00     0.050 C 
HETATM   21  C           1      39.714  -8.813   8.355  0.00  0.00    -0.012 A 
HETATM   22  C           1      38.767  -7.641   8.422  0.00  0.00     0.057 C 
HETATM   23  O           1      40.115 -11.876   5.083  0.00  0.00    -0.271 OA
BRANCH  17  24
HETATM   24  C           1      42.482 -10.684   9.426  0.00  0.00     0.296 C 
HETATM   25  O           1      43.543 -10.673   8.832  0.00  0.00    -0.259 OA
BRANCH  24  26
HETATM   26  O           1      42.425 -11.211  10.688  0.00  0.00    -0.322 OA
HETATM   27  C           1      43.587 -11.782  11.240  0.00  0.00     0.213 C 
ENDBRANCH  24  26
ENDBRANCH  17  24
ENDBRANCH  12  13
ENDBRANCH   2  12
BRANCH   1  28
HETATM   28  C           1      43.190 -15.809   5.065  0.00  0.00     0.009 A 
HETATM   29  C           1      44.057 -15.366   6.009  0.00  0.00     0.076 A 
HETATM   30  C           1      44.548 -16.280   6.868  0.00  0.00     0.040 A 
HETATM   31  C           1      44.168 -17.563   6.847  0.00  0.00     0.039 A 
HETATM   32  C           1      43.276 -18.022   5.954  0.00  0.00     0.069 A 
HETATM   33  C           1      42.834 -17.106   5.071  0.00  0.00     0.048 A 
BRANCH  29  34
HETATM   34  O           1      44.456 -14.051   6.010  0.00  0.00    -0.355 OA
HETATM   35  C           1      45.125 -13.530   7.135  0.00  0.00     0.210 C 
ENDBRANCH  29  34
BRANCH  32  36
HETATM   36  O           1      42.940 -19.354   5.970  0.00  0.00    -0.356 OA
HETATM   37  C           1      43.923 -20.299   6.326  0.00  0.00     0.210 C 
ENDBRANCH  32  36
ENDBRANCH   1  28
BRANCH   4  38
HETATM   38  O           1      41.462 -15.641   0.518  0.00  0.00    -0.389 OA
HETATM   39  H           1      41.504 -16.437  -0.010  0.00  0.00     0.210 HD
ENDBRANCH   4  38
TORSDOF 8
ENDMDL
MODEL 10
REMARK VINA RESULT:      -7.2      3.883      8.110
REMARK  8 active torsions:
REMARK  status: ('A' for Active; 'I' for Inactive)
REMARK    1  A    between atoms: C_1  and  C_15 
REMARK    2  A    between atoms: C_2  and  C_11 
REMARK    3  A    between atoms: C_2  and  N_12 
REMARK    4  A    between atoms: C_5  and  C_6 
REMARK    5  A    between atoms: C_6  and  O_7 
REMARK       I    between atoms: N_10  and  C_11 
REMARK    6  A    between atoms: C_16  and  O_17 
REMARK    7  A    between atoms: C_20  and  O_22 
REMARK    8  A    between atoms: C_25  and  O_26 
ROOT
HETATM    1  C           1      40.593 -13.073   4.040  0.00  0.00     0.231 C 
HETATM    2  N           1      41.625 -12.646   5.070  0.00  0.00    -0.054 N 
HETATM    3  C           1      40.507 -14.617   3.961  0.00  0.00     0.055 C 
HETATM    4  C           1      41.819 -15.414   3.998  0.00  0.00     0.065 C 
HETATM    5  C           1      42.773 -14.820   5.041  0.00  0.00     0.066 C 
HETATM    6  C           1      42.982 -13.307   4.949  0.00  0.00     0.239 C 
HETATM    7  C           1      39.515 -15.114   2.883  0.00  0.00     0.010 C 
HETATM    8  C           1      40.112 -16.087   1.854  0.00  0.00     0.001 C 
HETATM    9  C           1      41.514 -15.633   1.443  0.00  0.00     0.003 C 
HETATM   10  C           1      42.486 -15.620   2.633  0.00  0.00     0.038 C 
HETATM   11  H           1      41.241 -12.972   5.989  0.00  0.00     0.281 HD
ENDROOT
BRANCH   2  12
HETATM   12  C           1      41.738 -11.139   5.178  0.00  0.00     0.338 C 
BRANCH  12  13
HETATM   13  C           1      41.283 -10.655   6.546  0.00  0.00     0.248 C 
HETATM   14  N           1      42.067 -11.099   7.569  0.00  0.00    -0.319 N 
HETATM   15  C           1      42.017 -10.938   8.906  0.00  0.00     0.094 A 
HETATM   16  H           1      42.885 -11.620   7.303  0.00  0.00     0.169 HD
HETATM   17  C           1      43.040 -11.152   9.761  0.00  0.00     0.080 A 
HETATM   18  S           1      40.756 -10.738   9.617  0.00  0.00    -0.076 SA
HETATM   19  C           1      42.589 -11.022  11.022  0.00  0.00    -0.030 A 
HETATM   20  C           1      43.384 -11.144  12.296  0.00  0.00     0.050 C 
HETATM   21  C           1      41.271 -10.765  10.989  0.00  0.00    -0.012 A 
HETATM   22  C           1      40.387 -10.554  12.193  0.00  0.00     0.057 C 
HETATM   23  O           1      40.329  -9.929   6.669  0.00  0.00    -0.271 OA
BRANCH  17  24
HETATM   24  C           1      44.335 -11.437   9.418  0.00  0.00     0.296 C 
HETATM   25  O           1      45.108 -10.515   9.249  0.00  0.00    -0.259 OA
BRANCH  24  26
HETATM   26  O           1      44.781 -12.723   9.267  0.00  0.00    -0.322 OA
HETATM   27  C           1      45.138 -13.173   7.982  0.00  0.00     0.213 C 
ENDBRANCH  24  26
ENDBRANCH  17  24
ENDBRANCH  12  13
ENDBRANCH   2  12
BRANCH   1  28
HETATM   28  C           1      40.624 -12.247   2.745  0.00  0.00     0.009 A 
HETATM   29  C           1      39.561 -11.481   2.393  0.00  0.00     0.076 A 
HETATM   30  C           1      39.640 -10.824   1.220  0.00  0.00     0.040 A 
HETATM   31  C           1      40.732 -10.864   0.446  0.00  0.00     0.039 A 
HETATM   32  C           1      41.817 -11.576   0.791  0.00  0.00     0.069 A 
HETATM   33  C           1      41.702 -12.267   1.941  0.00  0.00     0.048 A 
BRANCH  29  34
HETATM   34  O           1      38.438 -11.462   3.185  0.00  0.00    -0.355 OA
HETATM   35  C           1      38.083 -10.276   3.856  0.00  0.00     0.210 C 
ENDBRANCH  29  34
BRANCH  32  36
HETATM   36  O           1      42.900 -11.592  -0.055  0.00  0.00    -0.356 OA
HETATM   37  C           1      43.163 -10.456  -0.845  0.00  0.00     0.210 C 
ENDBRANCH  32  36
ENDBRANCH   1  28
BRANCH   4  38
HETATM   38  O           1      41.509 -16.698   4.503  0.00  0.00    -0.389 OA
HETATM   39  H           1      42.293 -17.226   4.649  0.00  0.00     0.210 HD
ENDBRANCH   4  38
TORSDOF 8
ENDMDL
