MODEL 1
REMARK VINA RESULT:      -8.2      0.000      0.000
REMARK  3 active torsions:
REMARK  status: ('A' for Active; 'I' for Inactive)
REMARK    1  A    between atoms: C_4  and  N_5 
REMARK       I    between atoms: N_5  and  C_6 
REMARK    2  A    between atoms: C_6  and  C_7 
REMARK    3  A    between atoms: C_7  and  C_8 
ROOT
HETATM    1  C   UNL     1      43.546 -15.417   5.260  1.00  0.00     0.286 C 
HETATM    2  N   UNL     1      42.280 -15.208   4.437  1.00  0.00    -0.056 N 
HETATM    3  H   UNL     1      42.525 -14.676   3.593  1.00  0.00     0.278 HD
HETATM    4  H   UNL     1      41.974 -16.143   4.089  1.00  0.00     0.278 HD
HETATM    5  C   UNL     1      41.146 -14.555   5.179  1.00  0.00     0.209 C 
HETATM    6  C   UNL     1      41.639 -13.192   5.723  1.00  0.00     0.115 C 
HETATM    7  N   UNL     1      42.897 -13.324   6.457  1.00  0.00    -0.353 N 
HETATM    8  C   UNL     1      43.903 -14.200   6.134  1.00  0.00     0.249 C 
HETATM    9  O   UNL     1      45.020 -14.062   6.620  1.00  0.00    -0.271 OA
HETATM   10  C   UNL     1      39.944 -14.425   4.244  1.00  0.00     0.035 C 
HETATM   11  C   UNL     1      40.134 -13.369   3.157  1.00  0.00     0.002 C 
HETATM   12  C   UNL     1      40.544 -12.025   3.750  1.00  0.00     0.002 C 
HETATM   13  C   UNL     1      41.799 -12.147   4.608  1.00  0.00     0.027 C 
HETATM   14  H   UNL     1      43.198 -12.549   7.045  1.00  0.00     0.163 HD
ENDROOT
BRANCH   1  15
HETATM   15  C   UNL     1      43.470 -16.652   6.169  1.00  0.00     0.146 C 
BRANCH  15  16
HETATM   16  C   UNL     1      43.248 -17.925   5.388  1.00  0.00     0.224 C 
HETATM   17  N   UNL     1      44.394 -18.641   5.143  1.00  0.00    -0.327 N 
HETATM   18  H   UNL     1      45.289 -18.182   5.274  1.00  0.00     0.169 HD
HETATM   19  O   UNL     1      42.099 -18.237   5.076  1.00  0.00    -0.273 OA
BRANCH  17  20
HETATM   20  C   UNL     1      44.472 -19.952   4.620  1.00  0.00     0.035 A 
HETATM   21  C   UNL     1      44.311 -20.253   3.263  1.00  0.00     0.036 A 
HETATM   22  C   UNL     1      44.342 -21.583   2.815  1.00  0.00    -0.060 A 
HETATM   23  C   UNL     1      44.159 -21.898   1.358  1.00  0.00     0.048 C 
HETATM   24  C   UNL     1      44.585 -22.610   3.731  1.00  0.00     0.007 A 
HETATM   25  C   UNL     1      44.748 -22.318   5.084  1.00  0.00     0.003 A 
HETATM   26  C   UNL     1      44.678 -20.997   5.528  1.00  0.00     0.029 A 
ENDBRANCH  17  20
ENDBRANCH  15  16
ENDBRANCH   1  15
TORSDOF 3
ENDMDL
MODEL 2
REMARK VINA RESULT:      -8.0      4.335      5.527
REMARK  3 active torsions:
REMARK  status: ('A' for Active; 'I' for Inactive)
REMARK    1  A    between atoms: C_4  and  N_5 
REMARK       I    between atoms: N_5  and  C_6 
REMARK    2  A    between atoms: C_6  and  C_7 
REMARK    3  A    between atoms: C_7  and  C_8 
ROOT
HETATM    1  C   UNL     1      40.758 -14.868   0.709  1.00  0.00     0.286 C 
HETATM    2  N   UNL     1      41.449 -14.809  -0.650  1.00  0.00    -0.056 N 
HETATM    3  H   UNL     1      41.889 -13.886  -0.751  1.00  0.00     0.278 HD
HETATM    4  H   UNL     1      42.242 -15.487  -0.628  1.00  0.00     0.278 HD
HETATM    5  C   UNL     1      40.559 -15.118  -1.822  1.00  0.00     0.209 C 
HETATM    6  C   UNL     1      39.369 -14.129  -1.806  1.00  0.00     0.115 C 
HETATM    7  N   UNL     1      38.716 -14.087  -0.498  1.00  0.00    -0.353 N 
HETATM    8  C   UNL     1      39.367 -14.207   0.705  1.00  0.00     0.249 C 
HETATM    9  O   UNL     1      38.802 -13.891   1.746  1.00  0.00    -0.271 OA
HETATM   10  C   UNL     1      41.381 -15.040  -3.109  1.00  0.00     0.035 C 
HETATM   11  C   UNL     1      41.769 -13.615  -3.494  1.00  0.00     0.002 C 
HETATM   12  C   UNL     1      40.552 -12.698  -3.539  1.00  0.00     0.002 C 
HETATM   13  C   UNL     1      39.787 -12.710  -2.219  1.00  0.00     0.027 C 
HETATM   14  H   UNL     1      37.798 -13.653  -0.428  1.00  0.00     0.163 HD
ENDROOT
BRANCH   1  15
HETATM   15  C   UNL     1      40.606 -16.301   1.240  1.00  0.00     0.146 C 
BRANCH  15  16
HETATM   16  C   UNL     1      41.937 -16.934   1.567  1.00  0.00     0.224 C 
HETATM   17  N   UNL     1      41.877 -17.892   2.549  1.00  0.00    -0.327 N 
HETATM   18  H   UNL     1      41.048 -17.938   3.131  1.00  0.00     0.169 HD
HETATM   19  O   UNL     1      42.931 -16.590   0.927  1.00  0.00    -0.273 OA
BRANCH  17  20
HETATM   20  C   UNL     1      42.910 -18.784   2.918  1.00  0.00     0.035 A 
HETATM   21  C   UNL     1      43.252 -19.920   2.178  1.00  0.00     0.036 A 
HETATM   22  C   UNL     1      44.250 -20.798   2.629  1.00  0.00    -0.060 A 
HETATM   23  C   UNL     1      44.603 -22.022   1.833  1.00  0.00     0.048 C 
HETATM   24  C   UNL     1      44.941 -20.502   3.808  1.00  0.00     0.007 A 
HETATM   25  C   UNL     1      44.609 -19.371   4.550  1.00  0.00     0.003 A 
HETATM   26  C   UNL     1      43.589 -18.523   4.114  1.00  0.00     0.029 A 
ENDBRANCH  17  20
ENDBRANCH  15  16
ENDBRANCH   1  15
TORSDOF 3
ENDMDL
MODEL 3
REMARK VINA RESULT:      -7.9      1.790      2.564
REMARK  3 active torsions:
REMARK  status: ('A' for Active; 'I' for Inactive)
REMARK    1  A    between atoms: C_4  and  N_5 
REMARK       I    between atoms: N_5  and  C_6 
REMARK    2  A    between atoms: C_6  and  C_7 
REMARK    3  A    between atoms: C_7  and  C_8 
ROOT
HETATM    1  C   UNL     1      42.884 -15.323   3.129  1.00  0.00     0.286 C 
HETATM    2  N   UNL     1      41.570 -15.490   2.374  1.00  0.00    -0.056 N 
HETATM    3  H   UNL     1      41.747 -15.328   1.375  1.00  0.00     0.278 HD
HETATM    4  H   UNL     1      41.296 -16.495   2.441  1.00  0.00     0.278 HD
HETATM    5  C   UNL     1      40.443 -14.629   2.873  1.00  0.00     0.209 C 
HETATM    6  C   UNL     1      40.892 -13.149   2.805  1.00  0.00     0.115 C 
HETATM    7  N   UNL     1      42.189 -12.947   3.450  1.00  0.00    -0.353 N 
HETATM    8  C   UNL     1      43.221 -13.851   3.431  1.00  0.00     0.249 C 
HETATM    9  O   UNL     1      44.352 -13.502   3.750  1.00  0.00    -0.271 OA
HETATM   10  C   UNL     1      39.191 -14.910   2.042  1.00  0.00     0.035 C 
HETATM   11  C   UNL     1      39.274 -14.364   0.618  1.00  0.00     0.002 C 
HETATM   12  C   UNL     1      39.644 -12.885   0.609  1.00  0.00     0.002 C 
HETATM   13  C   UNL     1      40.944 -12.624   1.363  1.00  0.00     0.027 C 
HETATM   14  H   UNL     1      42.479 -11.995   3.666  1.00  0.00     0.163 HD
ENDROOT
BRANCH   1  15
HETATM   15  C   UNL     1      42.915 -16.102   4.453  1.00  0.00     0.146 C 
BRANCH  15  16
HETATM   16  C   UNL     1      42.742 -17.587   4.247  1.00  0.00     0.224 C 
HETATM   17  N   UNL     1      43.747 -18.174   3.516  1.00  0.00    -0.327 N 
HETATM   18  H   UNL     1      44.370 -17.577   2.984  1.00  0.00     0.169 HD
HETATM   19  O   UNL     1      41.776 -18.150   4.762  1.00  0.00    -0.273 OA
BRANCH  17  20
HETATM   20  C   UNL     1      43.957 -19.561   3.338  1.00  0.00     0.035 A 
HETATM   21  C   UNL     1      44.498 -20.394   4.323  1.00  0.00     0.036 A 
HETATM   22  C   UNL     1      44.735 -21.752   4.062  1.00  0.00    -0.060 A 
HETATM   23  C   UNL     1      45.325 -22.638   5.123  1.00  0.00     0.048 C 
HETATM   24  C   UNL     1      44.381 -22.284   2.819  1.00  0.00     0.007 A 
HETATM   25  C   UNL     1      43.840 -21.462   1.834  1.00  0.00     0.003 A 
HETATM   26  C   UNL     1      43.642 -20.104   2.087  1.00  0.00     0.029 A 
ENDBRANCH  17  20
ENDBRANCH  15  16
ENDBRANCH   1  15
TORSDOF 3
ENDMDL
MODEL 4
REMARK VINA RESULT:      -7.8      4.350      5.662
REMARK  3 active torsions:
REMARK  status: ('A' for Active; 'I' for Inactive)
REMARK    1  A    between atoms: C_4  and  N_5 
REMARK       I    between atoms: N_5  and  C_6 
REMARK    2  A    between atoms: C_6  and  C_7 
REMARK    3  A    between atoms: C_7  and  C_8 
ROOT
HETATM    1  C   UNL     1      41.400 -15.161   0.171  1.00  0.00     0.286 C 
HETATM    2  N   UNL     1      41.764 -14.612  -1.204  1.00  0.00    -0.056 N 
HETATM    3  H   UNL     1      42.088 -13.644  -1.091  1.00  0.00     0.278 HD
HETATM    4  H   UNL     1      42.599 -15.140  -1.542  1.00  0.00     0.278 HD
HETATM    5  C   UNL     1      40.667 -14.701  -2.229  1.00  0.00     0.209 C 
HETATM    6  C   UNL     1      39.428 -13.950  -1.685  1.00  0.00     0.115 C 
HETATM    7  N   UNL     1      39.081 -14.385  -0.332  1.00  0.00    -0.353 N 
HETATM    8  C   UNL     1      39.991 -14.745   0.630  1.00  0.00     0.249 C 
HETATM    9  O   UNL     1      39.645 -14.831   1.804  1.00  0.00    -0.271 OA
HETATM   10  C   UNL     1      41.173 -14.135  -3.555  1.00  0.00     0.035 C 
HETATM   11  C   UNL     1      41.339 -12.617  -3.541  1.00  0.00     0.002 C 
HETATM   12  C   UNL     1      40.067 -11.920  -3.071  1.00  0.00     0.002 C 
HETATM   13  C   UNL     1      39.619 -12.426  -1.704  1.00  0.00     0.027 C 
HETATM   14  H   UNL     1      38.167 -14.132   0.038  1.00  0.00     0.163 HD
ENDROOT
BRANCH   1  15
HETATM   15  C   UNL     1      41.496 -16.692   0.246  1.00  0.00     0.146 C 
BRANCH  15  16
HETATM   16  C   UNL     1      42.558 -17.152   1.214  1.00  0.00     0.224 C 
HETATM   17  N   UNL     1      42.236 -18.298   1.901  1.00  0.00    -0.327 N 
HETATM   18  H   UNL     1      41.269 -18.605   1.902  1.00  0.00     0.169 HD
HETATM   19  O   UNL     1      43.612 -16.518   1.285  1.00  0.00    -0.273 OA
BRANCH  17  20
HETATM   20  C   UNL     1      43.103 -19.065   2.712  1.00  0.00     0.035 A 
HETATM   21  C   UNL     1      43.421 -18.733   4.033  1.00  0.00     0.036 A 
HETATM   22  C   UNL     1      44.335 -19.505   4.767  1.00  0.00    -0.060 A 
HETATM   23  C   UNL     1      44.678 -19.135   6.182  1.00  0.00     0.048 C 
HETATM   24  C   UNL     1      44.893 -20.645   4.183  1.00  0.00     0.007 A 
HETATM   25  C   UNL     1      44.580 -20.984   2.869  1.00  0.00     0.003 A 
HETATM   26  C   UNL     1      43.700 -20.190   2.132  1.00  0.00     0.029 A 
ENDBRANCH  17  20
ENDBRANCH  15  16
ENDBRANCH   1  15
TORSDOF 3
ENDMDL
MODEL 5
REMARK VINA RESULT:      -7.6      2.058      2.555
REMARK  3 active torsions:
REMARK  status: ('A' for Active; 'I' for Inactive)
REMARK    1  A    between atoms: C_4  and  N_5 
REMARK       I    between atoms: N_5  and  C_6 
REMARK    2  A    between atoms: C_6  and  C_7 
REMARK    3  A    between atoms: C_7  and  C_8 
ROOT
HETATM    1  C   UNL     1      42.158 -14.912   2.945  1.00  0.00     0.286 C 
HETATM    2  N   UNL     1      40.872 -14.694   2.156  1.00  0.00    -0.056 N 
HETATM    3  H   UNL     1      41.106 -14.663   1.156  1.00  0.00     0.278 HD
HETATM    4  H   UNL     1      40.285 -15.549   2.271  1.00  0.00     0.278 HD
HETATM    5  C   UNL     1      40.079 -13.484   2.566  1.00  0.00     0.209 C 
HETATM    6  C   UNL     1      40.985 -12.236   2.429  1.00  0.00     0.115 C 
HETATM    7  N   UNL     1      42.269 -12.423   3.105  1.00  0.00    -0.353 N 
HETATM    8  C   UNL     1      42.951 -13.612   3.173  1.00  0.00     0.249 C 
HETATM    9  O   UNL     1      44.129 -13.627   3.511  1.00  0.00    -0.271 OA
HETATM   10  C   UNL     1      38.815 -13.399   1.710  1.00  0.00     0.035 C 
HETATM   11  C   UNL     1      39.091 -13.003   0.261  1.00  0.00     0.002 C 
HETATM   12  C   UNL     1      39.921 -11.727   0.179  1.00  0.00     0.002 C 
HETATM   13  C   UNL     1      41.225 -11.852   0.962  1.00  0.00     0.027 C 
HETATM   14  H   UNL     1      42.849 -11.604   3.276  1.00  0.00     0.163 HD
ENDROOT
BRANCH   1  15
HETATM   15  C   UNL     1      41.916 -15.571   4.311  1.00  0.00     0.146 C 
BRANCH  15  16
HETATM   16  C   UNL     1      42.087 -17.070   4.262  1.00  0.00     0.224 C 
HETATM   17  N   UNL     1      43.254 -17.483   3.668  1.00  0.00    -0.327 N 
HETATM   18  H   UNL     1      43.778 -16.815   3.113  1.00  0.00     0.169 HD
HETATM   19  O   UNL     1      41.223 -17.783   4.774  1.00  0.00    -0.273 OA
BRANCH  17  20
HETATM   20  C   UNL     1      43.774 -18.798   3.660  1.00  0.00     0.035 A 
HETATM   21  C   UNL     1      43.691 -19.655   2.557  1.00  0.00     0.036 A 
HETATM   22  C   UNL     1      44.175 -20.970   2.632  1.00  0.00    -0.060 A 
HETATM   23  C   UNL     1      44.073 -21.886   1.446  1.00  0.00     0.048 C 
HETATM   24  C   UNL     1      44.791 -21.408   3.808  1.00  0.00     0.007 A 
HETATM   25  C   UNL     1      44.880 -20.560   4.910  1.00  0.00     0.003 A 
HETATM   26  C   UNL     1      44.362 -19.266   4.840  1.00  0.00     0.029 A 
ENDBRANCH  17  20
ENDBRANCH  15  16
ENDBRANCH   1  15
TORSDOF 3
ENDMDL
MODEL 6
REMARK VINA RESULT:      -7.6      2.304      6.834
REMARK  3 active torsions:
REMARK  status: ('A' for Active; 'I' for Inactive)
REMARK    1  A    between atoms: C_4  and  N_5 
REMARK       I    between atoms: N_5  and  C_6 
REMARK    2  A    between atoms: C_6  and  C_7 
REMARK    3  A    between atoms: C_7  and  C_8 
ROOT
HETATM    1  C   UNL     1      42.802 -18.429   5.503  1.00  0.00     0.286 C 
HETATM    2  N   UNL     1      42.737 -18.896   4.053  1.00  0.00    -0.056 N 
HETATM    3  H   UNL     1      42.224 -19.784   4.020  1.00  0.00     0.278 HD
HETATM    4  H   UNL     1      42.140 -18.217   3.531  1.00  0.00     0.278 HD
HETATM    5  C   UNL     1      44.072 -19.014   3.370  1.00  0.00     0.209 C 
HETATM    6  C   UNL     1      44.954 -19.990   4.186  1.00  0.00     0.115 C 
HETATM    7  N   UNL     1      44.987 -19.633   5.604  1.00  0.00    -0.353 N 
HETATM    8  C   UNL     1      43.929 -19.108   6.303  1.00  0.00     0.249 C 
HETATM    9  O   UNL     1      43.947 -19.093   7.529  1.00  0.00    -0.271 OA
HETATM   10  C   UNL     1      43.858 -19.471   1.926  1.00  0.00     0.035 C 
HETATM   11  C   UNL     1      43.419 -20.929   1.811  1.00  0.00     0.002 C 
HETATM   12  C   UNL     1      44.363 -21.857   2.568  1.00  0.00     0.002 C 
HETATM   13  C   UNL     1      44.500 -21.449   4.032  1.00  0.00     0.027 C 
HETATM   14  H   UNL     1      45.701 -20.056   6.194  1.00  0.00     0.163 HD
ENDROOT
BRANCH   1  15
HETATM   15  C   UNL     1      42.970 -16.908   5.634  1.00  0.00     0.146 C 
BRANCH  15  16
HETATM   16  C   UNL     1      42.165 -16.152   4.606  1.00  0.00     0.224 C 
HETATM   17  N   UNL     1      42.924 -15.453   3.699  1.00  0.00    -0.327 N 
HETATM   18  H   UNL     1      43.903 -15.294   3.909  1.00  0.00     0.169 HD
HETATM   19  O   UNL     1      40.937 -16.247   4.627  1.00  0.00    -0.273 OA
BRANCH  17  20
HETATM   20  C   UNL     1      42.461 -14.827   2.520  1.00  0.00     0.035 A 
HETATM   21  C   UNL     1      42.043 -15.529   1.385  1.00  0.00     0.036 A 
HETATM   22  C   UNL     1      41.649 -14.847   0.223  1.00  0.00    -0.060 A 
HETATM   23  C   UNL     1      41.210 -15.609  -0.995  1.00  0.00     0.048 C 
HETATM   24  C   UNL     1      41.629 -13.449   0.223  1.00  0.00     0.007 A 
HETATM   25  C   UNL     1      42.042 -12.742   1.350  1.00  0.00     0.003 A 
HETATM   26  C   UNL     1      42.469 -13.428   2.488  1.00  0.00     0.029 A 
ENDBRANCH  17  20
ENDBRANCH  15  16
ENDBRANCH   1  15
TORSDOF 3
ENDMDL
MODEL 7
REMARK VINA RESULT:      -7.6      3.615      8.094
REMARK  3 active torsions:
REMARK  status: ('A' for Active; 'I' for Inactive)
REMARK    1  A    between atoms: C_4  and  N_5 
REMARK       I    between atoms: N_5  and  C_6 
REMARK    2  A    between atoms: C_6  and  C_7 
REMARK    3  A    between atoms: C_7  and  C_8 
ROOT
HETATM    1  C   UNL     1      42.721 -18.533   2.678  1.00  0.00     0.286 C 
HETATM    2  N   UNL     1      43.194 -19.965   2.448  1.00  0.00    -0.056 N 
HETATM    3  H   UNL     1      42.614 -20.593   3.017  1.00  0.00     0.278 HD
HETATM    4  H   UNL     1      42.972 -20.213   1.459  1.00  0.00     0.278 HD
HETATM    5  C   UNL     1      44.658 -20.193   2.705  1.00  0.00     0.209 C 
HETATM    6  C   UNL     1      44.969 -19.776   4.163  1.00  0.00     0.115 C 
HETATM    7  N   UNL     1      44.466 -18.435   4.461  1.00  0.00    -0.353 N 
HETATM    8  C   UNL     1      43.304 -17.906   3.958  1.00  0.00     0.249 C 
HETATM    9  O   UNL     1      42.816 -16.901   4.462  1.00  0.00    -0.271 OA
HETATM   10  C   UNL     1      44.994 -21.657   2.420  1.00  0.00     0.035 C 
HETATM   11  C   UNL     1      44.432 -22.621   3.462  1.00  0.00     0.002 C 
HETATM   12  C   UNL     1      44.830 -22.210   4.875  1.00  0.00     0.002 C 
HETATM   13  C   UNL     1      44.410 -20.777   5.185  1.00  0.00     0.027 C 
HETATM   14  H   UNL     1      44.802 -17.968   5.301  1.00  0.00     0.163 HD
ENDROOT
BRANCH   1  15
HETATM   15  C   UNL     1      43.043 -17.602   1.500  1.00  0.00     0.146 C 
BRANCH  15  16
HETATM   16  C   UNL     1      41.798 -17.042   0.856  1.00  0.00     0.224 C 
HETATM   17  N   UNL     1      42.027 -15.975   0.022  1.00  0.00    -0.327 N 
HETATM   18  H   UNL     1      42.922 -15.500   0.078  1.00  0.00     0.169 HD
HETATM   19  O   UNL     1      40.717 -17.586   1.083  1.00  0.00    -0.273 OA
BRANCH  17  20
HETATM   20  C   UNL     1      41.096 -15.382  -0.861  1.00  0.00     0.035 A 
HETATM   21  C   UNL     1      40.180 -14.398  -0.473  1.00  0.00     0.036 A 
HETATM   22  C   UNL     1      39.242 -13.891  -1.385  1.00  0.00    -0.060 A 
HETATM   23  C   UNL     1      38.256 -12.842  -0.957  1.00  0.00     0.048 C 
HETATM   24  C   UNL     1      39.260 -14.341  -2.708  1.00  0.00     0.007 A 
HETATM   25  C   UNL     1      40.170 -15.318  -3.103  1.00  0.00     0.003 A 
HETATM   26  C   UNL     1      41.075 -15.846  -2.181  1.00  0.00     0.029 A 
ENDBRANCH  17  20
ENDBRANCH  15  16
ENDBRANCH   1  15
TORSDOF 3
ENDMDL
MODEL 8
REMARK VINA RESULT:      -7.6      3.158      7.274
REMARK  3 active torsions:
REMARK  status: ('A' for Active; 'I' for Inactive)
REMARK    1  A    between atoms: C_4  and  N_5 
REMARK       I    between atoms: N_5  and  C_6 
REMARK    2  A    between atoms: C_6  and  C_7 
REMARK    3  A    between atoms: C_7  and  C_8 
ROOT
HETATM    1  C   UNL     1      41.509 -17.389   4.402  1.00  0.00     0.286 C 
HETATM    2  N   UNL     1      42.218 -18.314   3.420  1.00  0.00    -0.056 N 
HETATM    3  H   UNL     1      41.979 -19.284   3.656  1.00  0.00     0.278 HD
HETATM    4  H   UNL     1      41.798 -18.152   2.478  1.00  0.00     0.278 HD
HETATM    5  C   UNL     1      43.708 -18.125   3.342  1.00  0.00     0.209 C 
HETATM    6  C   UNL     1      44.301 -18.325   4.757  1.00  0.00     0.115 C 
HETATM    7  N   UNL     1      43.603 -17.516   5.756  1.00  0.00    -0.353 N 
HETATM    8  C   UNL     1      42.258 -17.244   5.740  1.00  0.00     0.249 C 
HETATM    9  O   UNL     1      41.707 -16.800   6.741  1.00  0.00    -0.271 OA
HETATM   10  C   UNL     1      44.283 -19.098   2.312  1.00  0.00     0.035 C 
HETATM   11  C   UNL     1      44.268 -20.552   2.779  1.00  0.00     0.002 C 
HETATM   12  C   UNL     1      44.931 -20.708   4.143  1.00  0.00     0.002 C 
HETATM   13  C   UNL     1      44.291 -19.799   5.188  1.00  0.00     0.027 C 
HETATM   14  H   UNL     1      44.038 -17.391   6.668  1.00  0.00     0.163 HD
ENDROOT
BRANCH   1  15
HETATM   15  C   UNL     1      41.271 -15.982   3.833  1.00  0.00     0.146 C 
BRANCH  15  16
HETATM   16  C   UNL     1      40.516 -16.014   2.526  1.00  0.00     0.224 C 
HETATM   17  N   UNL     1      40.521 -14.821   1.845  1.00  0.00    -0.327 N 
HETATM   18  H   UNL     1      40.797 -13.981   2.342  1.00  0.00     0.169 HD
HETATM   19  O   UNL     1      40.008 -17.074   2.160  1.00  0.00    -0.273 OA
BRANCH  17  20
HETATM   20  C   UNL     1      40.077 -14.607   0.520  1.00  0.00     0.035 A 
HETATM   21  C   UNL     1      40.834 -14.931  -0.611  1.00  0.00     0.036 A 
HETATM   22  C   UNL     1      40.361 -14.639  -1.899  1.00  0.00    -0.060 A 
HETATM   23  C   UNL     1      41.184 -14.981  -3.108  1.00  0.00     0.048 C 
HETATM   24  C   UNL     1      39.096 -14.064  -2.051  1.00  0.00     0.007 A 
HETATM   25  C   UNL     1      38.334 -13.741  -0.930  1.00  0.00     0.003 A 
HETATM   26  C   UNL     1      38.829 -13.999   0.350  1.00  0.00     0.029 A 
ENDBRANCH  17  20
ENDBRANCH  15  16
ENDBRANCH   1  15
TORSDOF 3
ENDMDL
MODEL 9
REMARK VINA RESULT:      -7.6      2.819      3.724
REMARK  3 active torsions:
REMARK  status: ('A' for Active; 'I' for Inactive)
REMARK    1  A    between atoms: C_4  and  N_5 
REMARK       I    between atoms: N_5  and  C_6 
REMARK    2  A    between atoms: C_6  and  C_7 
REMARK    3  A    between atoms: C_7  and  C_8 
ROOT
HETATM    1  C   UNL     1      40.949 -14.376   1.259  1.00  0.00     0.286 C 
HETATM    2  N   UNL     1      40.784 -14.859   2.696  1.00  0.00    -0.056 N 
HETATM    3  H   UNL     1      39.894 -14.499   3.060  1.00  0.00     0.278 HD
HETATM    4  H   UNL     1      40.666 -15.896   2.667  1.00  0.00     0.278 HD
HETATM    5  C   UNL     1      41.925 -14.511   3.612  1.00  0.00     0.209 C 
HETATM    6  C   UNL     1      42.109 -12.975   3.603  1.00  0.00     0.115 C 
HETATM    7  N   UNL     1      42.194 -12.448   2.241  1.00  0.00    -0.353 N 
HETATM    8  C   UNL     1      41.495 -12.940   1.167  1.00  0.00     0.249 C 
HETATM    9  O   UNL     1      41.409 -12.284   0.135  1.00  0.00    -0.271 OA
HETATM   10  C   UNL     1      41.637 -15.068   5.006  1.00  0.00     0.035 C 
HETATM   11  C   UNL     1      40.528 -14.319   5.740  1.00  0.00     0.002 C 
HETATM   12  C   UNL     1      40.793 -12.818   5.769  1.00  0.00     0.002 C 
HETATM   13  C   UNL     1      40.989 -12.252   4.366  1.00  0.00     0.027 C 
HETATM   14  H   UNL     1      42.536 -11.498   2.109  1.00  0.00     0.163 HD
ENDROOT
BRANCH   1  15
HETATM   15  C   UNL     1      41.858 -15.289   0.423  1.00  0.00     0.146 C 
BRANCH  15  16
HETATM   16  C   UNL     1      41.985 -16.670   1.019  1.00  0.00     0.224 C 
HETATM   17  N   UNL     1      43.262 -17.001   1.405  1.00  0.00    -0.327 N 
HETATM   18  H   UNL     1      44.032 -16.437   1.063  1.00  0.00     0.169 HD
HETATM   19  O   UNL     1      40.971 -17.357   1.148  1.00  0.00    -0.273 OA
BRANCH  17  20
HETATM   20  C   UNL     1      43.645 -18.129   2.166  1.00  0.00     0.035 A 
HETATM   21  C   UNL     1      43.764 -19.416   1.633  1.00  0.00     0.036 A 
HETATM   22  C   UNL     1      44.093 -20.506   2.455  1.00  0.00    -0.060 A 
HETATM   23  C   UNL     1      44.209 -21.887   1.877  1.00  0.00     0.048 C 
HETATM   24  C   UNL     1      44.351 -20.288   3.811  1.00  0.00     0.007 A 
HETATM   25  C   UNL     1      44.237 -19.008   4.349  1.00  0.00     0.003 A 
HETATM   26  C   UNL     1      43.872 -17.936   3.533  1.00  0.00     0.029 A 
ENDBRANCH  17  20
ENDBRANCH  15  16
ENDBRANCH   1  15
TORSDOF 3
ENDMDL
MODEL 10
REMARK VINA RESULT:      -7.5      2.062      2.772
REMARK  3 active torsions:
REMARK  status: ('A' for Active; 'I' for Inactive)
REMARK    1  A    between atoms: C_4  and  N_5 
REMARK       I    between atoms: N_5  and  C_6 
REMARK    2  A    between atoms: C_6  and  C_7 
REMARK    3  A    between atoms: C_7  and  C_8 
ROOT
HETATM    1  C   UNL     1      41.713 -14.724   4.468  1.00  0.00     0.286 C 
HETATM    2  N   UNL     1      41.580 -13.219   4.260  1.00  0.00    -0.056 N 
HETATM    3  H   UNL     1      42.050 -12.741   5.038  1.00  0.00     0.278 HD
HETATM    4  H   UNL     1      42.136 -12.970   3.412  1.00  0.00     0.278 HD
HETATM    5  C   UNL     1      40.168 -12.728   4.095  1.00  0.00     0.209 C 
HETATM    6  C   UNL     1      39.355 -13.149   5.343  1.00  0.00     0.115 C 
HETATM    7  N   UNL     1      39.510 -14.574   5.635  1.00  0.00    -0.353 N 
HETATM    8  C   UNL     1      40.666 -15.290   5.445  1.00  0.00     0.249 C 
HETATM    9  O   UNL     1      40.799 -16.393   5.963  1.00  0.00    -0.271 OA
HETATM   10  C   UNL     1      40.186 -11.215   3.878  1.00  0.00     0.035 C 
HETATM   11  C   UNL     1      40.549 -10.428   5.135  1.00  0.00     0.002 C 
HETATM   12  C   UNL     1      39.669 -10.824   6.315  1.00  0.00     0.002 C 
HETATM   13  C   UNL     1      39.728 -12.325   6.584  1.00  0.00     0.027 C 
HETATM   14  H   UNL     1      38.857 -15.009   6.284  1.00  0.00     0.163 HD
ENDROOT
BRANCH   1  15
HETATM   15  C   UNL     1      41.622 -15.518   3.157  1.00  0.00     0.146 C 
BRANCH  15  16
HETATM   16  C   UNL     1      42.752 -16.507   3.007  1.00  0.00     0.224 C 
HETATM   17  N   UNL     1      42.572 -17.677   3.704  1.00  0.00    -0.327 N 
HETATM   18  H   UNL     1      41.860 -17.706   4.426  1.00  0.00     0.169 HD
HETATM   19  O   UNL     1      43.696 -16.222   2.268  1.00  0.00    -0.273 OA
BRANCH  17  20
HETATM   20  C   UNL     1      43.354 -18.850   3.595  1.00  0.00     0.035 A 
HETATM   21  C   UNL     1      43.291 -19.722   2.504  1.00  0.00     0.036 A 
HETATM   22  C   UNL     1      44.052 -20.901   2.483  1.00  0.00    -0.060 A 
HETATM   23  C   UNL     1      43.972 -21.838   1.311  1.00  0.00     0.048 C 
HETATM   24  C   UNL     1      44.918 -21.178   3.545  1.00  0.00     0.007 A 
HETATM   25  C   UNL     1      44.988 -20.313   4.635  1.00  0.00     0.003 A 
HETATM   26  C   UNL     1      44.199 -19.161   4.666  1.00  0.00     0.029 A 
ENDBRANCH  17  20
ENDBRANCH  15  16
ENDBRANCH   1  15
TORSDOF 3
ENDMDL
