MODEL 1
REMARK VINA RESULT:      -8.4      0.000      0.000
REMARK  2 active torsions:
REMARK  status: ('A' for Active; 'I' for Inactive)
REMARK    1  A    between atoms: C_6  and  O_7 
REMARK    2  A    between atoms: C_6  and  C_8 
ROOT
HETATM    1  C   UNL     1      42.090 -12.531   6.160  1.00  0.00     0.048 C 
HETATM    2  C   UNL     1      42.259 -13.813   5.396  1.00  0.00    -0.059 A 
HETATM    3  C   UNL     1      43.144 -13.892   4.317  1.00  0.00     0.037 A 
HETATM    4  C   UNL     1      43.254 -15.102   3.660  1.00  0.00     0.046 A 
HETATM    5  C   UNL     1      42.531 -16.244   4.033  1.00  0.00     0.023 A 
HETATM    6  C   UNL     1      42.890 -17.378   3.089  1.00  0.00     0.199 A 
HETATM    7  C   UNL     1      43.846 -16.649   2.078  1.00  0.00     0.266 A 
HETATM    8  O   UNL     1      44.309 -17.098   1.039  1.00  0.00    -0.269 OA
HETATM    9  N   UNL     1      44.033 -15.351   2.540  1.00  0.00    -0.323 N 
HETATM   10  C   UNL     1      41.617 -16.173   5.084  1.00  0.00    -0.049 A 
HETATM   11  C   UNL     1      40.800 -17.347   5.536  1.00  0.00     0.049 C 
HETATM   12  C   UNL     1      41.510 -14.949   5.773  1.00  0.00     0.014 A 
HETATM   13  H   UNL     1      44.591 -14.671   2.047  1.00  0.00     0.169 HD
ENDROOT
BRANCH   6  14
HETATM   14  O   UNL     1      41.707 -17.856   2.469  1.00  0.00    -0.371 OA
HETATM   15  H   UNL     1      41.874 -18.793   2.277  1.00  0.00     0.212 HD
ENDBRANCH   6  14
BRANCH   6  16
HETATM   16  C   UNL     1      43.644 -18.458   3.845  1.00  0.00     0.018 A 
HETATM   17  C   UNL     1      43.901 -19.799   3.363  1.00  0.00     0.002 A 
HETATM   18  C   UNL     1      44.574 -20.496   4.369  1.00  0.00     0.043 A 
HETATM   19  C   UNL     1      43.628 -20.489   2.160  1.00  0.00     0.014 A 
HETATM   20  C   UNL     1      44.948 -21.840   4.252  1.00  0.00     0.030 A 
HETATM   21  N   UNL     1      44.771 -19.618   5.405  1.00  0.00    -0.365 N 
HETATM   22  C   UNL     1      44.641 -22.499   3.060  1.00  0.00     0.002 A 
HETATM   23  C   UNL     1      43.998 -21.833   2.023  1.00  0.00     0.001 A 
HETATM   24  H   UNL     1      45.249 -19.846   6.266  1.00  0.00     0.165 HD
HETATM   25  C   UNL     1      44.246 -18.395   5.095  1.00  0.00     0.100 A 
ENDBRANCH   6  16
TORSDOF 2
ENDMDL
MODEL 2
REMARK VINA RESULT:      -8.2      1.070      1.140
REMARK  2 active torsions:
REMARK  status: ('A' for Active; 'I' for Inactive)
REMARK    1  A    between atoms: C_6  and  O_7 
REMARK    2  A    between atoms: C_6  and  C_8 
ROOT
HETATM    1  C   UNL     1      41.556 -11.742   6.205  1.00  0.00     0.048 C 
HETATM    2  C   UNL     1      41.639 -13.054   5.480  1.00  0.00    -0.059 A 
HETATM    3  C   UNL     1      42.201 -13.133   4.202  1.00  0.00     0.037 A 
HETATM    4  C   UNL     1      42.249 -14.372   3.594  1.00  0.00     0.046 A 
HETATM    5  C   UNL     1      41.774 -15.543   4.201  1.00  0.00     0.023 A 
HETATM    6  C   UNL     1      41.975 -16.705   3.246  1.00  0.00     0.199 A 
HETATM    7  C   UNL     1      42.541 -15.969   1.979  1.00  0.00     0.266 A 
HETATM    8  O   UNL     1      42.747 -16.448   0.873  1.00  0.00    -0.269 OA
HETATM    9  N   UNL     1      42.715 -14.631   2.313  1.00  0.00    -0.323 N 
HETATM   10  C   UNL     1      41.178 -15.477   5.461  1.00  0.00    -0.049 A 
HETATM   11  C   UNL     1      40.638 -16.682   6.172  1.00  0.00     0.049 C 
HETATM   12  C   UNL     1      41.140 -14.221   6.098  1.00  0.00     0.014 A 
HETATM   13  H   UNL     1      43.046 -13.942   1.656  1.00  0.00     0.169 HD
ENDROOT
BRANCH   6  14
HETATM   14  O   UNL     1      40.722 -17.324   2.999  1.00  0.00    -0.371 OA
HETATM   15  H   UNL     1      40.077 -16.822   3.522  1.00  0.00     0.212 HD
ENDBRANCH   6  14
BRANCH   6  16
HETATM   16  C   UNL     1      43.011 -17.662   3.809  1.00  0.00     0.018 A 
HETATM   17  C   UNL     1      43.380 -18.937   3.232  1.00  0.00     0.002 A 
HETATM   18  C   UNL     1      44.324 -19.532   4.072  1.00  0.00     0.043 A 
HETATM   19  C   UNL     1      43.002 -19.645   2.068  1.00  0.00     0.014 A 
HETATM   20  C   UNL     1      44.872 -20.798   3.834  1.00  0.00     0.030 A 
HETATM   21  N   UNL     1      44.569 -18.649   5.093  1.00  0.00    -0.365 N 
HETATM   22  C   UNL     1      44.460 -21.481   2.688  1.00  0.00     0.002 A 
HETATM   23  C   UNL     1      43.544 -20.911   1.811  1.00  0.00     0.001 A 
HETATM   24  H   UNL     1      45.224 -18.811   5.845  1.00  0.00     0.165 HD
HETATM   25  C   UNL     1      43.814 -17.521   4.934  1.00  0.00     0.100 A 
ENDBRANCH   6  16
TORSDOF 2
ENDMDL
MODEL 3
REMARK VINA RESULT:      -8.2      2.416      3.672
REMARK  2 active torsions:
REMARK  status: ('A' for Active; 'I' for Inactive)
REMARK    1  A    between atoms: C_6  and  O_7 
REMARK    2  A    between atoms: C_6  and  C_8 
ROOT
HETATM    1  C   UNL     1      38.878 -11.473   4.166  1.00  0.00     0.048 C 
HETATM    2  C   UNL     1      39.792 -12.652   4.345  1.00  0.00    -0.059 A 
HETATM    3  C   UNL     1      39.456 -13.691   5.217  1.00  0.00     0.037 A 
HETATM    4  C   UNL     1      40.340 -14.747   5.331  1.00  0.00     0.046 A 
HETATM    5  C   UNL     1      41.538 -14.825   4.609  1.00  0.00     0.023 A 
HETATM    6  C   UNL     1      42.257 -16.106   4.991  1.00  0.00     0.199 A 
HETATM    7  C   UNL     1      41.312 -16.668   6.113  1.00  0.00     0.266 A 
HETATM    8  O   UNL     1      41.516 -17.628   6.843  1.00  0.00    -0.269 OA
HETATM    9  N   UNL     1      40.203 -15.832   6.184  1.00  0.00    -0.323 N 
HETATM   10  C   UNL     1      41.905 -13.779   3.761  1.00  0.00    -0.049 A 
HETATM   11  C   UNL     1      43.175 -13.783   2.962  1.00  0.00     0.049 C 
HETATM   12  C   UNL     1      41.004 -12.706   3.623  1.00  0.00     0.014 A 
HETATM   13  H   UNL     1      39.458 -15.968   6.850  1.00  0.00     0.169 HD
ENDROOT
BRANCH   6  14
HETATM   14  O   UNL     1      43.549 -15.784   5.482  1.00  0.00    -0.371 OA
HETATM   15  H   UNL     1      43.588 -14.814   5.493  1.00  0.00     0.212 HD
ENDBRANCH   6  14
BRANCH   6  16
HETATM   16  C   UNL     1      42.291 -17.052   3.804  1.00  0.00     0.018 A 
HETATM   17  C   UNL     1      43.106 -18.243   3.700  1.00  0.00     0.002 A 
HETATM   18  C   UNL     1      42.888 -18.805   2.440  1.00  0.00     0.043 A 
HETATM   19  C   UNL     1      44.013 -18.902   4.562  1.00  0.00     0.014 A 
HETATM   20  C   UNL     1      43.549 -19.954   1.988  1.00  0.00     0.030 A 
HETATM   21  N   UNL     1      41.945 -18.032   1.811  1.00  0.00    -0.365 N 
HETATM   22  C   UNL     1      44.456 -20.567   2.855  1.00  0.00     0.002 A 
HETATM   23  C   UNL     1      44.680 -20.055   4.129  1.00  0.00     0.001 A 
HETATM   24  H   UNL     1      41.581 -18.213   0.886  1.00  0.00     0.165 HD
HETATM   25  C   UNL     1      41.561 -17.002   2.622  1.00  0.00     0.100 A 
ENDBRANCH   6  16
TORSDOF 2
ENDMDL
MODEL 4
REMARK VINA RESULT:      -8.2      1.753      6.473
REMARK  2 active torsions:
REMARK  status: ('A' for Active; 'I' for Inactive)
REMARK    1  A    between atoms: C_6  and  O_7 
REMARK    2  A    between atoms: C_6  and  C_8 
ROOT
HETATM    1  C   UNL     1      44.963 -21.359   2.107  1.00  0.00     0.048 C 
HETATM    2  C   UNL     1      44.150 -20.279   2.762  1.00  0.00    -0.059 A 
HETATM    3  C   UNL     1      44.298 -19.997   4.124  1.00  0.00     0.037 A 
HETATM    4  C   UNL     1      43.523 -18.989   4.661  1.00  0.00     0.046 A 
HETATM    5  C   UNL     1      42.612 -18.237   3.906  1.00  0.00     0.023 A 
HETATM    6  C   UNL     1      41.931 -17.234   4.819  1.00  0.00     0.199 A 
HETATM    7  C   UNL     1      42.539 -17.623   6.214  1.00  0.00     0.266 A 
HETATM    8  O   UNL     1      42.212 -17.194   7.312  1.00  0.00    -0.269 OA
HETATM    9  N   UNL     1      43.492 -18.610   5.996  1.00  0.00    -0.323 N 
HETATM   10  C   UNL     1      42.425 -18.529   2.555  1.00  0.00    -0.049 A 
HETATM   11  C   UNL     1      41.464 -17.778   1.683  1.00  0.00     0.049 C 
HETATM   12  C   UNL     1      43.224 -19.543   1.991  1.00  0.00     0.014 A 
HETATM   13  H   UNL     1      44.010 -19.046   6.743  1.00  0.00     0.169 HD
ENDROOT
BRANCH   6  14
HETATM   14  O   UNL     1      40.527 -17.434   4.764  1.00  0.00    -0.371 OA
HETATM   15  H   UNL     1      40.399 -18.221   4.210  1.00  0.00     0.212 HD
ENDBRANCH   6  14
BRANCH   6  16
HETATM   16  C   UNL     1      42.346 -15.824   4.436  1.00  0.00     0.018 A 
HETATM   17  C   UNL     1      41.666 -14.609   4.832  1.00  0.00     0.002 A 
HETATM   18  C   UNL     1      42.326 -13.532   4.236  1.00  0.00     0.043 A 
HETATM   19  C   UNL     1      40.548 -14.321   5.647  1.00  0.00     0.014 A 
HETATM   20  C   UNL     1      41.908 -12.204   4.378  1.00  0.00     0.030 A 
HETATM   21  N   UNL     1      43.394 -14.046   3.545  1.00  0.00    -0.365 N 
HETATM   22  C   UNL     1      40.786 -11.955   5.170  1.00  0.00     0.002 A 
HETATM   23  C   UNL     1      40.118 -12.996   5.805  1.00  0.00     0.001 A 
HETATM   24  H   UNL     1      44.060 -13.492   3.026  1.00  0.00     0.165 HD
HETATM   25  C   UNL     1      43.434 -15.406   3.678  1.00  0.00     0.100 A 
ENDBRANCH   6  16
TORSDOF 2
ENDMDL
MODEL 5
REMARK VINA RESULT:      -7.8      1.963      6.194
REMARK  2 active torsions:
REMARK  status: ('A' for Active; 'I' for Inactive)
REMARK    1  A    between atoms: C_6  and  O_7 
REMARK    2  A    between atoms: C_6  and  C_8 
ROOT
HETATM    1  C   UNL     1      44.280 -21.771   2.523  1.00  0.00     0.048 C 
HETATM    2  C   UNL     1      43.939 -20.321   2.714  1.00  0.00    -0.059 A 
HETATM    3  C   UNL     1      43.246 -19.612   1.728  1.00  0.00     0.037 A 
HETATM    4  C   UNL     1      42.960 -18.283   1.971  1.00  0.00     0.046 A 
HETATM    5  C   UNL     1      43.322 -17.625   3.154  1.00  0.00     0.023 A 
HETATM    6  C   UNL     1      42.862 -16.181   3.070  1.00  0.00     0.199 A 
HETATM    7  C   UNL     1      42.282 -16.125   1.611  1.00  0.00     0.266 A 
HETATM    8  O   UNL     1      41.900 -15.136   1.002  1.00  0.00    -0.269 OA
HETATM    9  N   UNL     1      42.336 -17.412   1.089  1.00  0.00    -0.323 N 
HETATM   10  C   UNL     1      44.044 -18.307   4.133  1.00  0.00    -0.049 A 
HETATM   11  C   UNL     1      44.476 -17.671   5.421  1.00  0.00     0.049 C 
HETATM   12  C   UNL     1      44.325 -19.669   3.905  1.00  0.00     0.014 A 
HETATM   13  H   UNL     1      42.042 -17.634   0.151  1.00  0.00     0.169 HD
ENDROOT
BRANCH   6  14
HETATM   14  O   UNL     1      43.982 -15.327   3.242  1.00  0.00    -0.371 OA
HETATM   15  H   UNL     1      43.669 -14.438   3.010  1.00  0.00     0.212 HD
ENDBRANCH   6  14
BRANCH   6  16
HETATM   16  C   UNL     1      41.762 -15.930   4.087  1.00  0.00     0.018 A 
HETATM   17  C   UNL     1      41.219 -14.635   4.438  1.00  0.00     0.002 A 
HETATM   18  C   UNL     1      40.268 -14.825   5.442  1.00  0.00     0.043 A 
HETATM   19  C   UNL     1      41.446 -13.312   3.993  1.00  0.00     0.014 A 
HETATM   20  C   UNL     1      39.568 -13.772   6.044  1.00  0.00     0.030 A 
HETATM   21  N   UNL     1      40.184 -16.175   5.668  1.00  0.00    -0.365 N 
HETATM   22  C   UNL     1      39.833 -12.476   5.599  1.00  0.00     0.002 A 
HETATM   23  C   UNL     1      40.752 -12.247   4.581  1.00  0.00     0.001 A 
HETATM   24  H   UNL     1      39.561 -16.606   6.337  1.00  0.00     0.165 HD
HETATM   25  C   UNL     1      41.048 -16.846   4.850  1.00  0.00     0.100 A 
ENDBRANCH   6  16
TORSDOF 2
ENDMDL
MODEL 6
REMARK VINA RESULT:      -7.7      3.740      6.302
REMARK  2 active torsions:
REMARK  status: ('A' for Active; 'I' for Inactive)
REMARK    1  A    between atoms: C_6  and  O_7 
REMARK    2  A    between atoms: C_6  and  C_8 
ROOT
HETATM    1  C   UNL     1      43.671 -16.791   6.374  1.00  0.00     0.048 C 
HETATM    2  C   UNL     1      42.966 -16.562   5.067  1.00  0.00    -0.059 A 
HETATM    3  C   UNL     1      41.671 -16.036   5.034  1.00  0.00     0.037 A 
HETATM    4  C   UNL     1      41.084 -15.847   3.798  1.00  0.00     0.046 A 
HETATM    5  C   UNL     1      41.728 -16.147   2.590  1.00  0.00     0.023 A 
HETATM    6  C   UNL     1      40.787 -15.828   1.442  1.00  0.00     0.199 A 
HETATM    7  C   UNL     1      39.488 -15.403   2.216  1.00  0.00     0.266 A 
HETATM    8  O   UNL     1      38.384 -15.173   1.744  1.00  0.00    -0.269 OA
HETATM    9  N   UNL     1      39.793 -15.394   3.573  1.00  0.00    -0.323 N 
HETATM   10  C   UNL     1      43.006 -16.705   2.606  1.00  0.00    -0.049 A 
HETATM   11  C   UNL     1      43.758 -17.061   1.357  1.00  0.00     0.049 C 
HETATM   12  C   UNL     1      43.622 -16.885   3.860  1.00  0.00     0.014 A 
HETATM   13  H   UNL     1      39.112 -15.175   4.284  1.00  0.00     0.169 HD
ENDROOT
BRANCH   6  14
HETATM   14  O   UNL     1      40.595 -16.997   0.661  1.00  0.00    -0.371 OA
HETATM   15  H   UNL     1      41.264 -17.629   0.971  1.00  0.00     0.212 HD
ENDBRANCH   6  14
BRANCH   6  16
HETATM   16  C   UNL     1      41.331 -14.659   0.639  1.00  0.00     0.018 A 
HETATM   17  C   UNL     1      41.337 -14.560  -0.805  1.00  0.00     0.002 A 
HETATM   18  C   UNL     1      41.966 -13.363  -1.152  1.00  0.00     0.043 A 
HETATM   19  C   UNL     1      40.863 -15.379  -1.856  1.00  0.00     0.014 A 
HETATM   20  C   UNL     1      42.178 -12.964  -2.477  1.00  0.00     0.030 A 
HETATM   21  N   UNL     1      42.288 -12.723   0.018  1.00  0.00    -0.365 N 
HETATM   22  C   UNL     1      41.719 -13.806  -3.492  1.00  0.00     0.002 A 
HETATM   23  C   UNL     1      41.063 -14.994  -3.188  1.00  0.00     0.001 A 
HETATM   24  H   UNL     1      42.742 -11.822   0.072  1.00  0.00     0.165 HD
HETATM   25  C   UNL     1      41.891 -13.471   1.091  1.00  0.00     0.100 A 
ENDBRANCH   6  16
TORSDOF 2
ENDMDL
MODEL 7
REMARK VINA RESULT:      -7.5      2.912      7.072
REMARK  2 active torsions:
REMARK  status: ('A' for Active; 'I' for Inactive)
REMARK    1  A    between atoms: C_6  and  O_7 
REMARK    2  A    between atoms: C_6  and  C_8 
ROOT
HETATM    1  C   UNL     1      44.071 -19.344   2.103  1.00  0.00     0.048 C 
HETATM    2  C   UNL     1      43.225 -18.112   2.255  1.00  0.00    -0.059 A 
HETATM    3  C   UNL     1      41.858 -18.141   1.965  1.00  0.00     0.037 A 
HETATM    4  C   UNL     1      41.139 -16.974   2.130  1.00  0.00     0.046 A 
HETATM    5  C   UNL     1      41.713 -15.778   2.582  1.00  0.00     0.023 A 
HETATM    6  C   UNL     1      40.637 -14.707   2.630  1.00  0.00     0.199 A 
HETATM    7  C   UNL     1      39.405 -15.480   2.036  1.00  0.00     0.266 A 
HETATM    8  O   UNL     1      38.313 -15.018   1.739  1.00  0.00    -0.269 OA
HETATM    9  N   UNL     1      39.794 -16.800   1.838  1.00  0.00    -0.323 N 
HETATM   10  C   UNL     1      43.082 -15.721   2.842  1.00  0.00    -0.049 A 
HETATM   11  C   UNL     1      43.772 -14.478   3.319  1.00  0.00     0.049 C 
HETATM   12  C   UNL     1      43.822 -16.910   2.694  1.00  0.00     0.014 A 
HETATM   13  H   UNL     1      39.183 -17.495   1.439  1.00  0.00     0.169 HD
ENDROOT
BRANCH   6  14
HETATM   14  O   UNL     1      41.035 -13.613   1.818  1.00  0.00    -0.371 OA
HETATM   15  H   UNL     1      40.243 -13.361   1.317  1.00  0.00     0.212 HD
ENDBRANCH   6  14
BRANCH   6  16
HETATM   16  C   UNL     1      40.368 -14.311   4.071  1.00  0.00     0.018 A 
HETATM   17  C   UNL     1      40.020 -12.983   4.528  1.00  0.00     0.002 A 
HETATM   18  C   UNL     1      39.907 -13.022   5.920  1.00  0.00     0.043 A 
HETATM   19  C   UNL     1      39.786 -11.744   3.887  1.00  0.00     0.014 A 
HETATM   20  C   UNL     1      39.615 -11.895   6.697  1.00  0.00     0.030 A 
HETATM   21  N   UNL     1      40.123 -14.321   6.305  1.00  0.00    -0.365 N 
HETATM   22  C   UNL     1      39.413 -10.682   6.035  1.00  0.00     0.002 A 
HETATM   23  C   UNL     1      39.488 -10.607   4.649  1.00  0.00     0.001 A 
HETATM   24  H   UNL     1      40.088 -14.648   7.260  1.00  0.00     0.165 HD
HETATM   25  C   UNL     1      40.372 -15.103   5.213  1.00  0.00     0.100 A 
ENDBRANCH   6  16
TORSDOF 2
ENDMDL
MODEL 8
REMARK VINA RESULT:      -7.5      2.740      4.052
REMARK  2 active torsions:
REMARK  status: ('A' for Active; 'I' for Inactive)
REMARK    1  A    between atoms: C_6  and  O_7 
REMARK    2  A    between atoms: C_6  and  C_8 
ROOT
HETATM    1  C   UNL     1      38.416 -10.871   4.283  1.00  0.00     0.048 C 
HETATM    2  C   UNL     1      39.642 -11.739   4.279  1.00  0.00    -0.059 A 
HETATM    3  C   UNL     1      40.419 -11.887   5.432  1.00  0.00     0.037 A 
HETATM    4  C   UNL     1      41.531 -12.703   5.360  1.00  0.00     0.046 A 
HETATM    5  C   UNL     1      41.903 -13.390   4.197  1.00  0.00     0.023 A 
HETATM    6  C   UNL     1      43.173 -14.173   4.477  1.00  0.00     0.199 A 
HETATM    7  C   UNL     1      43.494 -13.726   5.948  1.00  0.00     0.266 A 
HETATM    8  O   UNL     1      44.499 -13.977   6.598  1.00  0.00    -0.269 OA
HETATM    9  N   UNL     1      42.446 -12.921   6.380  1.00  0.00    -0.323 N 
HETATM   10  C   UNL     1      41.160 -13.226   3.028  1.00  0.00    -0.049 A 
HETATM   11  C   UNL     1      41.499 -13.918   1.741  1.00  0.00     0.049 C 
HETATM   12  C   UNL     1      40.013 -12.411   3.094  1.00  0.00     0.014 A 
HETATM   13  H   UNL     1      42.429 -12.487   7.290  1.00  0.00     0.169 HD
ENDROOT
BRANCH   6  14
HETATM   14  O   UNL     1      44.177 -13.774   3.557  1.00  0.00    -0.371 OA
HETATM   15  H   UNL     1      44.920 -14.380   3.705  1.00  0.00     0.212 HD
ENDBRANCH   6  14
BRANCH   6  16
HETATM   16  C   UNL     1      42.880 -15.663   4.429  1.00  0.00     0.018 A 
HETATM   17  C   UNL     1      43.252 -16.560   3.355  1.00  0.00     0.002 A 
HETATM   18  C   UNL     1      42.759 -17.829   3.665  1.00  0.00     0.043 A 
HETATM   19  C   UNL     1      43.966 -16.412   2.144  1.00  0.00     0.014 A 
HETATM   20  C   UNL     1      42.907 -18.936   2.820  1.00  0.00     0.030 A 
HETATM   21  N   UNL     1      42.156 -17.739   4.894  1.00  0.00    -0.365 N 
HETATM   22  C   UNL     1      43.597 -18.751   1.620  1.00  0.00     0.002 A 
HETATM   23  C   UNL     1      44.128 -17.510   1.289  1.00  0.00     0.001 A 
HETATM   24  H   UNL     1      41.722 -18.513   5.377  1.00  0.00     0.165 HD
HETATM   25  C   UNL     1      42.245 -16.462   5.372  1.00  0.00     0.100 A 
ENDBRANCH   6  16
TORSDOF 2
ENDMDL
MODEL 9
REMARK VINA RESULT:      -7.3      3.491      6.428
REMARK  2 active torsions:
REMARK  status: ('A' for Active; 'I' for Inactive)
REMARK    1  A    between atoms: C_6  and  O_7 
REMARK    2  A    between atoms: C_6  and  C_8 
ROOT
HETATM    1  C   UNL     1      43.828 -15.595   6.218  1.00  0.00     0.048 C 
HETATM    2  C   UNL     1      43.025 -15.760   4.959  1.00  0.00    -0.059 A 
HETATM    3  C   UNL     1      41.757 -15.184   4.838  1.00  0.00     0.037 A 
HETATM    4  C   UNL     1      41.075 -15.371   3.651  1.00  0.00     0.046 A 
HETATM    5  C   UNL     1      41.598 -16.097   2.573  1.00  0.00     0.023 A 
HETATM    6  C   UNL     1      40.577 -16.108   1.450  1.00  0.00     0.199 A 
HETATM    7  C   UNL     1      39.370 -15.360   2.122  1.00  0.00     0.266 A 
HETATM    8  O   UNL     1      38.241 -15.220   1.673  1.00  0.00    -0.269 OA
HETATM    9  N   UNL     1      39.790 -14.926   3.373  1.00  0.00    -0.323 N 
HETATM   10  C   UNL     1      42.846 -16.709   2.690  1.00  0.00    -0.049 A 
HETATM   11  C   UNL     1      43.471 -17.509   1.586  1.00  0.00     0.049 C 
HETATM   12  C   UNL     1      43.559 -16.509   3.888  1.00  0.00     0.014 A 
HETATM   13  H   UNL     1      39.185 -14.438   4.015  1.00  0.00     0.169 HD
ENDROOT
BRANCH   6  14
HETATM   14  O   UNL     1      40.266 -17.452   1.119  1.00  0.00    -0.371 OA
HETATM   15  H   UNL     1      41.112 -17.862   0.877  1.00  0.00     0.212 HD
ENDBRANCH   6  14
BRANCH   6  16
HETATM   16  C   UNL     1      41.102 -15.311   0.268  1.00  0.00     0.018 A 
HETATM   17  C   UNL     1      41.503 -13.920   0.302  1.00  0.00     0.002 A 
HETATM   18  C   UNL     1      41.874 -13.548  -0.992  1.00  0.00     0.043 A 
HETATM   19  C   UNL     1      41.587 -12.938   1.316  1.00  0.00     0.014 A 
HETATM   20  C   UNL     1      42.283 -12.252  -1.329  1.00  0.00     0.030 A 
HETATM   21  N   UNL     1      41.760 -14.664  -1.781  1.00  0.00    -0.365 N 
HETATM   22  C   UNL     1      42.333 -11.299  -0.309  1.00  0.00     0.002 A 
HETATM   23  C   UNL     1      41.999 -11.637   0.998  1.00  0.00     0.001 A 
HETATM   24  H   UNL     1      41.979 -14.693  -2.767  1.00  0.00     0.165 HD
HETATM   25  C   UNL     1      41.328 -15.726  -1.038  1.00  0.00     0.100 A 
ENDBRANCH   6  16
TORSDOF 2
ENDMDL
MODEL 10
REMARK VINA RESULT:      -7.0      2.045      2.667
REMARK  2 active torsions:
REMARK  status: ('A' for Active; 'I' for Inactive)
REMARK    1  A    between atoms: C_6  and  O_7 
REMARK    2  A    between atoms: C_6  and  C_8 
ROOT
HETATM    1  C   UNL     1      45.100 -12.918   7.564  1.00  0.00     0.048 C 
HETATM    2  C   UNL     1      44.374 -14.051   6.896  1.00  0.00    -0.059 A 
HETATM    3  C   UNL     1      43.647 -13.841   5.720  1.00  0.00     0.037 A 
HETATM    4  C   UNL     1      43.007 -14.928   5.156  1.00  0.00     0.046 A 
HETATM    5  C   UNL     1      43.064 -16.218   5.700  1.00  0.00     0.023 A 
HETATM    6  C   UNL     1      42.240 -17.151   4.831  1.00  0.00     0.199 A 
HETATM    7  C   UNL     1      41.638 -16.148   3.783  1.00  0.00     0.266 A 
HETATM    8  O   UNL     1      40.791 -16.382   2.933  1.00  0.00    -0.269 OA
HETATM    9  N   UNL     1      42.197 -14.899   4.030  1.00  0.00    -0.323 N 
HETATM   10  C   UNL     1      43.756 -16.438   6.891  1.00  0.00    -0.049 A 
HETATM   11  C   UNL     1      43.856 -17.786   7.540  1.00  0.00     0.049 C 
HETATM   12  C   UNL     1      44.428 -15.341   7.465  1.00  0.00     0.014 A 
HETATM   13  H   UNL     1      41.950 -14.076   3.503  1.00  0.00     0.169 HD
ENDROOT
BRANCH   6  14
HETATM   14  O   UNL     1      41.241 -17.766   5.630  1.00  0.00    -0.371 OA
HETATM   15  H   UNL     1      40.746 -18.344   5.027  1.00  0.00     0.212 HD
ENDBRANCH   6  14
BRANCH   6  16
HETATM   16  C   UNL     1      43.151 -18.153   4.142  1.00  0.00     0.018 A 
HETATM   17  C   UNL     1      43.610 -19.402   4.710  1.00  0.00     0.002 A 
HETATM   18  C   UNL     1      44.466 -20.006   3.787  1.00  0.00     0.043 A 
HETATM   19  C   UNL     1      43.377 -20.082   5.928  1.00  0.00     0.014 A 
HETATM   20  C   UNL     1      45.122 -21.219   4.029  1.00  0.00     0.030 A 
HETATM   21  N   UNL     1      44.496 -19.199   2.678  1.00  0.00    -0.365 N 
HETATM   22  C   UNL     1      44.889 -21.853   5.251  1.00  0.00     0.002 A 
HETATM   23  C   UNL     1      44.022 -21.299   6.186  1.00  0.00     0.001 A 
HETATM   24  H   UNL     1      45.026 -19.397   1.840  1.00  0.00     0.165 HD
HETATM   25  C   UNL     1      43.697 -18.107   2.866  1.00  0.00     0.100 A 
ENDBRANCH   6  16
TORSDOF 2
ENDMDL
