MODEL 1
REMARK VINA RESULT:      -8.5      0.000      0.000
REMARK  9 active torsions:
REMARK  status: ('A' for Active; 'I' for Inactive)
REMARK    1  A    between atoms: C_2  and  O_3 
REMARK    2  A    between atoms: O_3  and  C_4 
REMARK    3  A    between atoms: C_5  and  O_6 
REMARK    4  A    between atoms: C_9  and  C_10 
REMARK    5  A    between atoms: C_10  and  N_11 
REMARK    6  A    between atoms: C_13  and  C_14 
REMARK       I    between atoms: C_14  and  N_15 
REMARK    7  A    between atoms: N_15  and  C_16 
REMARK    8  A    between atoms: C_28  and  S_29 
REMARK    9  A    between atoms: S_29  and  C_30 
ROOT
HETATM    1  N   UNL     1      41.080 -11.999   3.959  1.00  0.00    -0.053 N 
HETATM    2  H   UNL     1      41.482 -11.675   3.069  1.00  0.00     0.281 HD
HETATM    3  C   UNL     1      42.282 -12.392   4.832  1.00  0.00     0.281 C 
HETATM    4  C   UNL     1      41.761 -12.237   6.247  1.00  0.00     0.060 C 
HETATM    5  C   UNL     1      40.774 -11.062   6.182  1.00  0.00     0.082 C 
HETATM    6  C   UNL     1      40.480 -10.820   4.690  1.00  0.00     0.252 C 
ENDROOT
BRANCH   3   7
HETATM    7  C   UNL     1      42.970 -13.705   4.425  1.00  0.00     0.253 C 
HETATM    8  N   UNL     1      42.478 -14.852   5.018  1.00  0.00    -0.325 N 
HETATM    9  H   UNL     1      41.636 -14.799   5.579  1.00  0.00     0.169 HD
HETATM   10  O   UNL     1      43.937 -13.646   3.670  1.00  0.00    -0.271 OA
BRANCH   8  11
HETATM   11  C   UNL     1      43.059 -16.145   4.954  1.00  0.00     0.037 A 
HETATM   12  C   UNL     1      42.892 -17.021   3.875  1.00  0.00     0.062 A 
HETATM   13  C   UNL     1      43.546 -18.274   3.857  1.00  0.00     0.077 A 
HETATM   14  C   UNL     1      44.347 -18.632   4.939  1.00  0.00     0.035 A 
HETATM   15  N   UNL     1      43.478 -19.203   2.835  1.00  0.00    -0.245 NA
HETATM   16  S   UNL     1      45.012 -20.193   4.649  1.00  0.00    -0.073 SA
HETATM   17  C   UNL     1      44.519 -17.780   6.040  1.00  0.00     0.023 A 
HETATM   18  C   UNL     1      44.220 -20.250   3.127  1.00  0.00     0.072 A 
HETATM   19  C   UNL     1      44.381 -21.431   2.235  1.00  0.00     0.079 C 
HETATM   20  C   UNL     1      43.871 -16.535   6.023  1.00  0.00     0.031 A 
ENDBRANCH   8  11
ENDBRANCH   3   7
BRANCH   1  21
HETATM   21  C   UNL     1      40.077 -13.058   3.528  1.00  0.00     0.274 C 
BRANCH  21  22
HETATM   22  C   UNL     1      40.403 -13.856   2.293  1.00  0.00    -0.030 A 
HETATM   23  C   UNL     1      40.097 -15.229   2.242  1.00  0.00     0.012 A 
HETATM   24  C   UNL     1      40.402 -15.984   1.113  1.00  0.00     0.040 A 
HETATM   25  C   UNL     1      41.014 -15.370   0.032  1.00  0.00     0.099 A 
HETATM   26  C   UNL     1      41.329 -14.009   0.046  1.00  0.00     0.102 A 
HETATM   27  C   UNL     1      40.997 -13.248   1.169  1.00  0.00     0.048 A 
BRANCH  25  28
HETATM   28  O   UNL     1      41.306 -16.140  -1.060  1.00  0.00    -0.358 OA
HETATM   29  H   UNL     1      40.463 -16.557  -1.325  1.00  0.00     0.218 HD
ENDBRANCH  25  28
BRANCH  26  30
HETATM   30  O   UNL     1      41.942 -13.548  -1.087  1.00  0.00    -0.349 OA
BRANCH  30  31
HETATM   31  C   UNL     1      41.717 -12.183  -1.437  1.00  0.00     0.171 C 
HETATM   32  C   UNL     1      43.068 -11.495  -1.497  1.00  0.00     0.034 C 
ENDBRANCH  30  31
ENDBRANCH  26  30
ENDBRANCH  21  22
ENDBRANCH   1  21
BRANCH   5  33
HETATM   33  S   UNL     1      41.521  -9.582   6.962  1.00  0.00    -0.104 SA
BRANCH  33  34
HETATM   34  C   UNL     1      41.899 -10.229   8.584  1.00  0.00     0.093 A 
HETATM   35  N   UNL     1      43.196 -10.502   8.861  1.00  0.00    -0.254 NA
HETATM   36  C   UNL     1      43.466 -10.991  10.096  1.00  0.00     0.118 A 
HETATM   37  C   UNL     1      42.502 -11.242  11.056  1.00  0.00     0.019 A 
HETATM   38  C   UNL     1      41.177 -10.973  10.738  1.00  0.00     0.004 A 
HETATM   39  C   UNL     1      40.865 -10.455   9.484  1.00  0.00     0.039 A 
ENDBRANCH  33  34
ENDBRANCH   5  33
TORSDOF 9
ENDMDL
MODEL 2
REMARK VINA RESULT:      -8.4      1.168      1.737
REMARK  9 active torsions:
REMARK  status: ('A' for Active; 'I' for Inactive)
REMARK    1  A    between atoms: C_2  and  O_3 
REMARK    2  A    between atoms: O_3  and  C_4 
REMARK    3  A    between atoms: C_5  and  O_6 
REMARK    4  A    between atoms: C_9  and  C_10 
REMARK    5  A    between atoms: C_10  and  N_11 
REMARK    6  A    between atoms: C_13  and  C_14 
REMARK       I    between atoms: C_14  and  N_15 
REMARK    7  A    between atoms: N_15  and  C_16 
REMARK    8  A    between atoms: C_28  and  S_29 
REMARK    9  A    between atoms: S_29  and  C_30 
ROOT
HETATM    1  N   UNL     1      40.996 -12.122   4.365  1.00  0.00    -0.053 N 
HETATM    2  H   UNL     1      41.317 -11.794   3.444  1.00  0.00     0.281 HD
HETATM    3  C   UNL     1      42.274 -12.484   5.138  1.00  0.00     0.281 C 
HETATM    4  C   UNL     1      41.867 -12.334   6.590  1.00  0.00     0.060 C 
HETATM    5  C   UNL     1      40.853 -11.181   6.603  1.00  0.00     0.082 C 
HETATM    6  C   UNL     1      40.431 -10.954   5.139  1.00  0.00     0.252 C 
ENDROOT
BRANCH   3   7
HETATM    7  C   UNL     1      42.957 -13.783   4.680  1.00  0.00     0.253 C 
HETATM    8  N   UNL     1      42.510 -14.943   5.283  1.00  0.00    -0.325 N 
HETATM    9  H   UNL     1      41.697 -14.907   5.888  1.00  0.00     0.169 HD
HETATM   10  O   UNL     1      43.883 -13.703   3.877  1.00  0.00    -0.271 OA
BRANCH   8  11
HETATM   11  C   UNL     1      43.102 -16.228   5.173  1.00  0.00     0.037 A 
HETATM   12  C   UNL     1      42.933 -17.072   4.069  1.00  0.00     0.062 A 
HETATM   13  C   UNL     1      43.599 -18.317   4.006  1.00  0.00     0.077 A 
HETATM   14  C   UNL     1      44.414 -18.700   5.069  1.00  0.00     0.035 A 
HETATM   15  N   UNL     1      43.529 -19.216   2.957  1.00  0.00    -0.245 NA
HETATM   16  S   UNL     1      45.091 -20.245   4.724  1.00  0.00    -0.073 SA
HETATM   17  C   UNL     1      44.591 -17.881   6.193  1.00  0.00     0.023 A 
HETATM   18  C   UNL     1      44.283 -20.263   3.209  1.00  0.00     0.072 A 
HETATM   19  C   UNL     1      44.446 -21.414   2.280  1.00  0.00     0.079 C 
HETATM   20  C   UNL     1      43.930 -16.643   6.221  1.00  0.00     0.031 A 
ENDBRANCH   8  11
ENDBRANCH   3   7
BRANCH   1  21
HETATM   21  C   UNL     1      39.986 -13.206   4.021  1.00  0.00     0.274 C 
BRANCH  21  22
HETATM   22  C   UNL     1      39.855 -13.593   2.572  1.00  0.00    -0.030 A 
HETATM   23  C   UNL     1      38.735 -13.171   1.830  1.00  0.00     0.012 A 
HETATM   24  C   UNL     1      38.591 -13.530   0.493  1.00  0.00     0.040 A 
HETATM   25  C   UNL     1      39.565 -14.313  -0.107  1.00  0.00     0.099 A 
HETATM   26  C   UNL     1      40.690 -14.747   0.597  1.00  0.00     0.102 A 
HETATM   27  C   UNL     1      40.846 -14.362   1.931  1.00  0.00     0.048 A 
BRANCH  25  28
HETATM   28  O   UNL     1      39.392 -14.653  -1.420  1.00  0.00    -0.358 OA
HETATM   29  H   UNL     1      39.059 -15.572  -1.416  1.00  0.00     0.218 HD
ENDBRANCH  25  28
BRANCH  26  30
HETATM   30  O   UNL     1      41.557 -15.522  -0.124  1.00  0.00    -0.349 OA
BRANCH  30  31
HETATM   31  C   UNL     1      42.114 -16.659   0.535  1.00  0.00     0.171 C 
HETATM   32  C   UNL     1      40.967 -17.576   0.917  1.00  0.00     0.034 C 
ENDBRANCH  30  31
ENDBRANCH  26  30
ENDBRANCH  21  22
ENDBRANCH   1  21
BRANCH   5  33
HETATM   33  S   UNL     1      41.626  -9.681   7.315  1.00  0.00    -0.104 SA
BRANCH  33  34
HETATM   34  C   UNL     1      42.204 -10.327   8.878  1.00  0.00     0.093 A 
HETATM   35  N   UNL     1      43.522 -10.614   8.986  1.00  0.00    -0.254 NA
HETATM   36  C   UNL     1      43.945 -11.101  10.178  1.00  0.00     0.118 A 
HETATM   37  C   UNL     1      43.109 -11.339  11.255  1.00  0.00     0.019 A 
HETATM   38  C   UNL     1      41.758 -11.056  11.110  1.00  0.00     0.004 A 
HETATM   39  C   UNL     1      41.293 -10.539   9.904  1.00  0.00     0.039 A 
ENDBRANCH  33  34
ENDBRANCH   5  33
TORSDOF 9
ENDMDL
MODEL 3
REMARK VINA RESULT:      -8.4      1.788      2.169
REMARK  9 active torsions:
REMARK  status: ('A' for Active; 'I' for Inactive)
REMARK    1  A    between atoms: C_2  and  O_3 
REMARK    2  A    between atoms: O_3  and  C_4 
REMARK    3  A    between atoms: C_5  and  O_6 
REMARK    4  A    between atoms: C_9  and  C_10 
REMARK    5  A    between atoms: C_10  and  N_11 
REMARK    6  A    between atoms: C_13  and  C_14 
REMARK       I    between atoms: C_14  and  N_15 
REMARK    7  A    between atoms: N_15  and  C_16 
REMARK    8  A    between atoms: C_28  and  S_29 
REMARK    9  A    between atoms: S_29  and  C_30 
ROOT
HETATM    1  N   UNL     1      41.049 -12.981   3.657  1.00  0.00    -0.053 N 
HETATM    2  H   UNL     1      41.879 -13.060   3.054  1.00  0.00     0.281 HD
HETATM    3  C   UNL     1      41.534 -13.338   5.070  1.00  0.00     0.281 C 
HETATM    4  C   UNL     1      40.550 -12.625   5.976  1.00  0.00     0.060 C 
HETATM    5  C   UNL     1      40.176 -11.339   5.224  1.00  0.00     0.082 C 
HETATM    6  C   UNL     1      40.656 -11.526   3.773  1.00  0.00     0.252 C 
ENDROOT
BRANCH   3   7
HETATM    7  C   UNL     1      41.814 -14.832   5.296  1.00  0.00     0.253 C 
HETATM    8  N   UNL     1      43.052 -15.284   4.882  1.00  0.00    -0.325 N 
HETATM    9  H   UNL     1      43.746 -14.613   4.572  1.00  0.00     0.169 HD
HETATM   10  O   UNL     1      40.913 -15.530   5.757  1.00  0.00    -0.271 OA
BRANCH   8  11
HETATM   11  C   UNL     1      43.470 -16.637   4.808  1.00  0.00     0.037 A 
HETATM   12  C   UNL     1      43.341 -17.430   3.661  1.00  0.00     0.062 A 
HETATM   13  C   UNL     1      43.831 -18.756   3.644  1.00  0.00     0.077 A 
HETATM   14  C   UNL     1      44.430 -19.268   4.792  1.00  0.00     0.035 A 
HETATM   15  N   UNL     1      43.785 -19.618   2.563  1.00  0.00    -0.245 NA
HETATM   16  S   UNL     1      44.929 -20.887   4.486  1.00  0.00    -0.073 SA
HETATM   17  C   UNL     1      44.560 -18.501   5.959  1.00  0.00     0.023 A 
HETATM   18  C   UNL     1      44.345 -20.765   2.876  1.00  0.00     0.072 A 
HETATM   19  C   UNL     1      44.475 -21.913   1.937  1.00  0.00     0.079 C 
HETATM   20  C   UNL     1      44.080 -17.183   5.942  1.00  0.00     0.031 A 
ENDBRANCH   8  11
ENDBRANCH   3   7
BRANCH   1  21
HETATM   21  C   UNL     1      40.024 -13.864   2.962  1.00  0.00     0.274 C 
BRANCH  21  22
HETATM   22  C   UNL     1      40.357 -14.351   1.577  1.00  0.00    -0.030 A 
HETATM   23  C   UNL     1      41.339 -15.344   1.398  1.00  0.00     0.012 A 
HETATM   24  C   UNL     1      41.668 -15.797   0.124  1.00  0.00     0.040 A 
HETATM   25  C   UNL     1      41.019 -15.259  -0.976  1.00  0.00     0.099 A 
HETATM   26  C   UNL     1      40.038 -14.274  -0.836  1.00  0.00     0.102 A 
HETATM   27  C   UNL     1      39.689 -13.842   0.446  1.00  0.00     0.048 A 
BRANCH  25  28
HETATM   28  O   UNL     1      41.369 -15.721  -2.215  1.00  0.00    -0.358 OA
HETATM   29  H   UNL     1      40.837 -15.204  -2.852  1.00  0.00     0.218 HD
ENDBRANCH  25  28
BRANCH  26  30
HETATM   30  O   UNL     1      39.495 -13.831  -2.011  1.00  0.00    -0.349 OA
BRANCH  30  31
HETATM   31  C   UNL     1      38.106 -14.082  -2.220  1.00  0.00     0.171 C 
HETATM   32  C   UNL     1      37.979 -14.988  -3.431  1.00  0.00     0.034 C 
ENDBRANCH  30  31
ENDBRANCH  26  30
ENDBRANCH  21  22
ENDBRANCH   1  21
BRANCH   5  33
HETATM   33  S   UNL     1      40.988  -9.899   6.014  1.00  0.00    -0.104 SA
BRANCH  33  34
HETATM   34  C   UNL     1      40.450 -10.114   7.705  1.00  0.00     0.093 A 
HETATM   35  N   UNL     1      39.122 -10.037   7.953  1.00  0.00    -0.254 NA
HETATM   36  C   UNL     1      38.730 -10.203   9.239  1.00  0.00     0.118 A 
HETATM   37  C   UNL     1      39.603 -10.419  10.291  1.00  0.00     0.019 A 
HETATM   38  C   UNL     1      40.962 -10.473  10.012  1.00  0.00     0.004 A 
HETATM   39  C   UNL     1      41.398 -10.322   8.698  1.00  0.00     0.039 A 
ENDBRANCH  33  34
ENDBRANCH   5  33
TORSDOF 9
ENDMDL
MODEL 4
REMARK VINA RESULT:      -8.2      3.510      6.795
REMARK  9 active torsions:
REMARK  status: ('A' for Active; 'I' for Inactive)
REMARK    1  A    between atoms: C_2  and  O_3 
REMARK    2  A    between atoms: O_3  and  C_4 
REMARK    3  A    between atoms: C_5  and  O_6 
REMARK    4  A    between atoms: C_9  and  C_10 
REMARK    5  A    between atoms: C_10  and  N_11 
REMARK    6  A    between atoms: C_13  and  C_14 
REMARK       I    between atoms: C_14  and  N_15 
REMARK    7  A    between atoms: N_15  and  C_16 
REMARK    8  A    between atoms: C_28  and  S_29 
REMARK    9  A    between atoms: S_29  and  C_30 
ROOT
HETATM    1  N   UNL     1      39.696 -14.962   0.237  1.00  0.00    -0.053 N 
HETATM    2  H   UNL     1      39.011 -15.624  -0.152  1.00  0.00     0.281 HD
HETATM    3  C   UNL     1      41.067 -15.630   0.042  1.00  0.00     0.281 C 
HETATM    4  C   UNL     1      42.030 -14.460   0.003  1.00  0.00     0.060 C 
HETATM    5  C   UNL     1      41.247 -13.320  -0.664  1.00  0.00     0.082 C 
HETATM    6  C   UNL     1      39.766 -13.741  -0.650  1.00  0.00     0.252 C 
ENDROOT
BRANCH   3   7
HETATM    7  C   UNL     1      41.351 -16.804   0.991  1.00  0.00     0.253 C 
HETATM    8  N   UNL     1      42.475 -16.680   1.784  1.00  0.00    -0.325 N 
HETATM    9  H   UNL     1      42.979 -15.801   1.797  1.00  0.00     0.169 HD
HETATM   10  O   UNL     1      40.616 -17.788   0.937  1.00  0.00    -0.271 OA
BRANCH   8  11
HETATM   11  C   UNL     1      43.050 -17.696   2.592  1.00  0.00     0.037 A 
HETATM   12  C   UNL     1      42.799 -17.835   3.962  1.00  0.00     0.062 A 
HETATM   13  C   UNL     1      43.365 -18.905   4.692  1.00  0.00     0.077 A 
HETATM   14  C   UNL     1      44.191 -19.811   4.030  1.00  0.00     0.035 A 
HETATM   15  N   UNL     1      43.165 -19.158   6.037  1.00  0.00    -0.245 NA
HETATM   16  S   UNL     1      44.731 -20.998   5.153  1.00  0.00    -0.073 SA
HETATM   17  C   UNL     1      44.470 -19.687   2.661  1.00  0.00     0.023 A 
HETATM   18  C   UNL     1      43.818 -20.241   6.395  1.00  0.00     0.072 A 
HETATM   19  C   UNL     1      43.807 -20.803   7.773  1.00  0.00     0.079 C 
HETATM   20  C   UNL     1      43.881 -18.624   1.958  1.00  0.00     0.031 A 
ENDBRANCH   8  11
ENDBRANCH   3   7
BRANCH   1  21
HETATM   21  C   UNL     1      39.174 -14.700   1.641  1.00  0.00     0.274 C 
BRANCH  21  22
HETATM   22  C   UNL     1      39.822 -13.587   2.422  1.00  0.00    -0.030 A 
HETATM   23  C   UNL     1      39.241 -12.304   2.430  1.00  0.00     0.012 A 
HETATM   24  C   UNL     1      39.834 -11.261   3.137  1.00  0.00     0.040 A 
HETATM   25  C   UNL     1      41.007 -11.496   3.837  1.00  0.00     0.099 A 
HETATM   26  C   UNL     1      41.608 -12.757   3.853  1.00  0.00     0.102 A 
HETATM   27  C   UNL     1      40.997 -13.809   3.166  1.00  0.00     0.048 A 
BRANCH  25  28
HETATM   28  O   UNL     1      41.566 -10.449   4.516  1.00  0.00    -0.358 OA
HETATM   29  H   UNL     1      41.499 -10.680   5.464  1.00  0.00     0.218 HD
ENDBRANCH  25  28
BRANCH  26  30
HETATM   30  O   UNL     1      42.767 -12.832   4.576  1.00  0.00    -0.349 OA
BRANCH  30  31
HETATM   31  C   UNL     1      42.702 -13.489   5.842  1.00  0.00     0.171 C 
HETATM   32  C   UNL     1      43.999 -14.253   6.031  1.00  0.00     0.034 C 
ENDBRANCH  30  31
ENDBRANCH  26  30
ENDBRANCH  21  22
ENDBRANCH   1  21
BRANCH   5  33
HETATM   33  S   UNL     1      41.853 -13.069  -2.374  1.00  0.00    -0.104 SA
BRANCH  33  34
HETATM   34  C   UNL     1      42.510 -11.412  -2.243  1.00  0.00     0.093 A 
HETATM   35  N   UNL     1      43.279 -11.128  -1.166  1.00  0.00    -0.254 NA
HETATM   36  C   UNL     1      43.771  -9.869  -1.081  1.00  0.00     0.118 A 
HETATM   37  C   UNL     1      43.511  -8.874  -2.008  1.00  0.00     0.019 A 
HETATM   38  C   UNL     1      42.702  -9.186  -3.093  1.00  0.00     0.004 A 
HETATM   39  C   UNL     1      42.193 -10.476  -3.219  1.00  0.00     0.039 A 
ENDBRANCH  33  34
ENDBRANCH   5  33
TORSDOF 9
ENDMDL
MODEL 5
REMARK VINA RESULT:      -8.0      3.475      7.701
REMARK  9 active torsions:
REMARK  status: ('A' for Active; 'I' for Inactive)
REMARK    1  A    between atoms: C_2  and  O_3 
REMARK    2  A    between atoms: O_3  and  C_4 
REMARK    3  A    between atoms: C_5  and  O_6 
REMARK    4  A    between atoms: C_9  and  C_10 
REMARK    5  A    between atoms: C_10  and  N_11 
REMARK    6  A    between atoms: C_13  and  C_14 
REMARK       I    between atoms: C_14  and  N_15 
REMARK    7  A    between atoms: N_15  and  C_16 
REMARK    8  A    between atoms: C_28  and  S_29 
REMARK    9  A    between atoms: S_29  and  C_30 
ROOT
HETATM    1  N   UNL     1      40.257 -13.767   1.127  1.00  0.00    -0.053 N 
HETATM    2  H   UNL     1      39.353 -13.831   1.613  1.00  0.00     0.281 HD
HETATM    3  C   UNL     1      40.507 -15.165   0.541  1.00  0.00     0.281 C 
HETATM    4  C   UNL     1      41.423 -14.900  -0.637  1.00  0.00     0.060 C 
HETATM    5  C   UNL     1      40.988 -13.531  -1.181  1.00  0.00     0.082 C 
HETATM    6  C   UNL     1      40.102 -12.892  -0.095  1.00  0.00     0.252 C 
ENDROOT
BRANCH   3   7
HETATM    7  C   UNL     1      40.902 -16.234   1.572  1.00  0.00     0.253 C 
HETATM    8  N   UNL     1      42.256 -16.388   1.793  1.00  0.00    -0.325 N 
HETATM    9  H   UNL     1      42.905 -15.731   1.375  1.00  0.00     0.169 HD
HETATM   10  O   UNL     1      40.011 -16.917   2.073  1.00  0.00    -0.271 OA
BRANCH   8  11
HETATM   11  C   UNL     1      42.873 -17.422   2.543  1.00  0.00     0.037 A 
HETATM   12  C   UNL     1      42.668 -17.618   3.914  1.00  0.00     0.062 A 
HETATM   13  C   UNL     1      43.274 -18.704   4.585  1.00  0.00     0.077 A 
HETATM   14  C   UNL     1      44.095 -19.569   3.864  1.00  0.00     0.035 A 
HETATM   15  N   UNL     1      43.121 -19.011   5.925  1.00  0.00    -0.245 NA
HETATM   16  S   UNL     1      44.691 -20.786   4.924  1.00  0.00    -0.073 SA
HETATM   17  C   UNL     1      44.329 -19.388   2.493  1.00  0.00     0.023 A 
HETATM   18  C   UNL     1      43.804 -20.094   6.221  1.00  0.00     0.072 A 
HETATM   19  C   UNL     1      43.846 -20.708   7.577  1.00  0.00     0.079 C 
HETATM   20  C   UNL     1      43.700 -18.311   1.850  1.00  0.00     0.031 A 
ENDBRANCH   8  11
ENDBRANCH   3   7
BRANCH   1  21
HETATM   21  C   UNL     1      41.191 -13.214   2.191  1.00  0.00     0.274 C 
BRANCH  21  22
HETATM   22  C   UNL     1      40.670 -13.151   3.603  1.00  0.00    -0.030 A 
HETATM   23  C   UNL     1      40.791 -14.270   4.448  1.00  0.00     0.012 A 
HETATM   24  C   UNL     1      40.303 -14.233   5.751  1.00  0.00     0.040 A 
HETATM   25  C   UNL     1      39.692 -13.079   6.214  1.00  0.00     0.099 A 
HETATM   26  C   UNL     1      39.558 -11.948   5.405  1.00  0.00     0.102 A 
HETATM   27  C   UNL     1      40.073 -11.978   4.107  1.00  0.00     0.048 A 
BRANCH  25  28
HETATM   28  O   UNL     1      39.219 -13.076   7.497  1.00  0.00    -0.358 OA
HETATM   29  H   UNL     1      38.264 -13.272   7.430  1.00  0.00     0.218 HD
ENDBRANCH  25  28
BRANCH  26  30
HETATM   30  O   UNL     1      38.924 -10.889   5.995  1.00  0.00    -0.349 OA
BRANCH  30  31
HETATM   31  C   UNL     1      39.445  -9.588   5.728  1.00  0.00     0.171 C 
HETATM   32  C   UNL     1      40.521  -9.303   6.759  1.00  0.00     0.034 C 
ENDBRANCH  30  31
ENDBRANCH  26  30
ENDBRANCH  21  22
ENDBRANCH   1  21
BRANCH   5  33
HETATM   33  S   UNL     1      40.067 -13.751  -2.749  1.00  0.00    -0.104 SA
BRANCH  33  34
HETATM   34  C   UNL     1      40.667 -12.344  -3.674  1.00  0.00     0.093 A 
HETATM   35  N   UNL     1      39.745 -11.531  -4.242  1.00  0.00    -0.254 NA
HETATM   36  C   UNL     1      40.215 -10.469  -4.939  1.00  0.00     0.118 A 
HETATM   37  C   UNL     1      41.560 -10.194  -5.115  1.00  0.00     0.019 A 
HETATM   38  C   UNL     1      42.485 -11.056  -4.539  1.00  0.00     0.004 A 
HETATM   39  C   UNL     1      42.035 -12.149  -3.803  1.00  0.00     0.039 A 
ENDBRANCH  33  34
ENDBRANCH   5  33
TORSDOF 9
ENDMDL
MODEL 6
REMARK VINA RESULT:      -7.9      3.316      8.571
REMARK  9 active torsions:
REMARK  status: ('A' for Active; 'I' for Inactive)
REMARK    1  A    between atoms: C_2  and  O_3 
REMARK    2  A    between atoms: O_3  and  C_4 
REMARK    3  A    between atoms: C_5  and  O_6 
REMARK    4  A    between atoms: C_9  and  C_10 
REMARK    5  A    between atoms: C_10  and  N_11 
REMARK    6  A    between atoms: C_13  and  C_14 
REMARK       I    between atoms: C_14  and  N_15 
REMARK    7  A    between atoms: N_15  and  C_16 
REMARK    8  A    between atoms: C_28  and  S_29 
REMARK    9  A    between atoms: S_29  and  C_30 
ROOT
HETATM    1  N   UNL     1      41.266 -15.313   2.175  1.00  0.00    -0.053 N 
HETATM    2  H   UNL     1      42.291 -15.381   2.136  1.00  0.00     0.281 HD
HETATM    3  C   UNL     1      40.968 -13.880   2.641  1.00  0.00     0.281 C 
HETATM    4  C   UNL     1      39.581 -13.607   2.091  1.00  0.00     0.060 C 
HETATM    5  C   UNL     1      39.520 -14.378   0.764  1.00  0.00     0.082 C 
HETATM    6  C   UNL     1      40.711 -15.354   0.770  1.00  0.00     0.252 C 
ENDROOT
BRANCH   3   7
HETATM    7  C   UNL     1      41.250 -13.614   4.128  1.00  0.00     0.253 C 
HETATM    8  N   UNL     1      42.498 -13.100   4.422  1.00  0.00    -0.325 N 
HETATM    9  H   UNL     1      43.108 -12.813   3.664  1.00  0.00     0.169 HD
HETATM   10  O   UNL     1      40.394 -13.934   4.949  1.00  0.00    -0.271 OA
BRANCH   8  11
HETATM   11  C   UNL     1      43.061 -12.950   5.715  1.00  0.00     0.037 A 
HETATM   12  C   UNL     1      42.740 -11.904   6.588  1.00  0.00     0.062 A 
HETATM   13  C   UNL     1      43.300 -11.849   7.884  1.00  0.00     0.077 A 
HETATM   14  C   UNL     1      44.193 -12.845   8.275  1.00  0.00     0.035 A 
HETATM   15  N   UNL     1      43.034 -10.883   8.838  1.00  0.00    -0.245 NA
HETATM   16  S   UNL     1      44.711 -12.529   9.886  1.00  0.00    -0.073 SA
HETATM   17  C   UNL     1      44.544 -13.897   7.416  1.00  0.00     0.023 A 
HETATM   18  C   UNL     1      43.704 -11.140   9.940  1.00  0.00     0.072 A 
HETATM   19  C   UNL     1      43.636 -10.304  11.169  1.00  0.00     0.079 C 
HETATM   20  C   UNL     1      43.959 -13.934   6.141  1.00  0.00     0.031 A 
ENDBRANCH   8  11
ENDBRANCH   3   7
BRANCH   1  21
HETATM   21  C   UNL     1      40.868 -16.492   3.050  1.00  0.00     0.274 C 
BRANCH  21  22
HETATM   22  C   UNL     1      41.976 -17.364   3.579  1.00  0.00    -0.030 A 
HETATM   23  C   UNL     1      42.303 -17.332   4.948  1.00  0.00     0.012 A 
HETATM   24  C   UNL     1      43.333 -18.122   5.452  1.00  0.00     0.040 A 
HETATM   25  C   UNL     1      44.038 -18.947   4.590  1.00  0.00     0.099 A 
HETATM   26  C   UNL     1      43.738 -19.007   3.227  1.00  0.00     0.102 A 
HETATM   27  C   UNL     1      42.687 -18.234   2.729  1.00  0.00     0.048 A 
BRANCH  25  28
HETATM   28  O   UNL     1      45.047 -19.707   5.114  1.00  0.00    -0.358 OA
HETATM   29  H   UNL     1      44.902 -19.710   6.081  1.00  0.00     0.218 HD
ENDBRANCH  25  28
BRANCH  26  30
HETATM   30  O   UNL     1      44.527 -19.857   2.500  1.00  0.00    -0.349 OA
BRANCH  30  31
HETATM   31  C   UNL     1      43.891 -20.990   1.911  1.00  0.00     0.171 C 
HETATM   32  C   UNL     1      44.378 -22.225   2.646  1.00  0.00     0.034 C 
ENDBRANCH  30  31
ENDBRANCH  26  30
ENDBRANCH  21  22
ENDBRANCH   1  21
BRANCH   5  33
HETATM   33  S   UNL     1      39.626 -13.206  -0.640  1.00  0.00    -0.104 SA
BRANCH  33  34
HETATM   34  C   UNL     1      39.199 -14.288  -1.996  1.00  0.00     0.093 A 
HETATM   35  N   UNL     1      40.191 -15.036  -2.534  1.00  0.00    -0.254 NA
HETATM   36  C   UNL     1      39.851 -15.853  -3.560  1.00  0.00     0.118 A 
HETATM   37  C   UNL     1      38.575 -15.939  -4.089  1.00  0.00     0.019 A 
HETATM   38  C   UNL     1      37.581 -15.146  -3.532  1.00  0.00     0.004 A 
HETATM   39  C   UNL     1      37.892 -14.307  -2.466  1.00  0.00     0.039 A 
ENDBRANCH  33  34
ENDBRANCH   5  33
TORSDOF 9
ENDMDL
MODEL 7
REMARK VINA RESULT:      -7.9      2.003      2.535
REMARK  9 active torsions:
REMARK  status: ('A' for Active; 'I' for Inactive)
REMARK    1  A    between atoms: C_2  and  O_3 
REMARK    2  A    between atoms: O_3  and  C_4 
REMARK    3  A    between atoms: C_5  and  O_6 
REMARK    4  A    between atoms: C_9  and  C_10 
REMARK    5  A    between atoms: C_10  and  N_11 
REMARK    6  A    between atoms: C_13  and  C_14 
REMARK       I    between atoms: C_14  and  N_15 
REMARK    7  A    between atoms: N_15  and  C_16 
REMARK    8  A    between atoms: C_28  and  S_29 
REMARK    9  A    between atoms: S_29  and  C_30 
ROOT
HETATM    1  N   UNL     1      40.965 -13.022   2.501  1.00  0.00    -0.053 N 
HETATM    2  H   UNL     1      41.705 -13.094   1.790  1.00  0.00     0.281 HD
HETATM    3  C   UNL     1      41.627 -13.433   3.825  1.00  0.00     0.281 C 
HETATM    4  C   UNL     1      40.787 -12.734   4.876  1.00  0.00     0.060 C 
HETATM    5  C   UNL     1      40.341 -11.419   4.220  1.00  0.00     0.082 C 
HETATM    6  C   UNL     1      40.619 -11.566   2.713  1.00  0.00     0.252 C 
ENDROOT
BRANCH   3   7
HETATM    7  C   UNL     1      41.905 -14.938   3.966  1.00  0.00     0.253 C 
HETATM    8  N   UNL     1      43.055 -15.398   3.356  1.00  0.00    -0.325 N 
HETATM    9  H   UNL     1      43.709 -14.731   2.961  1.00  0.00     0.169 HD
HETATM   10  O   UNL     1      41.070 -15.633   4.541  1.00  0.00    -0.271 OA
BRANCH   8  11
HETATM   11  C   UNL     1      43.428 -16.756   3.182  1.00  0.00     0.037 A 
HETATM   12  C   UNL     1      43.820 -17.596   4.232  1.00  0.00     0.062 A 
HETATM   13  C   UNL     1      44.125 -18.955   3.991  1.00  0.00     0.077 A 
HETATM   14  C   UNL     1      44.048 -19.443   2.688  1.00  0.00     0.035 A 
HETATM   15  N   UNL     1      44.493 -19.881   4.950  1.00  0.00    -0.245 NA
HETATM   16  S   UNL     1      44.468 -21.112   2.691  1.00  0.00    -0.073 SA
HETATM   17  C   UNL     1      43.672 -18.620   1.616  1.00  0.00     0.023 A 
HETATM   18  C   UNL     1      44.686 -21.056   4.393  1.00  0.00     0.072 A 
HETATM   19  C   UNL     1      45.079 -22.280   5.144  1.00  0.00     0.079 C 
HETATM   20  C   UNL     1      43.358 -17.279   1.887  1.00  0.00     0.031 A 
ENDBRANCH   8  11
ENDBRANCH   3   7
BRANCH   1  21
HETATM   21  C   UNL     1      39.840 -13.866   1.923  1.00  0.00     0.274 C 
BRANCH  21  22
HETATM   22  C   UNL     1      39.664 -13.853   0.427  1.00  0.00    -0.030 A 
HETATM   23  C   UNL     1      38.372 -13.789  -0.128  1.00  0.00     0.012 A 
HETATM   24  C   UNL     1      38.192 -13.790  -1.509  1.00  0.00     0.040 A 
HETATM   25  C   UNL     1      39.300 -13.854  -2.337  1.00  0.00     0.099 A 
HETATM   26  C   UNL     1      40.597 -13.914  -1.821  1.00  0.00     0.102 A 
HETATM   27  C   UNL     1      40.777 -13.886  -0.436  1.00  0.00     0.048 A 
BRANCH  25  28
HETATM   28  O   UNL     1      39.089 -13.857  -3.689  1.00  0.00    -0.358 OA
HETATM   29  H   UNL     1      39.413 -14.723  -4.007  1.00  0.00     0.218 HD
ENDBRANCH  25  28
BRANCH  26  30
HETATM   30  O   UNL     1      41.588 -13.986  -2.761  1.00  0.00    -0.349 OA
BRANCH  30  31
HETATM   31  C   UNL     1      42.603 -12.984  -2.712  1.00  0.00     0.171 C 
HETATM   32  C   UNL     1      42.093 -11.774  -3.471  1.00  0.00     0.034 C 
ENDBRANCH  30  31
ENDBRANCH  26  30
ENDBRANCH  21  22
ENDBRANCH   1  21
BRANCH   5  33
HETATM   33  S   UNL     1      41.278 -10.019   4.937  1.00  0.00    -0.104 SA
BRANCH  33  34
HETATM   34  C   UNL     1      40.937 -10.259   6.675  1.00  0.00     0.093 A 
HETATM   35  N   UNL     1      41.997 -10.338   7.514  1.00  0.00    -0.254 NA
HETATM   36  C   UNL     1      41.722 -10.519   8.828  1.00  0.00     0.118 A 
HETATM   37  C   UNL     1      40.442 -10.648   9.340  1.00  0.00     0.019 A 
HETATM   38  C   UNL     1      39.374 -10.584   8.454  1.00  0.00     0.004 A 
HETATM   39  C   UNL     1      39.621 -10.383   7.099  1.00  0.00     0.039 A 
ENDBRANCH  33  34
ENDBRANCH   5  33
TORSDOF 9
ENDMDL
MODEL 8
REMARK VINA RESULT:      -7.8      3.580      7.497
REMARK  9 active torsions:
REMARK  status: ('A' for Active; 'I' for Inactive)
REMARK    1  A    between atoms: C_2  and  O_3 
REMARK    2  A    between atoms: O_3  and  C_4 
REMARK    3  A    between atoms: C_5  and  O_6 
REMARK    4  A    between atoms: C_9  and  C_10 
REMARK    5  A    between atoms: C_10  and  N_11 
REMARK    6  A    between atoms: C_13  and  C_14 
REMARK       I    between atoms: C_14  and  N_15 
REMARK    7  A    between atoms: N_15  and  C_16 
REMARK    8  A    between atoms: C_28  and  S_29 
REMARK    9  A    between atoms: S_29  and  C_30 
ROOT
HETATM    1  N   UNL     1      39.259 -14.593   0.593  1.00  0.00    -0.053 N 
HETATM    2  H   UNL     1      38.559 -15.290   0.305  1.00  0.00     0.281 HD
HETATM    3  C   UNL     1      40.622 -15.269   0.374  1.00  0.00     0.281 C 
HETATM    4  C   UNL     1      41.570 -14.103   0.175  1.00  0.00     0.060 C 
HETATM    5  C   UNL     1      40.737 -13.029  -0.540  1.00  0.00     0.082 C 
HETATM    6  C   UNL     1      39.263 -13.454  -0.400  1.00  0.00     0.252 C 
ENDROOT
BRANCH   3   7
HETATM    7  C   UNL     1      40.975 -16.355   1.403  1.00  0.00     0.253 C 
HETATM    8  N   UNL     1      42.298 -16.406   1.796  1.00  0.00    -0.325 N 
HETATM    9  H   UNL     1      42.933 -15.675   1.497  1.00  0.00     0.169 HD
HETATM   10  O   UNL     1      40.092 -17.136   1.751  1.00  0.00    -0.271 OA
BRANCH   8  11
HETATM   11  C   UNL     1      42.903 -17.423   2.578  1.00  0.00     0.037 A 
HETATM   12  C   UNL     1      42.679 -17.588   3.950  1.00  0.00     0.062 A 
HETATM   13  C   UNL     1      43.275 -18.659   4.654  1.00  0.00     0.077 A 
HETATM   14  C   UNL     1      44.104 -19.541   3.963  1.00  0.00     0.035 A 
HETATM   15  N   UNL     1      43.102 -18.935   5.998  1.00  0.00    -0.245 NA
HETATM   16  S   UNL     1      44.684 -20.735   5.059  1.00  0.00    -0.073 SA
HETATM   17  C   UNL     1      44.356 -19.391   2.592  1.00  0.00     0.023 A 
HETATM   18  C   UNL     1      43.780 -20.013   6.328  1.00  0.00     0.072 A 
HETATM   19  C   UNL     1      43.803 -20.596   7.697  1.00  0.00     0.079 C 
HETATM   20  C   UNL     1      43.738 -18.328   1.916  1.00  0.00     0.031 A 
ENDBRANCH   8  11
ENDBRANCH   3   7
BRANCH   1  21
HETATM   21  C   UNL     1      38.820 -14.211   1.998  1.00  0.00     0.274 C 
BRANCH  21  22
HETATM   22  C   UNL     1      39.568 -13.093   2.676  1.00  0.00    -0.030 A 
HETATM   23  C   UNL     1      39.236 -11.755   2.395  1.00  0.00     0.012 A 
HETATM   24  C   UNL     1      39.925 -10.709   3.004  1.00  0.00     0.040 A 
HETATM   25  C   UNL     1      40.948 -10.998   3.893  1.00  0.00     0.099 A 
HETATM   26  C   UNL     1      41.302 -12.315   4.197  1.00  0.00     0.102 A 
HETATM   27  C   UNL     1      40.590 -13.362   3.607  1.00  0.00     0.048 A 
BRANCH  25  28
HETATM   28  O   UNL     1      41.609  -9.949   4.469  1.00  0.00    -0.358 OA
HETATM   29  H   UNL     1      41.799  -9.322   3.744  1.00  0.00     0.218 HD
ENDBRANCH  25  28
BRANCH  26  30
HETATM   30  O   UNL     1      42.337 -12.443   5.082  1.00  0.00    -0.349 OA
BRANCH  30  31
HETATM   31  C   UNL     1      42.529 -13.726   5.676  1.00  0.00     0.171 C 
HETATM   32  C   UNL     1      43.873 -14.254   5.208  1.00  0.00     0.034 C 
ENDBRANCH  30  31
ENDBRANCH  26  30
ENDBRANCH  21  22
ENDBRANCH   1  21
BRANCH   5  33
HETATM   33  S   UNL     1      41.236 -12.926  -2.300  1.00  0.00    -0.104 SA
BRANCH  33  34
HETATM   34  C   UNL     1      40.175 -14.177  -3.009  1.00  0.00     0.093 A 
HETATM   35  N   UNL     1      38.937 -13.796  -3.403  1.00  0.00    -0.254 NA
HETATM   36  C   UNL     1      38.146 -14.756  -3.940  1.00  0.00     0.118 A 
HETATM   37  C   UNL     1      38.523 -16.080  -4.080  1.00  0.00     0.019 A 
HETATM   38  C   UNL     1      39.791 -16.447  -3.650  1.00  0.00     0.004 A 
HETATM   39  C   UNL     1      40.636 -15.483  -3.108  1.00  0.00     0.039 A 
ENDBRANCH  33  34
ENDBRANCH   5  33
TORSDOF 9
ENDMDL
MODEL 9
REMARK VINA RESULT:      -7.7      3.905      8.111
REMARK  9 active torsions:
REMARK  status: ('A' for Active; 'I' for Inactive)
REMARK    1  A    between atoms: C_2  and  O_3 
REMARK    2  A    between atoms: O_3  and  C_4 
REMARK    3  A    between atoms: C_5  and  O_6 
REMARK    4  A    between atoms: C_9  and  C_10 
REMARK    5  A    between atoms: C_10  and  N_11 
REMARK    6  A    between atoms: C_13  and  C_14 
REMARK       I    between atoms: C_14  and  N_15 
REMARK    7  A    between atoms: N_15  and  C_16 
REMARK    8  A    between atoms: C_28  and  S_29 
REMARK    9  A    between atoms: S_29  and  C_30 
ROOT
HETATM    1  N   UNL     1      39.721 -14.614   0.045  1.00  0.00    -0.053 N 
HETATM    2  H   UNL     1      39.108 -15.081   0.727  1.00  0.00     0.281 HD
HETATM    3  C   UNL     1      40.622 -15.721  -0.523  1.00  0.00     0.281 C 
HETATM    4  C   UNL     1      41.017 -15.194  -1.888  1.00  0.00     0.060 C 
HETATM    5  C   UNL     1      39.799 -14.397  -2.376  1.00  0.00     0.082 C 
HETATM    6  C   UNL     1      38.899 -14.178  -1.145  1.00  0.00     0.252 C 
ENDROOT
BRANCH   3   7
HETATM    7  C   UNL     1      41.717 -16.215   0.436  1.00  0.00     0.253 C 
HETATM    8  N   UNL     1      41.370 -17.274   1.253  1.00  0.00    -0.325 N 
HETATM    9  H   UNL     1      40.484 -17.744   1.107  1.00  0.00     0.169 HD
HETATM   10  O   UNL     1      42.784 -15.607   0.464  1.00  0.00    -0.271 OA
BRANCH   8  11
HETATM   11  C   UNL     1      42.128 -17.779   2.340  1.00  0.00     0.037 A 
HETATM   12  C   UNL     1      42.067 -17.262   3.640  1.00  0.00     0.062 A 
HETATM   13  C   UNL     1      42.812 -17.852   4.686  1.00  0.00     0.077 A 
HETATM   14  C   UNL     1      43.623 -18.948   4.400  1.00  0.00     0.035 A 
HETATM   15  N   UNL     1      42.807 -17.446   6.008  1.00  0.00    -0.245 NA
HETATM   16  S   UNL     1      44.404 -19.457   5.848  1.00  0.00    -0.073 SA
HETATM   17  C   UNL     1      43.715 -19.478   3.105  1.00  0.00     0.023 A 
HETATM   18  C   UNL     1      43.593 -18.221   6.722  1.00  0.00     0.072 A 
HETATM   19  C   UNL     1      43.807 -18.069   8.187  1.00  0.00     0.079 C 
HETATM   20  C   UNL     1      42.951 -18.882   2.090  1.00  0.00     0.031 A 
ENDBRANCH   8  11
ENDBRANCH   3   7
BRANCH   1  21
HETATM   21  C   UNL     1      40.334 -13.475   0.846  1.00  0.00     0.274 C 
BRANCH  21  22
HETATM   22  C   UNL     1      40.524 -13.694   2.324  1.00  0.00    -0.030 A 
HETATM   23  C   UNL     1      39.495 -14.278   3.086  1.00  0.00     0.012 A 
HETATM   24  C   UNL     1      39.650 -14.476   4.456  1.00  0.00     0.040 A 
HETATM   25  C   UNL     1      40.833 -14.091   5.067  1.00  0.00     0.099 A 
HETATM   26  C   UNL     1      41.876 -13.511   4.341  1.00  0.00     0.102 A 
HETATM   27  C   UNL     1      41.729 -13.339   2.963  1.00  0.00     0.048 A 
BRANCH  25  28
HETATM   28  O   UNL     1      40.952 -14.294   6.414  1.00  0.00    -0.358 OA
HETATM   29  H   UNL     1      40.038 -14.371   6.754  1.00  0.00     0.218 HD
ENDBRANCH  25  28
BRANCH  26  30
HETATM   30  O   UNL     1      42.975 -13.172   5.082  1.00  0.00    -0.349 OA
BRANCH  30  31
HETATM   31  C   UNL     1      44.039 -14.121   5.138  1.00  0.00     0.171 C 
HETATM   32  C   UNL     1      44.661 -14.034   6.520  1.00  0.00     0.034 C 
ENDBRANCH  30  31
ENDBRANCH  26  30
ENDBRANCH  21  22
ENDBRANCH   1  21
BRANCH   5  33
HETATM   33  S   UNL     1      38.925 -15.336  -3.683  1.00  0.00    -0.104 SA
BRANCH  33  34
HETATM   34  C   UNL     1      37.544 -14.246  -3.994  1.00  0.00     0.093 A 
HETATM   35  N   UNL     1      36.436 -14.786  -4.554  1.00  0.00    -0.254 NA
HETATM   36  C   UNL     1      35.397 -13.947  -4.782  1.00  0.00     0.118 A 
HETATM   37  C   UNL     1      35.421 -12.592  -4.501  1.00  0.00     0.019 A 
HETATM   38  C   UNL     1      36.578 -12.060  -3.947  1.00  0.00     0.004 A 
HETATM   39  C   UNL     1      37.659 -12.897  -3.684  1.00  0.00     0.039 A 
ENDBRANCH  33  34
ENDBRANCH   5  33
TORSDOF 9
ENDMDL
MODEL 10
REMARK VINA RESULT:      -7.7      3.491      7.770
REMARK  9 active torsions:
REMARK  status: ('A' for Active; 'I' for Inactive)
REMARK    1  A    between atoms: C_2  and  O_3 
REMARK    2  A    between atoms: O_3  and  C_4 
REMARK    3  A    between atoms: C_5  and  O_6 
REMARK    4  A    between atoms: C_9  and  C_10 
REMARK    5  A    between atoms: C_10  and  N_11 
REMARK    6  A    between atoms: C_13  and  C_14 
REMARK       I    between atoms: C_14  and  N_15 
REMARK    7  A    between atoms: N_15  and  C_16 
REMARK    8  A    between atoms: C_28  and  S_29 
REMARK    9  A    between atoms: S_29  and  C_30 
ROOT
HETATM    1  N   UNL     1      40.480 -13.155   0.524  1.00  0.00    -0.053 N 
HETATM    2  H   UNL     1      39.556 -13.185   0.975  1.00  0.00     0.281 HD
HETATM    3  C   UNL     1      40.726 -14.578  -0.001  1.00  0.00     0.281 C 
HETATM    4  C   UNL     1      41.695 -14.372  -1.148  1.00  0.00     0.060 C 
HETATM    5  C   UNL     1      41.309 -13.016  -1.758  1.00  0.00     0.082 C 
HETATM    6  C   UNL     1      40.392 -12.322  -0.733  1.00  0.00     0.252 C 
ENDROOT
BRANCH   3   7
HETATM    7  C   UNL     1      41.057 -15.616   1.083  1.00  0.00     0.253 C 
HETATM    8  N   UNL     1      42.399 -15.885   1.271  1.00  0.00    -0.325 N 
HETATM    9  H   UNL     1      43.090 -15.319   0.791  1.00  0.00     0.169 HD
HETATM   10  O   UNL     1      40.126 -16.179   1.654  1.00  0.00    -0.271 OA
BRANCH   8  11
HETATM   11  C   UNL     1      42.944 -16.926   2.065  1.00  0.00     0.037 A 
HETATM   12  C   UNL     1      42.779 -17.014   3.453  1.00  0.00     0.062 A 
HETATM   13  C   UNL     1      43.306 -18.111   4.172  1.00  0.00     0.077 A 
HETATM   14  C   UNL     1      44.007 -19.096   3.481  1.00  0.00     0.035 A 
HETATM   15  N   UNL     1      43.180 -18.317   5.534  1.00  0.00    -0.245 NA
HETATM   16  S   UNL     1      44.527 -20.299   4.598  1.00  0.00    -0.073 SA
HETATM   17  C   UNL     1      44.199 -19.026   2.094  1.00  0.00     0.023 A 
HETATM   18  C   UNL     1      43.767 -19.442   5.877  1.00  0.00     0.072 A 
HETATM   19  C   UNL     1      43.807 -19.971   7.268  1.00  0.00     0.079 C 
HETATM   20  C   UNL     1      43.651 -17.934   1.403  1.00  0.00     0.031 A 
ENDBRANCH   8  11
ENDBRANCH   3   7
BRANCH   1  21
HETATM   21  C   UNL     1      41.381 -12.581   1.606  1.00  0.00     0.274 C 
BRANCH  21  22
HETATM   22  C   UNL     1      41.013 -12.870   3.038  1.00  0.00    -0.030 A 
HETATM   23  C   UNL     1      39.726 -12.550   3.511  1.00  0.00     0.012 A 
HETATM   24  C   UNL     1      39.374 -12.799   4.835  1.00  0.00     0.040 A 
HETATM   25  C   UNL     1      40.305 -13.368   5.689  1.00  0.00     0.099 A 
HETATM   26  C   UNL     1      41.589 -13.702   5.253  1.00  0.00     0.102 A 
HETATM   27  C   UNL     1      41.932 -13.477   3.917  1.00  0.00     0.048 A 
BRANCH  25  28
HETATM   28  O   UNL     1      39.929 -13.596   6.984  1.00  0.00    -0.358 OA
HETATM   29  H   UNL     1      39.941 -14.567   7.099  1.00  0.00     0.218 HD
ENDBRANCH  25  28
BRANCH  26  30
HETATM   30  O   UNL     1      42.401 -14.244   6.211  1.00  0.00    -0.349 OA
BRANCH  30  31
HETATM   31  C   UNL     1      43.780 -14.403   5.881  1.00  0.00     0.171 C 
HETATM   32  C   UNL     1      44.593 -14.016   7.103  1.00  0.00     0.034 C 
ENDBRANCH  30  31
ENDBRANCH  26  30
ENDBRANCH  21  22
ENDBRANCH   1  21
BRANCH   5  33
HETATM   33  S   UNL     1      40.448 -13.276  -3.354  1.00  0.00    -0.104 SA
BRANCH  33  34
HETATM   34  C   UNL     1      40.862 -11.754  -4.194  1.00  0.00     0.093 A 
HETATM   35  N   UNL     1      42.175 -11.472  -4.365  1.00  0.00    -0.254 NA
HETATM   36  C   UNL     1      42.473 -10.316  -5.005  1.00  0.00     0.118 A 
HETATM   37  C   UNL     1      41.523  -9.418  -5.460  1.00  0.00     0.019 A 
HETATM   38  C   UNL     1      40.184  -9.721  -5.253  1.00  0.00     0.004 A 
HETATM   39  C   UNL     1      39.842 -10.910  -4.613  1.00  0.00     0.039 A 
ENDBRANCH  33  34
ENDBRANCH   5  33
TORSDOF 9
ENDMDL
