MODEL 1
REMARK VINA RESULT:      -9.7      0.000      0.000
REMARK  4 active torsions:
REMARK  status: ('A' for Active; 'I' for Inactive)
REMARK    1  A    between atoms: N_7  and  C_8 
REMARK    2  A    between atoms: C_14  and  C_15 
REMARK    3  A    between atoms: C_15  and  N_16 
REMARK       I    between atoms: N_16  and  C_17 
REMARK       I    between atoms: C_17  and  N_18 
REMARK    4  A    between atoms: N_18  and  C_19 
ROOT
HETATM    1  C   UNL     1      41.146 -17.393   1.170  1.00  0.00     0.186 C 
ENDROOT
BRANCH   1   2
HETATM    2  C   UNL     1      41.881 -17.398   2.507  1.00  0.00     0.084 C 
HETATM    3  C   UNL     1      42.827 -18.503   2.774  1.00  0.00     0.008 A 
HETATM    4  C   UNL     1      43.022 -19.575   1.892  1.00  0.00     0.014 A 
HETATM    5  C   UNL     1      43.544 -18.451   3.962  1.00  0.00     0.046 A 
HETATM    6  C   UNL     1      43.945 -20.578   2.202  1.00  0.00     0.001 A 
HETATM    7  C   UNL     1      44.672 -20.516   3.389  1.00  0.00     0.001 A 
HETATM    8  C   UNL     1      44.473 -19.455   4.271  1.00  0.00     0.018 A 
HETATM    9  C   UNL     1      43.311 -17.343   4.904  1.00  0.00     0.275 C 
HETATM   10  O   UNL     1      43.995 -17.272   5.922  1.00  0.00    -0.266 OA
HETATM   11  N   UNL     1      42.293 -16.447   4.575  1.00  0.00    -0.229 N 
HETATM   12  N   UNL     1      41.633 -16.452   3.365  1.00  0.00    -0.171 NA
BRANCH  11  13
HETATM   13  C   UNL     1      42.043 -15.311   5.462  1.00  0.00     0.114 C 
HETATM   14  C   UNL     1      42.574 -13.993   4.893  1.00  0.00     0.027 C 
HETATM   15  C   UNL     1      41.807 -12.951   5.687  1.00  0.00     0.002 C 
HETATM   16  C   UNL     1      40.397 -13.519   5.750  1.00  0.00     0.002 C 
HETATM   17  C   UNL     1      40.565 -15.040   5.785  1.00  0.00     0.027 C 
ENDBRANCH  11  13
ENDBRANCH   1   2
BRANCH   1  18
HETATM   18  N   UNL     1      41.804 -16.579   0.172  1.00  0.00    -0.337 N 
HETATM   19  C   UNL     1      41.287 -15.343  -0.116  1.00  0.00     0.317 C 
HETATM   20  N   UNL     1      42.073 -14.663  -1.005  1.00  0.00    -0.334 N 
HETATM   21  O   UNL     1      40.242 -14.932   0.369  1.00  0.00    -0.247 OA
HETATM   22  H   UNL     1      42.618 -15.272  -1.598  1.00  0.00     0.165 HD
HETATM   23  H   UNL     1      42.803 -16.707   0.080  1.00  0.00     0.164 HD
BRANCH  20  24
HETATM   24  C   UNL     1      41.711 -13.358  -1.579  1.00  0.00     0.035 C 
HETATM   25  C   UNL     1      41.727 -12.226  -0.519  1.00  0.00     0.035 C 
HETATM   26  C   UNL     1      41.382 -10.871  -1.165  1.00  0.00    -0.012 C 
HETATM   27  C   UNL     1      39.989 -10.959  -1.809  1.00  0.00     0.009 C 
HETATM   28  C   UNL     1      42.423 -10.546  -2.247  1.00  0.00     0.009 C 
HETATM   29  C   UNL     1      39.973 -12.052  -2.891  1.00  0.00    -0.012 C 
HETATM   30  C   UNL     1      40.314 -13.407  -2.247  1.00  0.00     0.035 C 
HETATM   31  C   UNL     1      41.024 -11.721  -3.963  1.00  0.00     0.009 C 
HETATM   32  C   UNL     1      42.420 -11.642  -3.323  1.00  0.00    -0.012 C 
HETATM   33  C   UNL     1      42.754 -12.994  -2.669  1.00  0.00     0.035 C 
ENDBRANCH  20  24
ENDBRANCH   1  18
TORSDOF 4
ENDMDL
MODEL 2
REMARK VINA RESULT:      -9.4      4.956     10.244
REMARK  4 active torsions:
REMARK  status: ('A' for Active; 'I' for Inactive)
REMARK    1  A    between atoms: N_7  and  C_8 
REMARK    2  A    between atoms: C_14  and  C_15 
REMARK    3  A    between atoms: C_15  and  N_16 
REMARK       I    between atoms: N_16  and  C_17 
REMARK       I    between atoms: C_17  and  N_18 
REMARK    4  A    between atoms: N_18  and  C_19 
ROOT
HETATM    1  C   UNL     1      44.780 -13.375   7.312  1.00  0.00     0.186 C 
ENDROOT
BRANCH   1   2
HETATM    2  C   UNL     1      44.047 -14.533   6.643  1.00  0.00     0.084 C 
HETATM    3  C   UNL     1      42.854 -14.219   5.827  1.00  0.00     0.008 A 
HETATM    4  C   UNL     1      42.329 -12.925   5.702  1.00  0.00     0.014 A 
HETATM    5  C   UNL     1      42.244 -15.276   5.163  1.00  0.00     0.046 A 
HETATM    6  C   UNL     1      41.206 -12.699   4.901  1.00  0.00     0.001 A 
HETATM    7  C   UNL     1      40.604 -13.759   4.226  1.00  0.00     0.001 A 
HETATM    8  C   UNL     1      41.120 -15.048   4.356  1.00  0.00     0.018 A 
HETATM    9  C   UNL     1      42.775 -16.640   5.324  1.00  0.00     0.275 C 
HETATM   10  O   UNL     1      42.267 -17.557   4.683  1.00  0.00    -0.266 OA
HETATM   11  N   UNL     1      43.825 -16.798   6.230  1.00  0.00    -0.229 N 
HETATM   12  N   UNL     1      44.480 -15.745   6.831  1.00  0.00    -0.171 NA
BRANCH  11  13
HETATM   13  C   UNL     1      44.409 -18.128   6.402  1.00  0.00     0.114 C 
HETATM   14  C   UNL     1      43.444 -19.112   7.069  1.00  0.00     0.027 C 
HETATM   15  C   UNL     1      44.038 -20.462   6.709  1.00  0.00     0.002 C 
HETATM   16  C   UNL     1      44.448 -20.292   5.254  1.00  0.00     0.002 C 
HETATM   17  C   UNL     1      44.857 -18.824   5.107  1.00  0.00     0.027 C 
ENDBRANCH  11  13
ENDBRANCH   1   2
BRANCH   1  18
HETATM   18  N   UNL     1      44.514 -13.286   8.730  1.00  0.00    -0.337 N 
HETATM   19  C   UNL     1      43.861 -12.182   9.211  1.00  0.00     0.317 C 
HETATM   20  N   UNL     1      43.601 -12.294  10.550  1.00  0.00    -0.334 N 
HETATM   21  O   UNL     1      43.570 -11.224   8.509  1.00  0.00    -0.247 OA
HETATM   22  H   UNL     1      44.250 -12.902  11.029  1.00  0.00     0.165 HD
HETATM   23  H   UNL     1      44.378 -14.165   9.214  1.00  0.00     0.164 HD
BRANCH  20  24
HETATM   24  C   UNL     1      43.010 -11.216  11.356  1.00  0.00     0.035 C 
HETATM   25  C   UNL     1      41.554 -10.895  10.929  1.00  0.00     0.035 C 
HETATM   26  C   UNL     1      40.956  -9.791  11.822  1.00  0.00    -0.012 C 
HETATM   27  C   UNL     1      41.822  -8.525  11.707  1.00  0.00     0.009 C 
HETATM   28  C   UNL     1      40.945 -10.269  13.281  1.00  0.00     0.009 C 
HETATM   29  C   UNL     1      43.259  -8.822  12.167  1.00  0.00    -0.012 C 
HETATM   30  C   UNL     1      43.859  -9.923  11.275  1.00  0.00     0.035 C 
HETATM   31  C   UNL     1      43.235  -9.309  13.625  1.00  0.00     0.009 C 
HETATM   32  C   UNL     1      42.378 -10.580  13.741  1.00  0.00    -0.012 C 
HETATM   33  C   UNL     1      42.972 -11.675  12.839  1.00  0.00     0.035 C 
ENDBRANCH  20  24
ENDBRANCH   1  18
TORSDOF 4
ENDMDL
MODEL 3
REMARK VINA RESULT:      -9.3      5.011      9.725
REMARK  4 active torsions:
REMARK  status: ('A' for Active; 'I' for Inactive)
REMARK    1  A    between atoms: N_7  and  C_8 
REMARK    2  A    between atoms: C_14  and  C_15 
REMARK    3  A    between atoms: C_15  and  N_16 
REMARK       I    between atoms: N_16  and  C_17 
REMARK       I    between atoms: C_17  and  N_18 
REMARK    4  A    between atoms: N_18  and  C_19 
ROOT
HETATM    1  C   UNL     1      44.794 -13.419   7.313  1.00  0.00     0.186 C 
ENDROOT
BRANCH   1   2
HETATM    2  C   UNL     1      43.718 -14.074   6.452  1.00  0.00     0.084 C 
HETATM    3  C   UNL     1      43.773 -15.540   6.271  1.00  0.00     0.008 A 
HETATM    4  C   UNL     1      44.802 -16.339   6.790  1.00  0.00     0.014 A 
HETATM    5  C   UNL     1      42.742 -16.129   5.550  1.00  0.00     0.046 A 
HETATM    6  C   UNL     1      44.782 -17.723   6.593  1.00  0.00     0.001 A 
HETATM    7  C   UNL     1      43.740 -18.311   5.879  1.00  0.00     0.001 A 
HETATM    8  C   UNL     1      42.720 -17.518   5.355  1.00  0.00     0.018 A 
HETATM    9  C   UNL     1      41.682 -15.284   4.976  1.00  0.00     0.275 C 
HETATM   10  O   UNL     1      40.742 -15.821   4.393  1.00  0.00    -0.266 OA
HETATM   11  N   UNL     1      41.835 -13.905   5.119  1.00  0.00    -0.229 N 
HETATM   12  N   UNL     1      42.813 -13.322   5.896  1.00  0.00    -0.171 NA
BRANCH  11  13
HETATM   13  C   UNL     1      40.793 -13.023   4.593  1.00  0.00     0.114 C 
HETATM   14  C   UNL     1      39.763 -12.634   5.655  1.00  0.00     0.027 C 
HETATM   15  C   UNL     1      39.113 -11.399   5.057  1.00  0.00     0.002 C 
HETATM   16  C   UNL     1      40.287 -10.629   4.470  1.00  0.00     0.002 C 
HETATM   17  C   UNL     1      41.289 -11.690   4.010  1.00  0.00     0.027 C 
ENDBRANCH  11  13
ENDBRANCH   1   2
BRANCH   1  18
HETATM   18  N   UNL     1      44.442 -13.376   8.715  1.00  0.00    -0.337 N 
HETATM   19  C   UNL     1      43.897 -12.227   9.224  1.00  0.00     0.317 C 
HETATM   20  N   UNL     1      43.533 -12.379  10.534  1.00  0.00    -0.334 N 
HETATM   21  O   UNL     1      43.775 -11.203   8.567  1.00  0.00    -0.247 OA
HETATM   22  H   UNL     1      44.067 -13.090  11.013  1.00  0.00     0.165 HD
HETATM   23  H   UNL     1      44.166 -14.256   9.133  1.00  0.00     0.164 HD
BRANCH  20  24
HETATM   24  C   UNL     1      43.023 -11.281  11.369  1.00  0.00     0.035 C 
HETATM   25  C   UNL     1      43.904 -10.009  11.268  1.00  0.00     0.035 C 
HETATM   26  C   UNL     1      43.315  -8.871  12.122  1.00  0.00    -0.012 C 
HETATM   27  C   UNL     1      43.233  -9.330  13.588  1.00  0.00     0.009 C 
HETATM   28  C   UNL     1      41.905  -8.533  11.615  1.00  0.00     0.009 C 
HETATM   29  C   UNL     1      42.327 -10.568  13.705  1.00  0.00    -0.012 C 
HETATM   30  C   UNL     1      42.916 -11.707  12.854  1.00  0.00     0.035 C 
HETATM   31  C   UNL     1      40.922 -10.221  13.185  1.00  0.00     0.009 C 
HETATM   32  C   UNL     1      41.001  -9.770  11.718  1.00  0.00    -0.012 C 
HETATM   33  C   UNL     1      41.601 -10.906  10.872  1.00  0.00     0.035 C 
ENDBRANCH  20  24
ENDBRANCH   1  18
TORSDOF 4
ENDMDL
MODEL 4
REMARK VINA RESULT:      -8.9      0.967      1.712
REMARK  4 active torsions:
REMARK  status: ('A' for Active; 'I' for Inactive)
REMARK    1  A    between atoms: N_7  and  C_8 
REMARK    2  A    between atoms: C_14  and  C_15 
REMARK    3  A    between atoms: C_15  and  N_16 
REMARK       I    between atoms: N_16  and  C_17 
REMARK       I    between atoms: C_17  and  N_18 
REMARK    4  A    between atoms: N_18  and  C_19 
ROOT
HETATM    1  C   UNL     1      41.290 -17.365   1.706  1.00  0.00     0.186 C 
ENDROOT
BRANCH   1   2
HETATM    2  C   UNL     1      42.212 -17.641   2.890  1.00  0.00     0.084 C 
HETATM    3  C   UNL     1      43.024 -18.876   2.863  1.00  0.00     0.008 A 
HETATM    4  C   UNL     1      42.932 -19.832   1.841  1.00  0.00     0.014 A 
HETATM    5  C   UNL     1      43.915 -19.073   3.910  1.00  0.00     0.046 A 
HETATM    6  C   UNL     1      43.742 -20.970   1.872  1.00  0.00     0.001 A 
HETATM    7  C   UNL     1      44.643 -21.159   2.918  1.00  0.00     0.001 A 
HETATM    8  C   UNL     1      44.731 -20.213   3.938  1.00  0.00     0.018 A 
HETATM    9  C   UNL     1      43.985 -18.085   5.000  1.00  0.00     0.275 C 
HETATM   10  O   UNL     1      44.820 -18.237   5.889  1.00  0.00    -0.266 OA
HETATM   11  N   UNL     1      43.063 -17.038   4.955  1.00  0.00    -0.229 N 
HETATM   12  N   UNL     1      42.233 -16.798   3.882  1.00  0.00    -0.171 NA
BRANCH  11  13
HETATM   13  C   UNL     1      43.113 -16.014   5.998  1.00  0.00     0.114 C 
HETATM   14  C   UNL     1      44.534 -15.512   6.262  1.00  0.00     0.027 C 
HETATM   15  C   UNL     1      44.298 -14.188   6.968  1.00  0.00     0.002 C 
HETATM   16  C   UNL     1      43.147 -13.571   6.187  1.00  0.00     0.002 C 
HETATM   17  C   UNL     1      42.288 -14.747   5.716  1.00  0.00     0.027 C 
ENDBRANCH  11  13
ENDBRANCH   1   2
BRANCH   1  18
HETATM   18  N   UNL     1      41.926 -16.580   0.672  1.00  0.00    -0.337 N 
HETATM   19  C   UNL     1      41.320 -15.423   0.255  1.00  0.00     0.317 C 
HETATM   20  N   UNL     1      42.091 -14.751  -0.655  1.00  0.00    -0.334 N 
HETATM   21  O   UNL     1      40.220 -15.069   0.654  1.00  0.00    -0.247 OA
HETATM   22  H   UNL     1      42.716 -15.356  -1.168  1.00  0.00     0.165 HD
HETATM   23  H   UNL     1      42.936 -16.624   0.635  1.00  0.00     0.164 HD
BRANCH  20  24
HETATM   24  C   UNL     1      41.647 -13.537  -1.355  1.00  0.00     0.035 C 
HETATM   25  C   UNL     1      42.713 -13.011  -2.352  1.00  0.00     0.035 C 
HETATM   26  C   UNL     1      42.196 -11.765  -3.094  1.00  0.00    -0.012 C 
HETATM   27  C   UNL     1      41.860 -10.669  -2.068  1.00  0.00     0.009 C 
HETATM   28  C   UNL     1      40.928 -12.131  -3.879  1.00  0.00     0.009 C 
HETATM   29  C   UNL     1      40.774 -11.166  -1.099  1.00  0.00    -0.012 C 
HETATM   30  C   UNL     1      41.290 -12.410  -0.354  1.00  0.00     0.035 C 
HETATM   31  C   UNL     1      39.514 -11.539  -1.897  1.00  0.00     0.009 C 
HETATM   32  C   UNL     1      39.844 -12.640  -2.917  1.00  0.00    -0.012 C 
HETATM   33  C   UNL     1      40.371 -13.878  -2.171  1.00  0.00     0.035 C 
ENDBRANCH  20  24
ENDBRANCH   1  18
TORSDOF 4
ENDMDL
MODEL 5
REMARK VINA RESULT:      -8.8      5.105     10.096
REMARK  4 active torsions:
REMARK  status: ('A' for Active; 'I' for Inactive)
REMARK    1  A    between atoms: N_7  and  C_8 
REMARK    2  A    between atoms: C_14  and  C_15 
REMARK    3  A    between atoms: C_15  and  N_16 
REMARK       I    between atoms: N_16  and  C_17 
REMARK       I    between atoms: C_17  and  N_18 
REMARK    4  A    between atoms: N_18  and  C_19 
ROOT
HETATM    1  C   UNL     1      41.201 -11.622   6.020  1.00  0.00     0.186 C 
ENDROOT
BRANCH   1   2
HETATM    2  C   UNL     1      41.057 -12.942   5.268  1.00  0.00     0.084 C 
HETATM    3  C   UNL     1      40.174 -12.971   4.082  1.00  0.00     0.008 A 
HETATM    4  C   UNL     1      39.414 -11.869   3.665  1.00  0.00     0.014 A 
HETATM    5  C   UNL     1      40.115 -14.159   3.365  1.00  0.00     0.046 A 
HETATM    6  C   UNL     1      38.612 -11.964   2.524  1.00  0.00     0.001 A 
HETATM    7  C   UNL     1      38.564 -13.153   1.800  1.00  0.00     0.001 A 
HETATM    8  C   UNL     1      39.313 -14.252   2.218  1.00  0.00     0.018 A 
HETATM    9  C   UNL     1      40.886 -15.325   3.825  1.00  0.00     0.275 C 
HETATM   10  O   UNL     1      40.876 -16.352   3.149  1.00  0.00    -0.266 OA
HETATM   11  N   UNL     1      41.570 -15.186   5.034  1.00  0.00    -0.229 N 
HETATM   12  N   UNL     1      41.692 -13.989   5.707  1.00  0.00    -0.171 NA
BRANCH  11  13
HETATM   13  C   UNL     1      42.376 -16.305   5.519  1.00  0.00     0.114 C 
HETATM   14  C   UNL     1      43.755 -15.865   6.014  1.00  0.00     0.027 C 
HETATM   15  C   UNL     1      44.192 -17.034   6.879  1.00  0.00     0.002 C 
HETATM   16  C   UNL     1      42.926 -17.404   7.638  1.00  0.00     0.002 C 
HETATM   17  C   UNL     1      41.767 -17.098   6.686  1.00  0.00     0.027 C 
ENDBRANCH  11  13
ENDBRANCH   1   2
BRANCH   1  18
HETATM   18  N   UNL     1      40.764 -11.710   7.396  1.00  0.00    -0.337 N 
HETATM   19  C   UNL     1      41.388 -10.933   8.337  1.00  0.00     0.317 C 
HETATM   20  N   UNL     1      40.799 -11.061   9.565  1.00  0.00    -0.334 N 
HETATM   21  O   UNL     1      42.358 -10.233   8.082  1.00  0.00    -0.247 OA
HETATM   22  H   UNL     1      40.329 -11.946   9.689  1.00  0.00     0.165 HD
HETATM   23  H   UNL     1      39.789 -11.937   7.541  1.00  0.00     0.164 HD
BRANCH  20  24
HETATM   24  C   UNL     1      41.322 -10.430  10.786  1.00  0.00     0.035 C 
HETATM   25  C   UNL     1      41.090  -8.897  10.802  1.00  0.00     0.035 C 
HETATM   26  C   UNL     1      41.614  -8.281  12.112  1.00  0.00    -0.012 C 
HETATM   27  C   UNL     1      43.117  -8.579  12.245  1.00  0.00     0.009 C 
HETATM   28  C   UNL     1      40.866  -8.902  13.300  1.00  0.00     0.009 C 
HETATM   29  C   UNL     1      43.356 -10.098  12.272  1.00  0.00    -0.012 C 
HETATM   30  C   UNL     1      42.835 -10.716  10.962  1.00  0.00     0.035 C 
HETATM   31  C   UNL     1      42.594 -10.710  13.459  1.00  0.00     0.009 C 
HETATM   32  C   UNL     1      41.090 -10.422  13.324  1.00  0.00    -0.012 C 
HETATM   33  C   UNL     1      40.575 -11.029  12.008  1.00  0.00     0.035 C 
ENDBRANCH  20  24
ENDBRANCH   1  18
TORSDOF 4
ENDMDL
MODEL 6
REMARK VINA RESULT:      -8.7      5.310      9.048
REMARK  4 active torsions:
REMARK  status: ('A' for Active; 'I' for Inactive)
REMARK    1  A    between atoms: N_7  and  C_8 
REMARK    2  A    between atoms: C_14  and  C_15 
REMARK    3  A    between atoms: C_15  and  N_16 
REMARK       I    between atoms: N_16  and  C_17 
REMARK       I    between atoms: C_17  and  N_18 
REMARK    4  A    between atoms: N_18  and  C_19 
ROOT
HETATM    1  C   UNL     1      41.693 -10.892   7.184  1.00  0.00     0.186 C 
ENDROOT
BRANCH   1   2
HETATM    2  C   UNL     1      41.866 -10.480   8.643  1.00  0.00     0.084 C 
HETATM    3  C   UNL     1      43.131 -10.839   9.318  1.00  0.00     0.008 A 
HETATM    4  C   UNL     1      44.139 -11.597   8.707  1.00  0.00     0.014 A 
HETATM    5  C   UNL     1      43.304 -10.389  10.621  1.00  0.00     0.046 A 
HETATM    6  C   UNL     1      45.317 -11.886   9.401  1.00  0.00     0.001 A 
HETATM    7  C   UNL     1      45.492 -11.423  10.703  1.00  0.00     0.001 A 
HETATM    8  C   UNL     1      44.487 -10.676  11.316  1.00  0.00     0.018 A 
HETATM    9  C   UNL     1      42.229  -9.623  11.274  1.00  0.00     0.275 C 
HETATM   10  O   UNL     1      42.417  -9.177  12.404  1.00  0.00    -0.266 OA
HETATM   11  N   UNL     1      41.041  -9.476  10.557  1.00  0.00    -0.229 N 
HETATM   12  N   UNL     1      40.894  -9.854   9.240  1.00  0.00    -0.171 NA
BRANCH  11  13
HETATM   13  C   UNL     1      39.954  -8.697  11.149  1.00  0.00     0.114 C 
HETATM   14  C   UNL     1      39.121  -7.958  10.100  1.00  0.00     0.027 C 
HETATM   15  C   UNL     1      37.836  -7.649  10.846  1.00  0.00     0.002 C 
HETATM   16  C   UNL     1      37.562  -8.928  11.624  1.00  0.00     0.002 C 
HETATM   17  C   UNL     1      38.936  -9.505  11.970  1.00  0.00     0.027 C 
ENDBRANCH  11  13
ENDBRANCH   1   2
BRANCH   1  18
HETATM   18  N   UNL     1      41.221 -12.251   7.037  1.00  0.00    -0.337 N 
HETATM   19  C   UNL     1      41.861 -13.080   6.153  1.00  0.00     0.317 C 
HETATM   20  N   UNL     1      41.358 -14.352   6.201  1.00  0.00    -0.334 N 
HETATM   21  O   UNL     1      42.758 -12.698   5.416  1.00  0.00    -0.247 OA
HETATM   22  H   UNL     1      40.400 -14.387   6.518  1.00  0.00     0.165 HD
HETATM   23  H   UNL     1      40.800 -12.669   7.858  1.00  0.00     0.164 HD
BRANCH  20  24
HETATM   24  C   UNL     1      41.777 -15.426   5.289  1.00  0.00     0.035 C 
HETATM   25  C   UNL     1      43.262 -15.823   5.491  1.00  0.00     0.035 C 
HETATM   26  C   UNL     1      43.650 -16.976   4.547  1.00  0.00    -0.012 C 
HETATM   27  C   UNL     1      43.425 -16.535   3.091  1.00  0.00     0.009 C 
HETATM   28  C   UNL     1      42.771 -18.198   4.850  1.00  0.00     0.009 C 
HETATM   29  C   UNL     1      41.946 -16.178   2.869  1.00  0.00    -0.012 C 
HETATM   30  C   UNL     1      41.556 -15.024   3.809  1.00  0.00     0.035 C 
HETATM   31  C   UNL     1      41.074 -17.405   3.185  1.00  0.00     0.009 C 
HETATM   32  C   UNL     1      41.291 -17.842   4.642  1.00  0.00    -0.012 C 
HETATM   33  C   UNL     1      40.913 -16.682   5.580  1.00  0.00     0.035 C 
ENDBRANCH  20  24
ENDBRANCH   1  18
TORSDOF 4
ENDMDL
MODEL 7
REMARK VINA RESULT:      -8.6      5.285      9.499
REMARK  4 active torsions:
REMARK  status: ('A' for Active; 'I' for Inactive)
REMARK    1  A    between atoms: N_7  and  C_8 
REMARK    2  A    between atoms: C_14  and  C_15 
REMARK    3  A    between atoms: C_15  and  N_16 
REMARK       I    between atoms: N_16  and  C_17 
REMARK       I    between atoms: C_17  and  N_18 
REMARK    4  A    between atoms: N_18  and  C_19 
ROOT
HETATM    1  C   UNL     1      39.568 -10.915   7.899  1.00  0.00     0.186 C 
ENDROOT
BRANCH   1   2
HETATM    2  C   UNL     1      40.309 -10.692   9.214  1.00  0.00     0.084 C 
HETATM    3  C   UNL     1      39.582 -10.022  10.314  1.00  0.00     0.008 A 
HETATM    4  C   UNL     1      38.280  -9.521  10.179  1.00  0.00     0.014 A 
HETATM    5  C   UNL     1      40.245  -9.897  11.528  1.00  0.00     0.046 A 
HETATM    6  C   UNL     1      37.648  -8.912  11.267  1.00  0.00     0.001 A 
HETATM    7  C   UNL     1      38.311  -8.800  12.487  1.00  0.00     0.001 A 
HETATM    8  C   UNL     1      39.609  -9.290  12.620  1.00  0.00     0.018 A 
HETATM    9  C   UNL     1      41.626 -10.391  11.656  1.00  0.00     0.275 C 
HETATM   10  O   UNL     1      42.181 -10.333  12.752  1.00  0.00    -0.266 OA
HETATM   11  N   UNL     1      42.226 -10.881  10.495  1.00  0.00    -0.229 N 
HETATM   12  N   UNL     1      41.549 -11.076   9.311  1.00  0.00    -0.171 NA
BRANCH  11  13
HETATM   13  C   UNL     1      43.586 -11.413  10.577  1.00  0.00     0.114 C 
HETATM   14  C   UNL     1      43.974 -12.227   9.341  1.00  0.00     0.027 C 
HETATM   15  C   UNL     1      45.490 -12.250   9.415  1.00  0.00     0.002 C 
HETATM   16  C   UNL     1      45.845 -10.830   9.831  1.00  0.00     0.002 C 
HETATM   17  C   UNL     1      44.696 -10.361  10.727  1.00  0.00     0.027 C 
ENDBRANCH  11  13
ENDBRANCH   1   2
BRANCH   1  18
HETATM   18  N   UNL     1      39.455 -12.313   7.549  1.00  0.00    -0.337 N 
HETATM   19  C   UNL     1      40.329 -12.836   6.632  1.00  0.00     0.317 C 
HETATM   20  N   UNL     1      40.154 -14.186   6.483  1.00  0.00    -0.334 N 
HETATM   21  O   UNL     1      41.145 -12.155   6.029  1.00  0.00    -0.247 OA
HETATM   22  H   UNL     1      39.218 -14.490   6.707  1.00  0.00     0.165 HD
HETATM   23  H   UNL     1      39.105 -12.928   8.273  1.00  0.00     0.164 HD
BRANCH  20  24
HETATM   24  C   UNL     1      40.876 -14.993   5.489  1.00  0.00     0.035 C 
HETATM   25  C   UNL     1      40.445 -14.660   4.036  1.00  0.00     0.035 C 
HETATM   26  C   UNL     1      41.252 -15.496   3.025  1.00  0.00    -0.012 C 
HETATM   27  C   UNL     1      41.020 -16.990   3.305  1.00  0.00     0.009 C 
HETATM   28  C   UNL     1      42.746 -15.175   3.179  1.00  0.00     0.009 C 
HETATM   29  C   UNL     1      41.482 -17.340   4.730  1.00  0.00    -0.012 C 
HETATM   30  C   UNL     1      40.675 -16.508   5.742  1.00  0.00     0.035 C 
HETATM   31  C   UNL     1      42.976 -17.006   4.875  1.00  0.00     0.009 C 
HETATM   32  C   UNL     1      43.209 -15.511   4.605  1.00  0.00    -0.012 C 
HETATM   33  C   UNL     1      42.392 -14.682   5.610  1.00  0.00     0.035 C 
ENDBRANCH  20  24
ENDBRANCH   1  18
TORSDOF 4
ENDMDL
MODEL 8
REMARK VINA RESULT:      -8.4      5.072     10.074
REMARK  4 active torsions:
REMARK  status: ('A' for Active; 'I' for Inactive)
REMARK    1  A    between atoms: N_7  and  C_8 
REMARK    2  A    between atoms: C_14  and  C_15 
REMARK    3  A    between atoms: C_15  and  N_16 
REMARK       I    between atoms: N_16  and  C_17 
REMARK       I    between atoms: C_17  and  N_18 
REMARK    4  A    between atoms: N_18  and  C_19 
ROOT
HETATM    1  C   UNL     1      41.302 -11.237   5.914  1.00  0.00     0.186 C 
ENDROOT
BRANCH   1   2
HETATM    2  C   UNL     1      41.756 -12.414   5.056  1.00  0.00     0.084 C 
HETATM    3  C   UNL     1      41.657 -12.280   3.587  1.00  0.00     0.008 A 
HETATM    4  C   UNL     1      41.100 -11.159   2.955  1.00  0.00     0.014 A 
HETATM    5  C   UNL     1      42.146 -13.329   2.820  1.00  0.00     0.046 A 
HETATM    6  C   UNL     1      41.052 -11.093   1.560  1.00  0.00     0.001 A 
HETATM    7  C   UNL     1      41.555 -12.142   0.793  1.00  0.00     0.001 A 
HETATM    8  C   UNL     1      42.101 -13.261   1.419  1.00  0.00     0.018 A 
HETATM    9  C   UNL     1      42.697 -14.521   3.486  1.00  0.00     0.275 C 
HETATM   10  O   UNL     1      43.185 -15.416   2.798  1.00  0.00    -0.266 OA
HETATM   11  N   UNL     1      42.604 -14.559   4.877  1.00  0.00    -0.229 N 
HETATM   12  N   UNL     1      42.190 -13.491   5.644  1.00  0.00    -0.171 NA
BRANCH  11  13
HETATM   13  C   UNL     1      43.165 -15.708   5.588  1.00  0.00     0.114 C 
HETATM   14  C   UNL     1      43.794 -15.320   6.928  1.00  0.00     0.027 C 
HETATM   15  C   UNL     1      43.853 -16.644   7.669  1.00  0.00     0.002 C 
HETATM   16  C   UNL     1      42.517 -17.294   7.339  1.00  0.00     0.002 C 
HETATM   17  C   UNL     1      42.166 -16.827   5.924  1.00  0.00     0.027 C 
ENDBRANCH  11  13
ENDBRANCH   1   2
BRANCH   1  18
HETATM   18  N   UNL     1      41.092 -11.601   7.298  1.00  0.00    -0.337 N 
HETATM   19  C   UNL     1      41.477 -10.722   8.276  1.00  0.00     0.317 C 
HETATM   20  N   UNL     1      41.124 -11.169   9.521  1.00  0.00    -0.334 N 
HETATM   21  O   UNL     1      42.072  -9.681   8.037  1.00  0.00    -0.247 OA
HETATM   22  H   UNL     1      41.043 -12.174   9.572  1.00  0.00     0.165 HD
HETATM   23  H   UNL     1      40.299 -12.200   7.486  1.00  0.00     0.164 HD
BRANCH  20  24
HETATM   24  C   UNL     1      41.505 -10.487  10.767  1.00  0.00     0.035 C 
HETATM   25  C   UNL     1      40.976  -9.030  10.824  1.00  0.00     0.035 C 
HETATM   26  C   UNL     1      41.360  -8.364  12.159  1.00  0.00    -0.012 C 
HETATM   27  C   UNL     1      42.891  -8.366  12.302  1.00  0.00     0.009 C 
HETATM   28  C   UNL     1      40.739  -9.157  13.318  1.00  0.00     0.009 C 
HETATM   29  C   UNL     1      43.422  -9.810  12.288  1.00  0.00    -0.012 C 
HETATM   30  C   UNL     1      43.043 -10.476  10.954  1.00  0.00     0.035 C 
HETATM   31  C   UNL     1      42.787 -10.596  13.447  1.00  0.00     0.009 C 
HETATM   32  C   UNL     1      41.257 -10.603  13.300  1.00  0.00    -0.012 C 
HETATM   33  C   UNL     1      40.880 -11.259  11.960  1.00  0.00     0.035 C 
ENDBRANCH  20  24
ENDBRANCH   1  18
TORSDOF 4
ENDMDL
MODEL 9
REMARK VINA RESULT:      -8.2      2.880      6.755
REMARK  4 active torsions:
REMARK  status: ('A' for Active; 'I' for Inactive)
REMARK    1  A    between atoms: N_7  and  C_8 
REMARK    2  A    between atoms: C_14  and  C_15 
REMARK    3  A    between atoms: C_15  and  N_16 
REMARK       I    between atoms: N_16  and  C_17 
REMARK       I    between atoms: C_17  and  N_18 
REMARK    4  A    between atoms: N_18  and  C_19 
ROOT
HETATM    1  C   UNL     1      43.113 -15.428   5.198  1.00  0.00     0.186 C 
ENDROOT
BRANCH   1   2
HETATM    2  C   UNL     1      42.595 -16.079   3.919  1.00  0.00     0.084 C 
HETATM    3  C   UNL     1      43.068 -17.442   3.594  1.00  0.00     0.008 A 
HETATM    4  C   UNL     1      44.019 -18.127   4.363  1.00  0.00     0.014 A 
HETATM    5  C   UNL     1      42.527 -18.049   2.468  1.00  0.00     0.046 A 
HETATM    6  C   UNL     1      44.410 -19.421   4.005  1.00  0.00     0.001 A 
HETATM    7  C   UNL     1      43.856 -20.032   2.882  1.00  0.00     0.001 A 
HETATM    8  C   UNL     1      42.917 -19.349   2.111  1.00  0.00     0.018 A 
HETATM    9  C   UNL     1      41.556 -17.314   1.641  1.00  0.00     0.275 C 
HETATM   10  O   UNL     1      41.037 -17.884   0.684  1.00  0.00    -0.266 OA
HETATM   11  N   UNL     1      41.306 -15.989   2.000  1.00  0.00    -0.229 N 
HETATM   12  N   UNL     1      41.781 -15.409   3.156  1.00  0.00    -0.171 NA
BRANCH  11  13
HETATM   13  C   UNL     1      40.325 -15.226   1.229  1.00  0.00     0.114 C 
HETATM   14  C   UNL     1      38.967 -15.139   1.929  1.00  0.00     0.027 C 
HETATM   15  C   UNL     1      38.307 -13.958   1.239  1.00  0.00     0.002 C 
HETATM   16  C   UNL     1      39.436 -12.946   1.114  1.00  0.00     0.002 C 
HETATM   17  C   UNL     1      40.713 -13.769   0.929  1.00  0.00     0.027 C 
ENDBRANCH  11  13
ENDBRANCH   1   2
BRANCH   1  18
HETATM   18  N   UNL     1      42.079 -14.732   5.931  1.00  0.00    -0.337 N 
HETATM   19  C   UNL     1      42.064 -13.362   5.910  1.00  0.00     0.317 C 
HETATM   20  N   UNL     1      40.974 -12.861   6.569  1.00  0.00    -0.334 N 
HETATM   21  O   UNL     1      42.937 -12.697   5.372  1.00  0.00    -0.247 OA
HETATM   22  H   UNL     1      40.619 -13.485   7.279  1.00  0.00     0.165 HD
HETATM   23  H   UNL     1      41.193 -15.214   6.020  1.00  0.00     0.164 HD
BRANCH  20  24
HETATM   24  C   UNL     1      40.755 -11.426   6.801  1.00  0.00     0.035 C 
HETATM   25  C   UNL     1      40.553 -10.641   5.478  1.00  0.00     0.035 C 
HETATM   26  C   UNL     1      40.287  -9.151   5.765  1.00  0.00    -0.012 C 
HETATM   27  C   UNL     1      41.478  -8.565   6.541  1.00  0.00     0.009 C 
HETATM   28  C   UNL     1      39.013  -9.018   6.613  1.00  0.00     0.009 C 
HETATM   29  C   UNL     1      41.661  -9.309   7.874  1.00  0.00    -0.012 C 
HETATM   30  C   UNL     1      41.931 -10.797   7.590  1.00  0.00     0.035 C 
HETATM   31  C   UNL     1      40.377  -9.178   8.709  1.00  0.00     0.009 C 
HETATM   32  C   UNL     1      39.186  -9.772   7.940  1.00  0.00    -0.012 C 
HETATM   33  C   UNL     1      39.464 -11.256   7.647  1.00  0.00     0.035 C 
ENDBRANCH  20  24
ENDBRANCH   1  18
TORSDOF 4
ENDMDL
MODEL 10
REMARK VINA RESULT:      -8.2      2.299      9.025
REMARK  4 active torsions:
REMARK  status: ('A' for Active; 'I' for Inactive)
REMARK    1  A    between atoms: N_7  and  C_8 
REMARK    2  A    between atoms: C_14  and  C_15 
REMARK    3  A    between atoms: C_15  and  N_16 
REMARK       I    between atoms: N_16  and  C_17 
REMARK       I    between atoms: C_17  and  N_18 
REMARK    4  A    between atoms: N_18  and  C_19 
ROOT
HETATM    1  C   UNL     1      41.193 -12.907   0.984  1.00  0.00     0.186 C 
ENDROOT
BRANCH   1   2
HETATM    2  C   UNL     1      41.245 -12.585  -0.506  1.00  0.00     0.084 C 
HETATM    3  C   UNL     1      42.012 -11.395  -0.931  1.00  0.00     0.008 A 
HETATM    4  C   UNL     1      42.626 -10.515  -0.029  1.00  0.00     0.014 A 
HETATM    5  C   UNL     1      42.114 -11.160  -2.297  1.00  0.00     0.046 A 
HETATM    6  C   UNL     1      43.349  -9.417  -0.502  1.00  0.00     0.001 A 
HETATM    7  C   UNL     1      43.459  -9.192  -1.873  1.00  0.00     0.001 A 
HETATM    8  C   UNL     1      42.842 -10.060  -2.772  1.00  0.00     0.018 A 
HETATM    9  C   UNL     1      41.437 -12.065  -3.242  1.00  0.00     0.275 C 
HETATM   10  O   UNL     1      41.586 -11.884  -4.449  1.00  0.00    -0.266 OA
HETATM   11  N   UNL     1      40.643 -13.068  -2.687  1.00  0.00    -0.229 N 
HETATM   12  N   UNL     1      40.600 -13.350  -1.338  1.00  0.00    -0.171 NA
BRANCH  11  13
HETATM   13  C   UNL     1      39.975 -14.012  -3.583  1.00  0.00     0.114 C 
HETATM   14  C   UNL     1      40.324 -15.468  -3.268  1.00  0.00     0.027 C 
HETATM   15  C   UNL     1      39.203 -16.237  -3.946  1.00  0.00     0.002 C 
HETATM   16  C   UNL     1      37.965 -15.412  -3.626  1.00  0.00     0.002 C 
HETATM   17  C   UNL     1      38.439 -13.958  -3.571  1.00  0.00     0.027 C 
ENDBRANCH  11  13
ENDBRANCH   1   2
BRANCH   1  18
HETATM   18  N   UNL     1      42.034 -14.027   1.345  1.00  0.00    -0.337 N 
HETATM   19  C   UNL     1      41.915 -14.563   2.601  1.00  0.00     0.317 C 
HETATM   20  N   UNL     1      42.707 -15.669   2.753  1.00  0.00    -0.334 N 
HETATM   21  O   UNL     1      41.193 -14.081   3.463  1.00  0.00    -0.247 OA
HETATM   22  H   UNL     1      43.509 -15.669   2.141  1.00  0.00     0.165 HD
HETATM   23  H   UNL     1      42.302 -14.646   0.591  1.00  0.00     0.164 HD
BRANCH  20  24
HETATM   24  C   UNL     1      42.866 -16.385   4.028  1.00  0.00     0.035 C 
HETATM   25  C   UNL     1      41.552 -17.070   4.485  1.00  0.00     0.035 C 
HETATM   26  C   UNL     1      41.770 -17.841   5.800  1.00  0.00    -0.012 C 
HETATM   27  C   UNL     1      42.250 -16.864   6.886  1.00  0.00     0.009 C 
HETATM   28  C   UNL     1      42.837 -18.924   5.582  1.00  0.00     0.009 C 
HETATM   29  C   UNL     1      43.575 -16.209   6.460  1.00  0.00    -0.012 C 
HETATM   30  C   UNL     1      43.359 -15.435   5.148  1.00  0.00     0.035 C 
HETATM   31  C   UNL     1      44.633 -17.302   6.235  1.00  0.00     0.009 C 
HETATM   32  C   UNL     1      44.159 -18.276   5.144  1.00  0.00    -0.012 C 
HETATM   33  C   UNL     1      43.932 -17.497   3.836  1.00  0.00     0.035 C 
ENDBRANCH  20  24
ENDBRANCH   1  18
TORSDOF 4
ENDMDL
