MODEL 1
REMARK VINA RESULT:      -8.6      0.000      0.000
REMARK  8 active torsions:
REMARK  status: ('A' for Active; 'I' for Inactive)
REMARK    1  A    between atoms: C_2  and  C_3 
REMARK    2  A    between atoms: C_3  and  N_4 
REMARK    3  A    between atoms: C_7  and  C_8 
REMARK       I    between atoms: C_8  and  N_9 
REMARK    4  A    between atoms: N_9  and  N_10 
REMARK       I    between atoms: N_10  and  C_11 
REMARK    5  A    between atoms: C_11  and  C_12 
REMARK    6  A    between atoms: C_12  and  O_13 
REMARK    7  A    between atoms: O_13  and  C_14 
REMARK    8  A    between atoms: C_23  and  C_24 
ROOT
HETATM    1  C   UNL     1      43.955 -16.349   7.232  1.00  0.00     0.273 C 
HETATM    2  N   UNL     1      44.195 -15.049   6.828  1.00  0.00    -0.263 N 
HETATM    3  O   UNL     1      43.584 -16.641   8.365  1.00  0.00    -0.266 OA
HETATM    4  H   UNL     1      44.745 -14.872   5.988  1.00  0.00     0.190 HD
ENDROOT
BRANCH   2   5
HETATM    5  N   UNL     1      44.221 -14.043   7.807  1.00  0.00    -0.265 N 
HETATM    6  C   UNL     1      45.297 -13.178   7.809  1.00  0.00     0.260 C 
HETATM    7  O   UNL     1      46.126 -13.147   6.899  1.00  0.00    -0.269 OA
HETATM    8  H   UNL     1      43.745 -14.244   8.688  1.00  0.00     0.190 HD
BRANCH   6   9
HETATM    9  C   UNL     1      45.367 -12.245   9.015  1.00  0.00     0.280 C 
BRANCH   9  10
HETATM   10  O   UNL     1      44.690 -12.791  10.142  1.00  0.00    -0.342 OA
BRANCH  10  11
HETATM   11  C   UNL     1      44.135 -11.893  11.014  1.00  0.00     0.069 A 
HETATM   12  C   UNL     1      44.257 -10.555  10.637  1.00  0.00     0.037 A 
HETATM   13  C   UNL     1      43.746  -9.536  11.445  1.00  0.00     0.009 A 
HETATM   14  C   UNL     1      43.098  -9.845  12.645  1.00  0.00    -0.062 A 
HETATM   15  C   UNL     1      42.543  -8.766  13.526  1.00  0.00     0.048 C 
HETATM   16  C   UNL     1      42.960 -11.189  13.012  1.00  0.00     0.009 A 
HETATM   17  C   UNL     1      43.472 -12.208  12.201  1.00  0.00     0.037 A 
ENDBRANCH  10  11
ENDBRANCH   9  10
ENDBRANCH   6   9
ENDBRANCH   2   5
BRANCH   1  18
HETATM   18  C   UNL     1      44.146 -17.311   6.171  1.00  0.00     0.077 A 
HETATM   19  C   UNL     1      45.106 -18.346   6.182  1.00  0.00     0.158 A 
HETATM   20  N   UNL     1      45.069 -19.100   5.087  1.00  0.00    -0.183 NA
HETATM   21  N   UNL     1      44.089 -18.547   4.344  1.00  0.00    -0.268 N 
HETATM   22  C   UNL     1      43.480 -17.473   4.965  1.00  0.00     0.052 A 
BRANCH  21  23
HETATM   23  C   UNL     1      43.799 -19.092   3.017  1.00  0.00     0.106 C 
HETATM   24  C   UNL     1      44.296 -20.532   2.824  1.00  0.00     0.034 C 
BRANCH  23  25
HETATM   25  C   UNL     1      44.280 -18.152   1.895  1.00  0.00     0.022 C 
HETATM   26  C   UNL     1      43.175 -17.579   1.015  1.00  0.00     0.007 C 
ENDBRANCH  23  25
ENDBRANCH  21  23
BRANCH  22  27
HETATM   27  C   UNL     1      42.304 -16.690   4.379  1.00  0.00     0.038 A 
HETATM   28  C   UNL     1      40.945 -17.345   4.268  1.00  0.00     0.011 A 
HETATM   29  C   UNL     1      41.156 -16.249   5.256  1.00  0.00     0.011 A 
ENDBRANCH  22  27
ENDBRANCH   1  18
TORSDOF 8
ENDMDL
MODEL 2
REMARK VINA RESULT:      -8.2      1.132      1.777
REMARK  8 active torsions:
REMARK  status: ('A' for Active; 'I' for Inactive)
REMARK    1  A    between atoms: C_2  and  C_3 
REMARK    2  A    between atoms: C_3  and  N_4 
REMARK    3  A    between atoms: C_7  and  C_8 
REMARK       I    between atoms: C_8  and  N_9 
REMARK    4  A    between atoms: N_9  and  N_10 
REMARK       I    between atoms: N_10  and  C_11 
REMARK    5  A    between atoms: C_11  and  C_12 
REMARK    6  A    between atoms: C_12  and  O_13 
REMARK    7  A    between atoms: O_13  and  C_14 
REMARK    8  A    between atoms: C_23  and  C_24 
ROOT
HETATM    1  C   UNL     1      43.363 -16.062   6.195  1.00  0.00     0.273 C 
HETATM    2  N   UNL     1      44.470 -15.462   6.763  1.00  0.00    -0.263 N 
HETATM    3  O   UNL     1      42.233 -15.588   6.267  1.00  0.00    -0.266 OA
HETATM    4  H   UNL     1      45.321 -16.003   6.912  1.00  0.00     0.190 HD
ENDROOT
BRANCH   2   5
HETATM    5  N   UNL     1      44.266 -14.381   7.635  1.00  0.00    -0.265 N 
HETATM    6  C   UNL     1      45.178 -13.345   7.596  1.00  0.00     0.260 C 
HETATM    7  O   UNL     1      46.041 -13.253   6.723  1.00  0.00    -0.269 OA
HETATM    8  H   UNL     1      43.780 -14.579   8.512  1.00  0.00     0.190 HD
BRANCH   6   9
HETATM    9  C   UNL     1      45.017 -12.306   8.703  1.00  0.00     0.280 C 
BRANCH   9  10
HETATM   10  O   UNL     1      44.660 -12.910   9.942  1.00  0.00    -0.342 OA
BRANCH  10  11
HETATM   11  C   UNL     1      44.174 -12.074  10.911  1.00  0.00     0.069 A 
HETATM   12  C   UNL     1      44.472 -10.723  10.725  1.00  0.00     0.037 A 
HETATM   13  C   UNL     1      44.047  -9.764  11.648  1.00  0.00     0.009 A 
HETATM   14  C   UNL     1      43.311 -10.147  12.773  1.00  0.00    -0.062 A 
HETATM   15  C   UNL     1      42.846  -9.133  13.776  1.00  0.00     0.048 C 
HETATM   16  C   UNL     1      42.997 -11.499  12.948  1.00  0.00     0.009 A 
HETATM   17  C   UNL     1      43.423 -12.458  12.022  1.00  0.00     0.037 A 
ENDBRANCH  10  11
ENDBRANCH   9  10
ENDBRANCH   6   9
ENDBRANCH   2   5
BRANCH   1  18
HETATM   18  C   UNL     1      43.686 -17.275   5.479  1.00  0.00     0.077 A 
HETATM   19  C   UNL     1      44.214 -18.445   6.066  1.00  0.00     0.158 A 
HETATM   20  N   UNL     1      44.414 -19.422   5.187  1.00  0.00    -0.183 NA
HETATM   21  N   UNL     1      44.031 -18.886   4.011  1.00  0.00    -0.268 N 
HETATM   22  C   UNL     1      43.559 -17.592   4.134  1.00  0.00     0.052 A 
BRANCH  21  23
HETATM   23  C   UNL     1      44.167 -19.671   2.784  1.00  0.00     0.106 C 
HETATM   24  C   UNL     1      42.855 -19.819   2.002  1.00  0.00     0.034 C 
BRANCH  23  25
HETATM   25  C   UNL     1      44.848 -21.029   3.046  1.00  0.00     0.022 C 
HETATM   26  C   UNL     1      44.461 -22.143   2.081  1.00  0.00     0.007 C 
ENDBRANCH  23  25
ENDBRANCH  21  23
BRANCH  22  27
HETATM   27  C   UNL     1      43.007 -16.760   2.976  1.00  0.00     0.038 A 
HETATM   28  C   UNL     1      43.460 -15.327   2.796  1.00  0.00     0.011 A 
HETATM   29  C   UNL     1      43.893 -16.366   1.817  1.00  0.00     0.011 A 
ENDBRANCH  22  27
ENDBRANCH   1  18
TORSDOF 8
ENDMDL
MODEL 3
REMARK VINA RESULT:      -8.1      1.552      2.315
REMARK  8 active torsions:
REMARK  status: ('A' for Active; 'I' for Inactive)
REMARK    1  A    between atoms: C_2  and  C_3 
REMARK    2  A    between atoms: C_3  and  N_4 
REMARK    3  A    between atoms: C_7  and  C_8 
REMARK       I    between atoms: C_8  and  N_9 
REMARK    4  A    between atoms: N_9  and  N_10 
REMARK       I    between atoms: N_10  and  C_11 
REMARK    5  A    between atoms: C_11  and  C_12 
REMARK    6  A    between atoms: C_12  and  O_13 
REMARK    7  A    between atoms: O_13  and  C_14 
REMARK    8  A    between atoms: C_23  and  C_24 
ROOT
HETATM    1  C   UNL     1      42.968 -15.394   5.735  1.00  0.00     0.273 C 
HETATM    2  N   UNL     1      44.101 -14.882   6.338  1.00  0.00    -0.263 N 
HETATM    3  O   UNL     1      41.846 -14.931   5.916  1.00  0.00    -0.266 OA
HETATM    4  H   UNL     1      44.953 -15.441   6.377  1.00  0.00     0.190 HD
ENDROOT
BRANCH   2   5
HETATM    5  N   UNL     1      43.940 -13.932   7.359  1.00  0.00    -0.265 N 
HETATM    6  C   UNL     1      45.051 -13.207   7.742  1.00  0.00     0.260 C 
HETATM    7  O   UNL     1      46.111 -13.236   7.116  1.00  0.00    -0.269 OA
HETATM    8  H   UNL     1      43.205 -14.112   8.046  1.00  0.00     0.190 HD
BRANCH   6   9
HETATM    9  C   UNL     1      44.857 -12.345   8.987  1.00  0.00     0.280 C 
BRANCH   9  10
HETATM   10  O   UNL     1      43.906 -11.308   8.765  1.00  0.00    -0.342 OA
BRANCH  10  11
HETATM   11  C   UNL     1      43.466 -10.636   9.873  1.00  0.00     0.069 A 
HETATM   12  C   UNL     1      44.283 -10.760  10.998  1.00  0.00     0.037 A 
HETATM   13  C   UNL     1      43.942 -10.135  12.200  1.00  0.00     0.009 A 
HETATM   14  C   UNL     1      42.775  -9.370  12.292  1.00  0.00    -0.062 A 
HETATM   15  C   UNL     1      42.391  -8.692  13.573  1.00  0.00     0.048 C 
HETATM   16  C   UNL     1      41.967  -9.232  11.157  1.00  0.00     0.009 A 
HETATM   17  C   UNL     1      42.311  -9.859   9.954  1.00  0.00     0.037 A 
ENDBRANCH  10  11
ENDBRANCH   9  10
ENDBRANCH   6   9
ENDBRANCH   2   5
BRANCH   1  18
HETATM   18  C   UNL     1      43.254 -16.496   4.845  1.00  0.00     0.077 A 
HETATM   19  C   UNL     1      43.461 -16.379   3.453  1.00  0.00     0.158 A 
HETATM   20  N   UNL     1      43.715 -17.544   2.866  1.00  0.00    -0.183 NA
HETATM   21  N   UNL     1      43.659 -18.436   3.876  1.00  0.00    -0.268 N 
HETATM   22  C   UNL     1      43.405 -17.851   5.103  1.00  0.00     0.052 A 
BRANCH  21  23
HETATM   23  C   UNL     1      43.837 -19.860   3.588  1.00  0.00     0.106 C 
HETATM   24  C   UNL     1      45.182 -20.419   4.073  1.00  0.00     0.034 C 
BRANCH  23  25
HETATM   25  C   UNL     1      43.571 -20.182   2.105  1.00  0.00     0.022 C 
HETATM   26  C   UNL     1      43.899 -21.609   1.685  1.00  0.00     0.007 C 
ENDBRANCH  23  25
ENDBRANCH  21  23
BRANCH  22  27
HETATM   27  C   UNL     1      43.341 -18.612   6.427  1.00  0.00     0.038 A 
HETATM   28  C   UNL     1      44.491 -18.519   7.405  1.00  0.00     0.011 A 
HETATM   29  C   UNL     1      43.188 -17.875   7.736  1.00  0.00     0.011 A 
ENDBRANCH  22  27
ENDBRANCH   1  18
TORSDOF 8
ENDMDL
MODEL 4
REMARK VINA RESULT:      -8.0      1.543      2.030
REMARK  8 active torsions:
REMARK  status: ('A' for Active; 'I' for Inactive)
REMARK    1  A    between atoms: C_2  and  C_3 
REMARK    2  A    between atoms: C_3  and  N_4 
REMARK    3  A    between atoms: C_7  and  C_8 
REMARK       I    between atoms: C_8  and  N_9 
REMARK    4  A    between atoms: N_9  and  N_10 
REMARK       I    between atoms: N_10  and  C_11 
REMARK    5  A    between atoms: C_11  and  C_12 
REMARK    6  A    between atoms: C_12  and  O_13 
REMARK    7  A    between atoms: O_13  and  C_14 
REMARK    8  A    between atoms: C_23  and  C_24 
ROOT
HETATM    1  C   UNL     1      43.657 -14.545   6.599  1.00  0.00     0.273 C 
HETATM    2  N   UNL     1      44.273 -14.095   7.751  1.00  0.00    -0.263 N 
HETATM    3  O   UNL     1      42.948 -13.831   5.895  1.00  0.00    -0.266 OA
HETATM    4  H   UNL     1      44.623 -14.765   8.435  1.00  0.00     0.190 HD
ENDROOT
BRANCH   2   5
HETATM    5  N   UNL     1      43.908 -12.834   8.252  1.00  0.00    -0.265 N 
HETATM    6  C   UNL     1      44.685 -12.296   9.258  1.00  0.00     0.260 C 
HETATM    7  O   UNL     1      45.760 -12.786   9.602  1.00  0.00    -0.269 OA
HETATM    8  H   UNL     1      42.918 -12.587   8.203  1.00  0.00     0.190 HD
BRANCH   6   9
HETATM    9  C   UNL     1      44.120 -11.029   9.895  1.00  0.00     0.280 C 
BRANCH   9  10
HETATM   10  O   UNL     1      42.812 -11.242  10.418  1.00  0.00    -0.342 OA
BRANCH  10  11
HETATM   11  C   UNL     1      42.587 -10.806  11.696  1.00  0.00     0.069 A 
HETATM   12  C   UNL     1      43.571  -9.959  12.210  1.00  0.00     0.037 A 
HETATM   13  C   UNL     1      43.470  -9.453  13.508  1.00  0.00     0.009 A 
HETATM   14  C   UNL     1      42.377  -9.788  14.313  1.00  0.00    -0.062 A 
HETATM   15  C   UNL     1      42.251  -9.256  15.710  1.00  0.00     0.048 C 
HETATM   16  C   UNL     1      41.383 -10.622  13.790  1.00  0.00     0.009 A 
HETATM   17  C   UNL     1      41.485 -11.127  12.489  1.00  0.00     0.037 A 
ENDBRANCH  10  11
ENDBRANCH   9  10
ENDBRANCH   6   9
ENDBRANCH   2   5
BRANCH   1  18
HETATM   18  C   UNL     1      43.969 -15.923   6.296  1.00  0.00     0.077 A 
HETATM   19  C   UNL     1      45.092 -16.624   6.786  1.00  0.00     0.158 A 
HETATM   20  N   UNL     1      45.142 -17.884   6.362  1.00  0.00    -0.183 NA
HETATM   21  N   UNL     1      44.054 -18.007   5.576  1.00  0.00    -0.268 N 
HETATM   22  C   UNL     1      43.294 -16.853   5.519  1.00  0.00     0.052 A 
BRANCH  21  23
HETATM   23  C   UNL     1      43.810 -19.270   4.878  1.00  0.00     0.106 C 
HETATM   24  C   UNL     1      44.418 -20.488   5.587  1.00  0.00     0.034 C 
BRANCH  23  25
HETATM   25  C   UNL     1      44.218 -19.193   3.394  1.00  0.00     0.022 C 
HETATM   26  C   UNL     1      44.583 -20.527   2.755  1.00  0.00     0.007 C 
ENDBRANCH  23  25
ENDBRANCH  21  23
BRANCH  22  27
HETATM   27  C   UNL     1      41.979 -16.722   4.749  1.00  0.00     0.038 A 
HETATM   28  C   UNL     1      40.870 -17.724   4.978  1.00  0.00     0.011 A 
HETATM   29  C   UNL     1      40.707 -16.322   5.456  1.00  0.00     0.011 A 
ENDBRANCH  22  27
ENDBRANCH   1  18
TORSDOF 8
ENDMDL
MODEL 5
REMARK VINA RESULT:      -7.9      2.048      2.803
REMARK  8 active torsions:
REMARK  status: ('A' for Active; 'I' for Inactive)
REMARK    1  A    between atoms: C_2  and  C_3 
REMARK    2  A    between atoms: C_3  and  N_4 
REMARK    3  A    between atoms: C_7  and  C_8 
REMARK       I    between atoms: C_8  and  N_9 
REMARK    4  A    between atoms: N_9  and  N_10 
REMARK       I    between atoms: N_10  and  C_11 
REMARK    5  A    between atoms: C_11  and  C_12 
REMARK    6  A    between atoms: C_12  and  O_13 
REMARK    7  A    between atoms: O_13  and  C_14 
REMARK    8  A    between atoms: C_23  and  C_24 
ROOT
HETATM    1  C   UNL     1      42.835 -13.335   6.079  1.00  0.00     0.273 C 
HETATM    2  N   UNL     1      43.891 -13.388   6.969  1.00  0.00    -0.263 N 
HETATM    3  O   UNL     1      41.880 -12.576   6.217  1.00  0.00    -0.266 OA
HETATM    4  H   UNL     1      44.515 -14.194   6.970  1.00  0.00     0.190 HD
ENDROOT
BRANCH   2   5
HETATM    5  N   UNL     1      43.770 -12.701   8.187  1.00  0.00    -0.265 N 
HETATM    6  C   UNL     1      44.906 -12.558   8.958  1.00  0.00     0.260 C 
HETATM    7  O   UNL     1      46.029 -12.848   8.546  1.00  0.00    -0.269 OA
HETATM    8  H   UNL     1      42.859 -12.736   8.649  1.00  0.00     0.190 HD
BRANCH   6   9
HETATM    9  C   UNL     1      44.666 -11.987  10.353  1.00  0.00     0.280 C 
BRANCH   9  10
HETATM   10  O   UNL     1      43.354 -11.448  10.483  1.00  0.00    -0.342 OA
BRANCH  10  11
HETATM   11  C   UNL     1      43.031 -10.915  11.701  1.00  0.00     0.069 A 
HETATM   12  C   UNL     1      41.839 -11.387  12.252  1.00  0.00     0.037 A 
HETATM   13  C   UNL     1      41.386 -10.914  13.486  1.00  0.00     0.009 A 
HETATM   14  C   UNL     1      42.126  -9.960  14.191  1.00  0.00    -0.062 A 
HETATM   15  C   UNL     1      41.656  -9.439  15.516  1.00  0.00     0.048 C 
HETATM   16  C   UNL     1      43.331  -9.502  13.645  1.00  0.00     0.009 A 
HETATM   17  C   UNL     1      43.783  -9.977  12.409  1.00  0.00     0.037 A 
ENDBRANCH  10  11
ENDBRANCH   9  10
ENDBRANCH   6   9
ENDBRANCH   2   5
BRANCH   1  18
HETATM   18  C   UNL     1      42.998 -14.233   4.959  1.00  0.00     0.077 A 
HETATM   19  C   UNL     1      43.579 -13.884   3.721  1.00  0.00     0.158 A 
HETATM   20  N   UNL     1      43.616 -14.897   2.860  1.00  0.00    -0.183 NA
HETATM   21  N   UNL     1      43.041 -15.915   3.532  1.00  0.00    -0.268 N 
HETATM   22  C   UNL     1      42.667 -15.573   4.818  1.00  0.00     0.052 A 
BRANCH  21  23
HETATM   23  C   UNL     1      42.855 -17.203   2.863  1.00  0.00     0.106 C 
HETATM   24  C   UNL     1      43.992 -17.560   1.896  1.00  0.00     0.034 C 
BRANCH  23  25
HETATM   25  C   UNL     1      41.468 -17.309   2.199  1.00  0.00     0.022 C 
HETATM   26  C   UNL     1      41.444 -17.019   0.703  1.00  0.00     0.007 C 
ENDBRANCH  23  25
ENDBRANCH  21  23
BRANCH  22  27
HETATM   27  C   UNL     1      42.043 -16.542   5.823  1.00  0.00     0.038 A 
HETATM   28  C   UNL     1      42.750 -17.836   6.160  1.00  0.00     0.011 A 
HETATM   29  C   UNL     1      42.667 -16.754   7.182  1.00  0.00     0.011 A 
ENDBRANCH  22  27
ENDBRANCH   1  18
TORSDOF 8
ENDMDL
MODEL 6
REMARK VINA RESULT:      -7.7      1.625      2.070
REMARK  8 active torsions:
REMARK  status: ('A' for Active; 'I' for Inactive)
REMARK    1  A    between atoms: C_2  and  C_3 
REMARK    2  A    between atoms: C_3  and  N_4 
REMARK    3  A    between atoms: C_7  and  C_8 
REMARK       I    between atoms: C_8  and  N_9 
REMARK    4  A    between atoms: N_9  and  N_10 
REMARK       I    between atoms: N_10  and  C_11 
REMARK    5  A    between atoms: C_11  and  C_12 
REMARK    6  A    between atoms: C_12  and  O_13 
REMARK    7  A    between atoms: O_13  and  C_14 
REMARK    8  A    between atoms: C_23  and  C_24 
ROOT
HETATM    1  C   UNL     1      42.663 -14.923   6.155  1.00  0.00     0.273 C 
HETATM    2  N   UNL     1      43.828 -14.987   6.894  1.00  0.00    -0.263 N 
HETATM    3  O   UNL     1      41.906 -13.956   6.180  1.00  0.00    -0.266 OA
HETATM    4  H   UNL     1      44.280 -15.887   7.054  1.00  0.00     0.190 HD
ENDROOT
BRANCH   2   5
HETATM    5  N   UNL     1      44.052 -14.003   7.870  1.00  0.00    -0.265 N 
HETATM    6  C   UNL     1      45.211 -13.258   7.775  1.00  0.00     0.260 C 
HETATM    7  O   UNL     1      45.949 -13.301   6.791  1.00  0.00    -0.269 OA
HETATM    8  H   UNL     1      43.642 -14.165   8.791  1.00  0.00     0.190 HD
BRANCH   6   9
HETATM    9  C   UNL     1      45.492 -12.354   8.972  1.00  0.00     0.280 C 
BRANCH   9  10
HETATM   10  O   UNL     1      44.923 -12.875  10.169  1.00  0.00    -0.342 OA
BRANCH  10  11
HETATM   11  C   UNL     1      44.295 -11.976  10.988  1.00  0.00     0.069 A 
HETATM   12  C   UNL     1      44.410 -10.642  10.594  1.00  0.00     0.037 A 
HETATM   13  C   UNL     1      43.827  -9.622  11.349  1.00  0.00     0.009 A 
HETATM   14  C   UNL     1      43.114  -9.925  12.513  1.00  0.00    -0.062 A 
HETATM   15  C   UNL     1      42.482  -8.844  13.339  1.00  0.00     0.048 C 
HETATM   16  C   UNL     1      42.985 -11.264  12.897  1.00  0.00     0.009 A 
HETATM   17  C   UNL     1      43.569 -12.285  12.138  1.00  0.00     0.037 A 
ENDBRANCH  10  11
ENDBRANCH   9  10
ENDBRANCH   6   9
ENDBRANCH   2   5
BRANCH   1  18
HETATM   18  C   UNL     1      42.456 -16.089   5.328  1.00  0.00     0.077 A 
HETATM   19  C   UNL     1      41.853 -17.291   5.760  1.00  0.00     0.158 A 
HETATM   20  N   UNL     1      41.775 -18.207   4.799  1.00  0.00    -0.183 NA
HETATM   21  N   UNL     1      42.346 -17.611   3.733  1.00  0.00    -0.268 N 
HETATM   22  C   UNL     1      42.756 -16.316   3.992  1.00  0.00     0.052 A 
BRANCH  21  23
HETATM   23  C   UNL     1      42.491 -18.358   2.483  1.00  0.00     0.106 C 
HETATM   24  C   UNL     1      43.952 -18.583   2.070  1.00  0.00     0.034 C 
BRANCH  23  25
HETATM   25  C   UNL     1      41.650 -17.743   1.348  1.00  0.00     0.022 C 
HETATM   26  C   UNL     1      40.305 -17.169   1.778  1.00  0.00     0.007 C 
ENDBRANCH  23  25
ENDBRANCH  21  23
BRANCH  22  27
HETATM   27  C   UNL     1      43.385 -15.385   2.955  1.00  0.00     0.038 A 
HETATM   28  C   UNL     1      42.568 -14.257   2.363  1.00  0.00     0.011 A 
HETATM   29  C   UNL     1      43.690 -13.945   3.293  1.00  0.00     0.011 A 
ENDBRANCH  22  27
ENDBRANCH   1  18
TORSDOF 8
ENDMDL
MODEL 7
REMARK VINA RESULT:      -7.6      2.495      3.159
REMARK  8 active torsions:
REMARK  status: ('A' for Active; 'I' for Inactive)
REMARK    1  A    between atoms: C_2  and  C_3 
REMARK    2  A    between atoms: C_3  and  N_4 
REMARK    3  A    between atoms: C_7  and  C_8 
REMARK       I    between atoms: C_8  and  N_9 
REMARK    4  A    between atoms: N_9  and  N_10 
REMARK       I    between atoms: N_10  and  C_11 
REMARK    5  A    between atoms: C_11  and  C_12 
REMARK    6  A    between atoms: C_12  and  O_13 
REMARK    7  A    between atoms: O_13  and  C_14 
REMARK    8  A    between atoms: C_23  and  C_24 
ROOT
HETATM    1  C   UNL     1      43.380 -13.947   6.017  1.00  0.00     0.273 C 
HETATM    2  N   UNL     1      42.437 -12.959   6.222  1.00  0.00    -0.263 N 
HETATM    3  O   UNL     1      44.204 -14.274   6.867  1.00  0.00    -0.266 OA
HETATM    4  H   UNL     1      41.959 -12.539   5.425  1.00  0.00     0.190 HD
ENDROOT
BRANCH   2   5
HETATM    5  N   UNL     1      42.557 -12.151   7.365  1.00  0.00    -0.265 N 
HETATM    6  C   UNL     1      41.730 -11.050   7.461  1.00  0.00     0.260 C 
HETATM    7  O   UNL     1      40.792 -10.854   6.688  1.00  0.00    -0.269 OA
HETATM    8  H   UNL     1      43.473 -12.124   7.816  1.00  0.00     0.190 HD
BRANCH   6   9
HETATM    9  C   UNL     1      42.050 -10.107   8.617  1.00  0.00     0.280 C 
BRANCH   9  10
HETATM   10  O   UNL     1      43.083 -10.627   9.449  1.00  0.00    -0.342 OA
BRANCH  10  11
HETATM   11  C   UNL     1      42.919 -10.464  10.799  1.00  0.00     0.069 A 
HETATM   12  C   UNL     1      41.701 -10.922  11.302  1.00  0.00     0.037 A 
HETATM   13  C   UNL     1      41.401 -10.804  12.661  1.00  0.00     0.009 A 
HETATM   14  C   UNL     1      42.323 -10.227  13.540  1.00  0.00    -0.062 A 
HETATM   15  C   UNL     1      42.019 -10.091  15.002  1.00  0.00     0.048 C 
HETATM   16  C   UNL     1      43.552  -9.786  13.036  1.00  0.00     0.009 A 
HETATM   17  C   UNL     1      43.850  -9.906  11.674  1.00  0.00     0.037 A 
ENDBRANCH  10  11
ENDBRANCH   9  10
ENDBRANCH   6   9
ENDBRANCH   2   5
BRANCH   1  18
HETATM   18  C   UNL     1      43.264 -14.575   4.721  1.00  0.00     0.077 A 
HETATM   19  C   UNL     1      43.282 -13.892   3.486  1.00  0.00     0.158 A 
HETATM   20  N   UNL     1      43.166 -14.705   2.440  1.00  0.00    -0.183 NA
HETATM   21  N   UNL     1      43.054 -15.930   2.992  1.00  0.00    -0.268 N 
HETATM   22  C   UNL     1      43.130 -15.912   4.373  1.00  0.00     0.052 A 
BRANCH  21  23
HETATM   23  C   UNL     1      42.849 -17.092   2.126  1.00  0.00     0.106 C 
HETATM   24  C   UNL     1      44.082 -17.455   1.287  1.00  0.00     0.034 C 
BRANCH  23  25
HETATM   25  C   UNL     1      41.578 -16.949   1.267  1.00  0.00     0.022 C 
HETATM   26  C   UNL     1      40.281 -16.796   2.052  1.00  0.00     0.007 C 
ENDBRANCH  23  25
ENDBRANCH  21  23
BRANCH  22  27
HETATM   27  C   UNL     1      43.089 -17.159   5.257  1.00  0.00     0.038 A 
HETATM   28  C   UNL     1      42.070 -17.257   6.371  1.00  0.00     0.011 A 
HETATM   29  C   UNL     1      41.935 -18.129   5.169  1.00  0.00     0.011 A 
ENDBRANCH  22  27
ENDBRANCH   1  18
TORSDOF 8
ENDMDL
MODEL 8
REMARK VINA RESULT:      -7.6      5.780      9.571
REMARK  8 active torsions:
REMARK  status: ('A' for Active; 'I' for Inactive)
REMARK    1  A    between atoms: C_2  and  C_3 
REMARK    2  A    between atoms: C_3  and  N_4 
REMARK    3  A    between atoms: C_7  and  C_8 
REMARK       I    between atoms: C_8  and  N_9 
REMARK    4  A    between atoms: N_9  and  N_10 
REMARK       I    between atoms: N_10  and  C_11 
REMARK    5  A    between atoms: C_11  and  C_12 
REMARK    6  A    between atoms: C_12  and  O_13 
REMARK    7  A    between atoms: O_13  and  C_14 
REMARK    8  A    between atoms: C_23  and  C_24 
ROOT
HETATM    1  C   UNL     1      40.137 -15.855   1.748  1.00  0.00     0.273 C 
HETATM    2  N   UNL     1      39.949 -15.617   3.096  1.00  0.00    -0.263 N 
HETATM    3  O   UNL     1      40.693 -16.862   1.317  1.00  0.00    -0.266 OA
HETATM    4  H   UNL     1      39.733 -14.675   3.420  1.00  0.00     0.190 HD
ENDROOT
BRANCH   2   5
HETATM    5  N   UNL     1      40.603 -16.451   4.017  1.00  0.00    -0.265 N 
HETATM    6  C   UNL     1      41.774 -15.987   4.582  1.00  0.00     0.260 C 
HETATM    7  O   UNL     1      42.163 -14.827   4.447  1.00  0.00    -0.269 OA
HETATM    8  H   UNL     1      40.474 -17.458   3.901  1.00  0.00     0.190 HD
BRANCH   6   9
HETATM    9  C   UNL     1      42.538 -17.017   5.410  1.00  0.00     0.280 C 
BRANCH   9  10
HETATM   10  O   UNL     1      43.813 -17.306   4.845  1.00  0.00    -0.342 OA
BRANCH  10  11
HETATM   11  C   UNL     1      43.879 -18.388   4.010  1.00  0.00     0.069 A 
HETATM   12  C   UNL     1      44.502 -19.513   4.553  1.00  0.00     0.037 A 
HETATM   13  C   UNL     1      44.648 -20.681   3.801  1.00  0.00     0.009 A 
HETATM   14  C   UNL     1      44.166 -20.741   2.490  1.00  0.00    -0.062 A 
HETATM   15  C   UNL     1      44.314 -21.986   1.666  1.00  0.00     0.048 C 
HETATM   16  C   UNL     1      43.525 -19.618   1.954  1.00  0.00     0.009 A 
HETATM   17  C   UNL     1      43.379 -18.449   2.709  1.00  0.00     0.037 A 
ENDBRANCH  10  11
ENDBRANCH   9  10
ENDBRANCH   6   9
ENDBRANCH   2   5
BRANCH   1  18
HETATM   18  C   UNL     1      39.575 -14.821   0.910  1.00  0.00     0.077 A 
HETATM   19  C   UNL     1      38.445 -14.040   1.236  1.00  0.00     0.158 A 
HETATM   20  N   UNL     1      38.139 -13.151   0.296  1.00  0.00    -0.183 NA
HETATM   21  N   UNL     1      39.064 -13.360  -0.663  1.00  0.00    -0.268 N 
HETATM   22  C   UNL     1      39.974 -14.347  -0.331  1.00  0.00     0.052 A 
BRANCH  21  23
HETATM   23  C   UNL     1      39.003 -12.583  -1.901  1.00  0.00     0.106 C 
HETATM   24  C   UNL     1      39.203 -11.076  -1.689  1.00  0.00     0.034 C 
BRANCH  23  25
HETATM   25  C   UNL     1      37.731 -12.896  -2.712  1.00  0.00     0.022 C 
HETATM   26  C   UNL     1      37.600 -14.341  -3.177  1.00  0.00     0.007 C 
ENDBRANCH  23  25
ENDBRANCH  21  23
BRANCH  22  27
HETATM   27  C   UNL     1      41.162 -14.755  -1.204  1.00  0.00     0.038 A 
HETATM   28  C   UNL     1      40.969 -15.769  -2.311  1.00  0.00     0.011 A 
HETATM   29  C   UNL     1      41.232 -14.343  -2.655  1.00  0.00     0.011 A 
ENDBRANCH  22  27
ENDBRANCH   1  18
TORSDOF 8
ENDMDL
MODEL 9
REMARK VINA RESULT:      -7.6      2.162      9.896
REMARK  8 active torsions:
REMARK  status: ('A' for Active; 'I' for Inactive)
REMARK    1  A    between atoms: C_2  and  C_3 
REMARK    2  A    between atoms: C_3  and  N_4 
REMARK    3  A    between atoms: C_7  and  C_8 
REMARK       I    between atoms: C_8  and  N_9 
REMARK    4  A    between atoms: N_9  and  N_10 
REMARK       I    between atoms: N_10  and  C_11 
REMARK    5  A    between atoms: C_11  and  C_12 
REMARK    6  A    between atoms: C_12  and  O_13 
REMARK    7  A    between atoms: O_13  and  C_14 
REMARK    8  A    between atoms: C_23  and  C_24 
ROOT
HETATM    1  C   UNL     1      44.841 -12.930   8.474  1.00  0.00     0.273 C 
HETATM    2  N   UNL     1      43.964 -13.842   7.918  1.00  0.00    -0.263 N 
HETATM    3  O   UNL     1      45.952 -12.698   8.007  1.00  0.00    -0.266 OA
HETATM    4  H   UNL     1      43.183 -14.197   8.469  1.00  0.00     0.190 HD
ENDROOT
BRANCH   2   5
HETATM    5  N   UNL     1      44.440 -14.690   6.904  1.00  0.00    -0.265 N 
HETATM    6  C   UNL     1      43.862 -15.938   6.789  1.00  0.00     0.260 C 
HETATM    7  O   UNL     1      42.850 -16.262   7.411  1.00  0.00    -0.269 OA
HETATM    8  H   UNL     1      45.413 -14.566   6.618  1.00  0.00     0.190 HD
BRANCH   6   9
HETATM    9  C   UNL     1      44.559 -16.879   5.810  1.00  0.00     0.280 C 
BRANCH   9  10
HETATM   10  O   UNL     1      43.725 -17.195   4.700  1.00  0.00    -0.342 OA
BRANCH  10  11
HETATM   11  C   UNL     1      43.954 -18.398   4.087  1.00  0.00     0.069 A 
HETATM   12  C   UNL     1      43.575 -18.455   2.745  1.00  0.00     0.037 A 
HETATM   13  C   UNL     1      43.742 -19.628   2.006  1.00  0.00     0.009 A 
HETATM   14  C   UNL     1      44.297 -20.765   2.602  1.00  0.00    -0.062 A 
HETATM   15  C   UNL     1      44.483 -22.034   1.825  1.00  0.00     0.048 C 
HETATM   16  C   UNL     1      44.693 -20.700   3.942  1.00  0.00     0.009 A 
HETATM   17  C   UNL     1      44.525 -19.523   4.681  1.00  0.00     0.037 A 
ENDBRANCH  10  11
ENDBRANCH   9  10
ENDBRANCH   6   9
ENDBRANCH   2   5
BRANCH   1  18
HETATM   18  C   UNL     1      44.294 -12.257   9.630  1.00  0.00     0.077 A 
HETATM   19  C   UNL     1      44.634 -12.545  10.969  1.00  0.00     0.158 A 
HETATM   20  N   UNL     1      43.994 -11.775  11.845  1.00  0.00    -0.183 NA
HETATM   21  N   UNL     1      43.216 -10.986  11.076  1.00  0.00    -0.268 N 
HETATM   22  C   UNL     1      43.376 -11.221   9.723  1.00  0.00     0.052 A 
BRANCH  21  23
HETATM   23  C   UNL     1      42.311 -10.030  11.713  1.00  0.00     0.106 C 
HETATM   24  C   UNL     1      43.023  -8.786  12.264  1.00  0.00     0.034 C 
BRANCH  23  25
HETATM   25  C   UNL     1      41.414 -10.706  12.769  1.00  0.00     0.022 C 
HETATM   26  C   UNL     1      40.248 -11.510  12.207  1.00  0.00     0.007 C 
ENDBRANCH  23  25
ENDBRANCH  21  23
BRANCH  22  27
HETATM   27  C   UNL     1      42.662 -10.438   8.620  1.00  0.00     0.038 A 
HETATM   28  C   UNL     1      41.632 -11.128   7.753  1.00  0.00     0.011 A 
HETATM   29  C   UNL     1      41.196 -10.099   8.739  1.00  0.00     0.011 A 
ENDBRANCH  22  27
ENDBRANCH   1  18
TORSDOF 8
ENDMDL
MODEL 10
REMARK VINA RESULT:      -7.5      5.792      9.583
REMARK  8 active torsions:
REMARK  status: ('A' for Active; 'I' for Inactive)
REMARK    1  A    between atoms: C_2  and  C_3 
REMARK    2  A    between atoms: C_3  and  N_4 
REMARK    3  A    between atoms: C_7  and  C_8 
REMARK       I    between atoms: C_8  and  N_9 
REMARK    4  A    between atoms: N_9  and  N_10 
REMARK       I    between atoms: N_10  and  C_11 
REMARK    5  A    between atoms: C_11  and  C_12 
REMARK    6  A    between atoms: C_12  and  O_13 
REMARK    7  A    between atoms: O_13  and  C_14 
REMARK    8  A    between atoms: C_23  and  C_24 
ROOT
HETATM    1  C   UNL     1      41.847 -17.590   1.784  1.00  0.00     0.273 C 
HETATM    2  N   UNL     1      42.675 -16.695   1.134  1.00  0.00    -0.263 N 
HETATM    3  O   UNL     1      40.842 -18.070   1.267  1.00  0.00    -0.266 OA
HETATM    4  H   UNL     1      43.329 -16.126   1.670  1.00  0.00     0.190 HD
ENDROOT
BRANCH   2   5
HETATM    5  N   UNL     1      42.239 -16.150  -0.084  1.00  0.00    -0.265 N 
HETATM    6  C   UNL     1      41.648 -14.902  -0.054  1.00  0.00     0.260 C 
HETATM    7  O   UNL     1      41.650 -14.191   0.951  1.00  0.00    -0.269 OA
HETATM    8  H   UNL     1      41.963 -16.810  -0.813  1.00  0.00     0.190 HD
BRANCH   6   9
HETATM    9  C   UNL     1      41.016 -14.459  -1.370  1.00  0.00     0.280 C 
BRANCH   9  10
HETATM   10  O   UNL     1      42.002 -14.101  -2.333  1.00  0.00    -0.342 OA
BRANCH  10  11
HETATM   11  C   UNL     1      42.184 -12.761  -2.550  1.00  0.00     0.069 A 
HETATM   12  C   UNL     1      41.612 -12.274  -3.726  1.00  0.00     0.037 A 
HETATM   13  C   UNL     1      41.736 -10.926  -4.075  1.00  0.00     0.009 A 
HETATM   14  C   UNL     1      42.434 -10.044  -3.244  1.00  0.00    -0.062 A 
HETATM   15  C   UNL     1      42.578  -8.595  -3.602  1.00  0.00     0.048 C 
HETATM   16  C   UNL     1      42.990 -10.531  -2.057  1.00  0.00     0.009 A 
HETATM   17  C   UNL     1      42.865 -11.881  -1.709  1.00  0.00     0.037 A 
ENDBRANCH  10  11
ENDBRANCH   9  10
ENDBRANCH   6   9
ENDBRANCH   2   5
BRANCH   1  18
HETATM   18  C   UNL     1      42.314 -17.928   3.109  1.00  0.00     0.077 A 
HETATM   19  C   UNL     1      41.752 -17.446   4.311  1.00  0.00     0.158 A 
HETATM   20  N   UNL     1      42.363 -17.916   5.395  1.00  0.00    -0.183 NA
HETATM   21  N   UNL     1      43.344 -18.699   4.902  1.00  0.00    -0.268 N 
HETATM   22  C   UNL     1      43.345 -18.760   3.520  1.00  0.00     0.052 A 
BRANCH  21  23
HETATM   23  C   UNL     1      44.274 -19.351   5.823  1.00  0.00     0.106 C 
HETATM   24  C   UNL     1      43.690 -20.597   6.504  1.00  0.00     0.034 C 
BRANCH  23  25
HETATM   25  C   UNL     1      44.868 -18.355   6.838  1.00  0.00     0.022 C 
HETATM   26  C   UNL     1      44.309 -18.462   8.252  1.00  0.00     0.007 C 
ENDBRANCH  23  25
ENDBRANCH  21  23
BRANCH  22  27
HETATM   27  C   UNL     1      44.309 -19.612   2.694  1.00  0.00     0.038 A 
HETATM   28  C   UNL     1      44.459 -21.087   2.998  1.00  0.00     0.011 A 
HETATM   29  C   UNL     1      43.789 -20.658   1.738  1.00  0.00     0.011 A 
ENDBRANCH  22  27
ENDBRANCH   1  18
TORSDOF 8
ENDMDL
