MODEL 1
REMARK VINA RESULT:      -8.7      0.000      0.000
REMARK  3 active torsions:
REMARK  status: ('A' for Active; 'I' for Inactive)
REMARK    1  A    between atoms: C_4  and  C_5 
REMARK    2  A    between atoms: C_11  and  N_12 
REMARK    3  A    between atoms: C_14  and  C_15 
ROOT
HETATM    1  C   UNL     1      41.510 -15.501   2.709  1.00  0.00    -0.006 A 
HETATM    2  C   UNL     1      42.062 -14.782   3.820  1.00  0.00     0.063 A 
HETATM    3  C   UNL     1      43.007 -15.447   4.609  1.00  0.00     0.165 A 
HETATM    4  N   UNL     1      43.601 -14.886   5.650  1.00  0.00    -0.222 NA
HETATM    5  C   UNL     1      43.269 -13.634   5.951  1.00  0.00     0.237 A 
HETATM    6  N   UNL     1      42.377 -12.888   5.304  1.00  0.00    -0.229 NA
HETATM    7  C   UNL     1      41.780 -13.468   4.257  1.00  0.00     0.117 A 
HETATM    8  N   UNL     1      43.373 -16.703   4.372  1.00  0.00    -0.228 NA
HETATM    9  C   UNL     1      42.839 -17.401   3.348  1.00  0.00     0.070 A 
HETATM   10  C   UNL     1      41.918 -16.824   2.494  1.00  0.00     0.046 A 
ENDROOT
BRANCH   9  11
HETATM   11  C   UNL     1      43.297 -18.799   3.219  1.00  0.00    -0.004 A 
HETATM   12  C   UNL     1      43.915 -19.477   4.289  1.00  0.00     0.053 A 
HETATM   13  C   UNL     1      44.341 -20.776   4.098  1.00  0.00     0.106 A 
HETATM   14  C   UNL     1      44.179 -21.428   2.900  1.00  0.00     0.105 A 
HETATM   15  O   UNL     1      44.962 -21.549   5.030  1.00  0.00    -0.323 OA
HETATM   16  O   UNL     1      44.673 -22.695   2.926  1.00  0.00    -0.323 OA
HETATM   17  C   UNL     1      43.583 -20.815   1.825  1.00  0.00     0.040 A 
HETATM   18  C   UNL     1      45.185 -22.759   4.273  1.00  0.00     0.352 A 
HETATM   19  C   UNL     1      43.147 -19.494   1.989  1.00  0.00     0.017 A 
ENDBRANCH   9  11
BRANCH   1  20
HETATM   20  C   UNL     1      40.528 -14.941   1.766  1.00  0.00    -0.025 A 
HETATM   21  C   UNL     1      40.937 -14.372   0.549  1.00  0.00     0.012 A 
HETATM   22  C   UNL     1      40.000 -13.859  -0.350  1.00  0.00     0.001 A 
HETATM   23  C   UNL     1      38.641 -13.921  -0.054  1.00  0.00     0.000 A 
HETATM   24  C   UNL     1      38.216 -14.494   1.143  1.00  0.00     0.001 A 
HETATM   25  C   UNL     1      39.153 -15.001   2.046  1.00  0.00     0.012 A 
ENDBRANCH   1  20
BRANCH   7  26
HETATM   26  N   UNL     1      40.883 -12.621   3.612  1.00  0.00    -0.286 NA
HETATM   27  H   UNL     1      41.319 -12.294   2.755  1.00  0.00     0.125 HD
HETATM   28  H   UNL     1      40.566 -11.857   4.198  1.00  0.00     0.125 HD
ENDBRANCH   7  26
TORSDOF 3
ENDMDL
MODEL 2
REMARK VINA RESULT:      -8.5      3.954      7.245
REMARK  3 active torsions:
REMARK  status: ('A' for Active; 'I' for Inactive)
REMARK    1  A    between atoms: C_4  and  C_5 
REMARK    2  A    between atoms: C_11  and  N_12 
REMARK    3  A    between atoms: C_14  and  C_15 
ROOT
HETATM    1  C   UNL     1      42.469 -17.833   2.344  1.00  0.00    -0.006 A 
HETATM    2  C   UNL     1      41.911 -17.178   3.492  1.00  0.00     0.063 A 
HETATM    3  C   UNL     1      41.239 -15.971   3.279  1.00  0.00     0.165 A 
HETATM    4  N   UNL     1      40.667 -15.282   4.253  1.00  0.00    -0.222 NA
HETATM    5  C   UNL     1      40.750 -15.770   5.487  1.00  0.00     0.237 A 
HETATM    6  N   UNL     1      41.371 -16.892   5.840  1.00  0.00    -0.229 NA
HETATM    7  C   UNL     1      41.950 -17.577   4.847  1.00  0.00     0.117 A 
HETATM    8  N   UNL     1      41.131 -15.421   2.073  1.00  0.00    -0.228 NA
HETATM    9  C   UNL     1      41.677 -16.011   0.989  1.00  0.00     0.070 A 
HETATM   10  C   UNL     1      42.337 -17.221   1.091  1.00  0.00     0.046 A 
ENDROOT
BRANCH   9  11
HETATM   11  C   UNL     1      41.524 -15.277  -0.283  1.00  0.00    -0.004 A 
HETATM   12  C   UNL     1      41.769 -13.891  -0.373  1.00  0.00     0.053 A 
HETATM   13  C   UNL     1      41.587 -13.259  -1.586  1.00  0.00     0.106 A 
HETATM   14  C   UNL     1      41.178 -13.938  -2.708  1.00  0.00     0.105 A 
HETATM   15  O   UNL     1      41.772 -11.932  -1.821  1.00  0.00    -0.323 OA
HETATM   16  O   UNL     1      41.057 -13.126  -3.792  1.00  0.00    -0.323 OA
HETATM   17  C   UNL     1      40.925 -15.288  -2.677  1.00  0.00     0.040 A 
HETATM   18  C   UNL     1      41.416 -11.852  -3.218  1.00  0.00     0.352 A 
HETATM   19  C   UNL     1      41.096 -15.953  -1.456  1.00  0.00     0.017 A 
ENDBRANCH   9  11
BRANCH   1  20
HETATM   20  C   UNL     1      43.182 -19.119   2.389  1.00  0.00    -0.025 A 
HETATM   21  C   UNL     1      42.649 -20.263   1.773  1.00  0.00     0.012 A 
HETATM   22  C   UNL     1      43.339 -21.478   1.802  1.00  0.00     0.001 A 
HETATM   23  C   UNL     1      44.577 -21.562   2.435  1.00  0.00     0.000 A 
HETATM   24  C   UNL     1      45.126 -20.434   3.042  1.00  0.00     0.001 A 
HETATM   25  C   UNL     1      44.434 -19.222   3.018  1.00  0.00     0.012 A 
ENDBRANCH   1  20
BRANCH   7  26
HETATM   26  N   UNL     1      42.554 -18.752   5.285  1.00  0.00    -0.286 NA
HETATM   27  H   UNL     1      41.897 -19.515   5.147  1.00  0.00     0.125 HD
HETATM   28  H   UNL     1      42.883 -18.697   6.243  1.00  0.00     0.125 HD
ENDBRANCH   7  26
TORSDOF 3
ENDMDL
MODEL 3
REMARK VINA RESULT:      -8.3      1.939      3.703
REMARK  3 active torsions:
REMARK  status: ('A' for Active; 'I' for Inactive)
REMARK    1  A    between atoms: C_4  and  C_5 
REMARK    2  A    between atoms: C_11  and  N_12 
REMARK    3  A    between atoms: C_14  and  C_15 
ROOT
HETATM    1  C   UNL     1      41.606 -15.422   2.964  1.00  0.00    -0.006 A 
HETATM    2  C   UNL     1      41.354 -15.202   1.569  1.00  0.00     0.063 A 
HETATM    3  C   UNL     1      41.666 -16.243   0.689  1.00  0.00     0.165 A 
HETATM    4  N   UNL     1      41.463 -16.169  -0.617  1.00  0.00    -0.222 NA
HETATM    5  C   UNL     1      40.945 -15.043  -1.100  1.00  0.00     0.237 A 
HETATM    6  N   UNL     1      40.619 -13.968  -0.387  1.00  0.00    -0.229 NA
HETATM    7  C   UNL     1      40.833 -14.054   0.931  1.00  0.00     0.117 A 
HETATM    8  N   UNL     1      42.198 -17.389   1.103  1.00  0.00    -0.228 NA
HETATM    9  C   UNL     1      42.468 -17.597   2.408  1.00  0.00     0.070 A 
HETATM   10  C   UNL     1      42.171 -16.641   3.361  1.00  0.00     0.046 A 
ENDROOT
BRANCH   9  11
HETATM   11  C   UNL     1      43.098 -18.893   2.732  1.00  0.00    -0.004 A 
HETATM   12  C   UNL     1      43.604 -19.170   4.018  1.00  0.00     0.053 A 
HETATM   13  C   UNL     1      44.202 -20.392   4.251  1.00  0.00     0.106 A 
HETATM   14  C   UNL     1      44.315 -21.347   3.270  1.00  0.00     0.105 A 
HETATM   15  O   UNL     1      44.744 -20.794   5.432  1.00  0.00    -0.323 OA
HETATM   16  O   UNL     1      44.940 -22.472   3.709  1.00  0.00    -0.323 OA
HETATM   17  C   UNL     1      43.839 -21.131   1.999  1.00  0.00     0.040 A 
HETATM   18  C   UNL     1      45.227 -22.108   5.074  1.00  0.00     0.352 A 
HETATM   19  C   UNL     1      43.234 -19.895   1.734  1.00  0.00     0.017 A 
ENDBRANCH   9  11
BRANCH   1  20
HETATM   20  C   UNL     1      41.311 -14.444   4.023  1.00  0.00    -0.025 A 
HETATM   21  C   UNL     1      40.070 -14.440   4.679  1.00  0.00     0.012 A 
HETATM   22  C   UNL     1      39.802 -13.521   5.697  1.00  0.00     0.001 A 
HETATM   23  C   UNL     1      40.776 -12.603   6.083  1.00  0.00     0.000 A 
HETATM   24  C   UNL     1      42.018 -12.601   5.451  1.00  0.00     0.001 A 
HETATM   25  C   UNL     1      42.283 -13.514   4.429  1.00  0.00     0.012 A 
ENDBRANCH   1  20
BRANCH   7  26
HETATM   26  N   UNL     1      40.442 -12.906   1.615  1.00  0.00    -0.286 NA
HETATM   27  H   UNL     1      40.432 -13.119   2.609  1.00  0.00     0.125 HD
HETATM   28  H   UNL     1      39.556 -12.533   1.293  1.00  0.00     0.125 HD
ENDBRANCH   7  26
TORSDOF 3
ENDMDL
MODEL 4
REMARK VINA RESULT:      -8.2      1.887      3.003
REMARK  3 active torsions:
REMARK  status: ('A' for Active; 'I' for Inactive)
REMARK    1  A    between atoms: C_4  and  C_5 
REMARK    2  A    between atoms: C_11  and  N_12 
REMARK    3  A    between atoms: C_14  and  C_15 
ROOT
HETATM    1  C   UNL     1      41.367 -15.219   0.584  1.00  0.00    -0.006 A 
HETATM    2  C   UNL     1      40.660 -14.553   1.640  1.00  0.00     0.063 A 
HETATM    3  C   UNL     1      40.800 -15.069   2.932  1.00  0.00     0.165 A 
HETATM    4  N   UNL     1      40.215 -14.534   3.991  1.00  0.00    -0.222 NA
HETATM    5  C   UNL     1      39.455 -13.459   3.800  1.00  0.00     0.237 A 
HETATM    6  N   UNL     1      39.216 -12.873   2.630  1.00  0.00    -0.229 NA
HETATM    7  C   UNL     1      39.810 -13.426   1.567  1.00  0.00     0.117 A 
HETATM    8  N   UNL     1      41.533 -16.148   3.190  1.00  0.00    -0.228 NA
HETATM    9  C   UNL     1      42.179 -16.802   2.202  1.00  0.00     0.070 A 
HETATM   10  C   UNL     1      42.126 -16.354   0.895  1.00  0.00     0.046 A 
ENDROOT
BRANCH   9  11
HETATM   11  C   UNL     1      42.922 -18.010   2.614  1.00  0.00    -0.004 A 
HETATM   12  C   UNL     1      42.952 -19.170   1.813  1.00  0.00     0.053 A 
HETATM   13  C   UNL     1      43.647 -20.274   2.265  1.00  0.00     0.106 A 
HETATM   14  C   UNL     1      44.313 -20.276   3.466  1.00  0.00     0.105 A 
HETATM   15  O   UNL     1      43.755 -21.462   1.610  1.00  0.00    -0.323 OA
HETATM   16  O   UNL     1      44.925 -21.462   3.720  1.00  0.00    -0.323 OA
HETATM   17  C   UNL     1      44.316 -19.173   4.286  1.00  0.00     0.040 A 
HETATM   18  C   UNL     1      44.551 -22.217   2.549  1.00  0.00     0.352 A 
HETATM   19  C   UNL     1      43.613 -18.040   3.855  1.00  0.00     0.017 A 
ENDBRANCH   9  11
BRANCH   1  20
HETATM   20  C   UNL     1      41.348 -14.790  -0.823  1.00  0.00    -0.025 A 
HETATM   21  C   UNL     1      42.082 -13.670  -1.248  1.00  0.00     0.012 A 
HETATM   22  C   UNL     1      42.076 -13.279  -2.589  1.00  0.00     0.001 A 
HETATM   23  C   UNL     1      41.350 -14.009  -3.526  1.00  0.00     0.000 A 
HETATM   24  C   UNL     1      40.627 -15.130  -3.125  1.00  0.00     0.001 A 
HETATM   25  C   UNL     1      40.626 -15.518  -1.784  1.00  0.00     0.012 A 
ENDBRANCH   1  20
BRANCH   7  26
HETATM   26  N   UNL     1      39.539 -12.744   0.383  1.00  0.00    -0.286 NA
HETATM   27  H   UNL     1      39.998 -13.237  -0.377  1.00  0.00     0.125 HD
HETATM   28  H   UNL     1      39.801 -11.765   0.420  1.00  0.00     0.125 HD
ENDBRANCH   7  26
TORSDOF 3
ENDMDL
MODEL 5
REMARK VINA RESULT:      -7.9      1.943      3.762
REMARK  3 active torsions:
REMARK  status: ('A' for Active; 'I' for Inactive)
REMARK    1  A    between atoms: C_4  and  C_5 
REMARK    2  A    between atoms: C_11  and  N_12 
REMARK    3  A    between atoms: C_14  and  C_15 
ROOT
HETATM    1  C   UNL     1      41.461 -14.994   3.153  1.00  0.00    -0.006 A 
HETATM    2  C   UNL     1      41.207 -14.844   1.749  1.00  0.00     0.063 A 
HETATM    3  C   UNL     1      41.587 -15.897   0.911  1.00  0.00     0.165 A 
HETATM    4  N   UNL     1      41.390 -15.885  -0.397  1.00  0.00    -0.222 NA
HETATM    5  C   UNL     1      40.809 -14.812  -0.926  1.00  0.00     0.237 A 
HETATM    6  N   UNL     1      40.414 -13.733  -0.257  1.00  0.00    -0.229 NA
HETATM    7  C   UNL     1      40.623 -13.754   1.064  1.00  0.00     0.117 A 
HETATM    8  N   UNL     1      42.185 -16.992   1.372  1.00  0.00    -0.228 NA
HETATM    9  C   UNL     1      42.457 -17.133   2.686  1.00  0.00     0.070 A 
HETATM   10  C   UNL     1      42.095 -16.161   3.599  1.00  0.00     0.046 A 
ENDROOT
BRANCH   9  11
HETATM   11  C   UNL     1      43.162 -18.375   3.063  1.00  0.00    -0.004 A 
HETATM   12  C   UNL     1      43.221 -19.485   2.195  1.00  0.00     0.053 A 
HETATM   13  C   UNL     1      43.876 -20.625   2.615  1.00  0.00     0.106 A 
HETATM   14  C   UNL     1      44.475 -20.710   3.849  1.00  0.00     0.105 A 
HETATM   15  O   UNL     1      44.004 -21.773   1.896  1.00  0.00    -0.323 OA
HETATM   16  O   UNL     1      45.058 -21.919   4.062  1.00  0.00    -0.323 OA
HETATM   17  C   UNL     1      44.447 -19.659   4.733  1.00  0.00     0.040 A 
HETATM   18  C   UNL     1      44.739 -22.596   2.829  1.00  0.00     0.352 A 
HETATM   19  C   UNL     1      43.783 -18.492   4.335  1.00  0.00     0.017 A 
ENDBRANCH   9  11
BRANCH   1  20
HETATM   20  C   UNL     1      41.101 -13.996   4.171  1.00  0.00    -0.025 A 
HETATM   21  C   UNL     1      41.974 -12.944   4.494  1.00  0.00     0.012 A 
HETATM   22  C   UNL     1      41.619 -11.988   5.448  1.00  0.00     0.001 A 
HETATM   23  C   UNL     1      40.381 -12.059   6.082  1.00  0.00     0.000 A 
HETATM   24  C   UNL     1      39.497 -13.089   5.765  1.00  0.00     0.001 A 
HETATM   25  C   UNL     1      39.854 -14.049   4.816  1.00  0.00     0.012 A 
ENDBRANCH   1  20
BRANCH   7  26
HETATM   26  N   UNL     1      40.158 -12.607   1.702  1.00  0.00    -0.286 NA
HETATM   27  H   UNL     1      39.154 -12.700   1.828  1.00  0.00     0.125 HD
HETATM   28  H   UNL     1      40.406 -11.753   1.214  1.00  0.00     0.125 HD
ENDBRANCH   7  26
TORSDOF 3
ENDMDL
MODEL 6
REMARK VINA RESULT:      -7.6      3.882      7.331
REMARK  3 active torsions:
REMARK  status: ('A' for Active; 'I' for Inactive)
REMARK    1  A    between atoms: C_4  and  C_5 
REMARK    2  A    between atoms: C_11  and  N_12 
REMARK    3  A    between atoms: C_14  and  C_15 
ROOT
HETATM    1  C   UNL     1      42.851 -15.989   4.255  1.00  0.00    -0.006 A 
HETATM    2  C   UNL     1      41.656 -15.342   3.795  1.00  0.00     0.063 A 
HETATM    3  C   UNL     1      41.350 -14.093   4.344  1.00  0.00     0.165 A 
HETATM    4  N   UNL     1      40.287 -13.389   3.989  1.00  0.00    -0.222 NA
HETATM    5  C   UNL     1      39.478 -13.911   3.071  1.00  0.00     0.237 A 
HETATM    6  N   UNL     1      39.632 -15.092   2.480  1.00  0.00    -0.229 NA
HETATM    7  C   UNL     1      40.708 -15.796   2.851  1.00  0.00     0.117 A 
HETATM    8  N   UNL     1      42.108 -13.520   5.274  1.00  0.00    -0.228 NA
HETATM    9  C   UNL     1      43.219 -14.131   5.738  1.00  0.00     0.070 A 
HETATM   10  C   UNL     1      43.622 -15.356   5.239  1.00  0.00     0.046 A 
ENDROOT
BRANCH   9  11
HETATM   11  C   UNL     1      43.948 -13.411   6.801  1.00  0.00    -0.004 A 
HETATM   12  C   UNL     1      43.298 -12.501   7.659  1.00  0.00     0.053 A 
HETATM   13  C   UNL     1      44.041 -11.842   8.618  1.00  0.00     0.106 A 
HETATM   14  C   UNL     1      45.391 -12.049   8.765  1.00  0.00     0.105 A 
HETATM   15  O   UNL     1      43.557 -10.931   9.505  1.00  0.00    -0.323 OA
HETATM   16  O   UNL     1      45.927 -11.298   9.763  1.00  0.00    -0.323 OA
HETATM   17  C   UNL     1      46.074 -12.925   7.956  1.00  0.00     0.040 A 
HETATM   18  C   UNL     1      44.763 -10.577  10.215  1.00  0.00     0.352 A 
HETATM   19  C   UNL     1      45.346 -13.602   6.969  1.00  0.00     0.017 A 
ENDBRANCH   9  11
BRANCH   1  20
HETATM   20  C   UNL     1      43.330 -17.290   3.763  1.00  0.00    -0.025 A 
HETATM   21  C   UNL     1      43.832 -17.429   2.458  1.00  0.00     0.012 A 
HETATM   22  C   UNL     1      44.304 -18.662   2.002  1.00  0.00     0.001 A 
HETATM   23  C   UNL     1      44.294 -19.769   2.847  1.00  0.00     0.000 A 
HETATM   24  C   UNL     1      43.811 -19.647   4.148  1.00  0.00     0.001 A 
HETATM   25  C   UNL     1      43.333 -18.416   4.602  1.00  0.00     0.012 A 
ENDBRANCH   1  20
BRANCH   7  26
HETATM   26  N   UNL     1      40.821 -17.006   2.170  1.00  0.00    -0.286 NA
HETATM   27  H   UNL     1      41.759 -17.064   1.784  1.00  0.00     0.125 HD
HETATM   28  H   UNL     1      40.106 -17.132   1.462  1.00  0.00     0.125 HD
ENDBRANCH   7  26
TORSDOF 3
ENDMDL
MODEL 7
REMARK VINA RESULT:      -7.6      2.269      4.496
REMARK  3 active torsions:
REMARK  status: ('A' for Active; 'I' for Inactive)
REMARK    1  A    between atoms: C_4  and  C_5 
REMARK    2  A    between atoms: C_11  and  N_12 
REMARK    3  A    between atoms: C_14  and  C_15 
ROOT
HETATM    1  C   UNL     1      40.575 -13.929   4.271  1.00  0.00    -0.006 A 
HETATM    2  C   UNL     1      39.831 -13.846   3.047  1.00  0.00     0.063 A 
HETATM    3  C   UNL     1      39.977 -14.896   2.135  1.00  0.00     0.165 A 
HETATM    4  N   UNL     1      39.332 -14.945   0.981  1.00  0.00    -0.222 NA
HETATM    5  C   UNL     1      38.515 -13.937   0.686  1.00  0.00     0.237 A 
HETATM    6  N   UNL     1      38.293 -12.868   1.446  1.00  0.00    -0.229 NA
HETATM    7  C   UNL     1      38.956 -12.828   2.608  1.00  0.00     0.117 A 
HETATM    8  N   UNL     1      40.787 -15.927   2.361  1.00  0.00    -0.228 NA
HETATM    9  C   UNL     1      41.516 -16.002   3.494  1.00  0.00     0.070 A 
HETATM   10  C   UNL     1      41.420 -15.029   4.471  1.00  0.00     0.046 A 
ENDROOT
BRANCH   9  11
HETATM   11  C   UNL     1      42.408 -17.174   3.604  1.00  0.00    -0.004 A 
HETATM   12  C   UNL     1      42.478 -18.149   2.588  1.00  0.00     0.053 A 
HETATM   13  C   UNL     1      43.315 -19.233   2.761  1.00  0.00     0.106 A 
HETATM   14  C   UNL     1      44.084 -19.388   3.888  1.00  0.00     0.105 A 
HETATM   15  O   UNL     1      43.478 -20.254   1.877  1.00  0.00    -0.323 OA
HETATM   16  O   UNL     1      44.830 -20.524   3.857  1.00  0.00    -0.323 OA
HETATM   17  C   UNL     1      44.055 -18.468   4.909  1.00  0.00     0.040 A 
HETATM   18  C   UNL     1      44.426 -21.079   2.588  1.00  0.00     0.352 A 
HETATM   19  C   UNL     1      43.208 -17.362   4.762  1.00  0.00     0.017 A 
ENDBRANCH   9  11
BRANCH   1  20
HETATM   20  C   UNL     1      40.516 -12.926   5.345  1.00  0.00    -0.025 A 
HETATM   21  C   UNL     1      39.511 -12.975   6.326  1.00  0.00     0.012 A 
HETATM   22  C   UNL     1      39.470 -12.031   7.354  1.00  0.00     0.001 A 
HETATM   23  C   UNL     1      40.440 -11.035   7.427  1.00  0.00     0.000 A 
HETATM   24  C   UNL     1      41.451 -10.979   6.471  1.00  0.00     0.001 A 
HETATM   25  C   UNL     1      41.489 -11.917   5.438  1.00  0.00     0.012 A 
ENDBRANCH   1  20
BRANCH   7  26
HETATM   26  N   UNL     1      38.652 -11.698   3.362  1.00  0.00    -0.286 NA
HETATM   27  H   UNL     1      37.719 -11.389   3.106  1.00  0.00     0.125 HD
HETATM   28  H   UNL     1      39.341 -10.959   3.266  1.00  0.00     0.125 HD
ENDBRANCH   7  26
TORSDOF 3
ENDMDL
MODEL 8
REMARK VINA RESULT:      -7.6      4.448      6.204
REMARK  3 active torsions:
REMARK  status: ('A' for Active; 'I' for Inactive)
REMARK    1  A    between atoms: C_4  and  C_5 
REMARK    2  A    between atoms: C_11  and  N_12 
REMARK    3  A    between atoms: C_14  and  C_15 
ROOT
HETATM    1  C   UNL     1      40.844 -13.663  -1.242  1.00  0.00    -0.006 A 
HETATM    2  C   UNL     1      41.599 -12.489  -1.569  1.00  0.00     0.063 A 
HETATM    3  C   UNL     1      42.434 -11.965  -0.577  1.00  0.00     0.165 A 
HETATM    4  N   UNL     1      43.195 -10.898  -0.762  1.00  0.00    -0.222 NA
HETATM    5  C   UNL     1      43.146 -10.303  -1.951  1.00  0.00     0.237 A 
HETATM    6  N   UNL     1      42.388 -10.676  -2.977  1.00  0.00    -0.229 NA
HETATM    7  C   UNL     1      41.620 -11.754  -2.776  1.00  0.00     0.117 A 
HETATM    8  N   UNL     1      42.520 -12.503   0.636  1.00  0.00    -0.228 NA
HETATM    9  C   UNL     1      41.791 -13.589   0.967  1.00  0.00     0.070 A 
HETATM   10  C   UNL     1      40.958 -14.198   0.047  1.00  0.00     0.046 A 
ENDROOT
BRANCH   9  11
HETATM   11  C   UNL     1      41.944 -14.062   2.358  1.00  0.00    -0.004 A 
HETATM   12  C   UNL     1      43.042 -13.677   3.155  1.00  0.00     0.053 A 
HETATM   13  C   UNL     1      43.139 -14.171   4.440  1.00  0.00     0.106 A 
HETATM   14  C   UNL     1      42.199 -15.022   4.967  1.00  0.00     0.105 A 
HETATM   15  O   UNL     1      44.142 -13.899   5.318  1.00  0.00    -0.323 OA
HETATM   16  O   UNL     1      42.488 -15.392   6.243  1.00  0.00    -0.323 OA
HETATM   17  C   UNL     1      41.110 -15.430   4.235  1.00  0.00     0.040 A 
HETATM   18  C   UNL     1      43.731 -14.692   6.452  1.00  0.00     0.352 A 
HETATM   19  C   UNL     1      40.990 -14.949   2.925  1.00  0.00     0.017 A 
ENDBRANCH   9  11
BRANCH   1  20
HETATM   20  C   UNL     1      39.941 -14.354  -2.176  1.00  0.00    -0.025 A 
HETATM   21  C   UNL     1      40.404 -15.404  -2.986  1.00  0.00     0.012 A 
HETATM   22  C   UNL     1      39.539 -16.069  -3.858  1.00  0.00     0.001 A 
HETATM   23  C   UNL     1      38.197 -15.705  -3.922  1.00  0.00     0.000 A 
HETATM   24  C   UNL     1      37.717 -14.674  -3.117  1.00  0.00     0.001 A 
HETATM   25  C   UNL     1      38.583 -14.004  -2.251  1.00  0.00     0.012 A 
ENDBRANCH   1  20
BRANCH   7  26
HETATM   26  N   UNL     1      40.878 -12.103  -3.901  1.00  0.00    -0.286 NA
HETATM   27  H   UNL     1      40.325 -11.297  -4.177  1.00  0.00     0.125 HD
HETATM   28  H   UNL     1      40.308 -12.930  -3.760  1.00  0.00     0.125 HD
ENDBRANCH   7  26
TORSDOF 3
ENDMDL
MODEL 9
REMARK VINA RESULT:      -7.3      4.117      6.558
REMARK  3 active torsions:
REMARK  status: ('A' for Active; 'I' for Inactive)
REMARK    1  A    between atoms: C_4  and  C_5 
REMARK    2  A    between atoms: C_11  and  N_12 
REMARK    3  A    between atoms: C_14  and  C_15 
ROOT
HETATM    1  C   UNL     1      41.681 -14.508   3.926  1.00  0.00    -0.006 A 
HETATM    2  C   UNL     1      42.444 -15.680   4.242  1.00  0.00     0.063 A 
HETATM    3  C   UNL     1      42.919 -16.444   3.172  1.00  0.00     0.165 A 
HETATM    4  N   UNL     1      43.650 -17.536   3.333  1.00  0.00    -0.222 NA
HETATM    5  C   UNL     1      43.931 -17.915   4.576  1.00  0.00     0.237 A 
HETATM    6  N   UNL     1      43.532 -17.299   5.686  1.00  0.00    -0.229 NA
HETATM    7  C   UNL     1      42.790 -16.199   5.510  1.00  0.00     0.117 A 
HETATM    8  N   UNL     1      42.664 -16.130   1.906  1.00  0.00    -0.228 NA
HETATM    9  C   UNL     1      41.921 -15.047   1.595  1.00  0.00     0.070 A 
HETATM   10  C   UNL     1      41.429 -14.212   2.581  1.00  0.00     0.046 A 
ENDROOT
BRANCH   9  11
HETATM   11  C   UNL     1      41.673 -14.833   0.155  1.00  0.00    -0.004 A 
HETATM   12  C   UNL     1      41.810 -13.562  -0.439  1.00  0.00     0.053 A 
HETATM   13  C   UNL     1      41.542 -13.424  -1.786  1.00  0.00     0.106 A 
HETATM   14  C   UNL     1      41.151 -14.485  -2.565  1.00  0.00     0.105 A 
HETATM   15  O   UNL     1      41.618 -12.263  -2.492  1.00  0.00    -0.323 OA
HETATM   16  O   UNL     1      40.935 -14.129  -3.859  1.00  0.00    -0.323 OA
HETATM   17  C   UNL     1      41.002 -15.745  -2.038  1.00  0.00     0.040 A 
HETATM   18  C   UNL     1      41.213 -12.715  -3.802  1.00  0.00     0.352 A 
HETATM   19  C   UNL     1      41.261 -15.913  -0.672  1.00  0.00     0.017 A 
ENDBRANCH   9  11
BRANCH   1  20
HETATM   20  C   UNL     1      41.132 -13.582   4.930  1.00  0.00    -0.025 A 
HETATM   21  C   UNL     1      41.892 -12.504   5.412  1.00  0.00     0.012 A 
HETATM   22  C   UNL     1      41.360 -11.618   6.351  1.00  0.00     0.001 A 
HETATM   23  C   UNL     1      40.056 -11.786   6.809  1.00  0.00     0.000 A 
HETATM   24  C   UNL     1      39.282 -12.841   6.332  1.00  0.00     0.001 A 
HETATM   25  C   UNL     1      39.816 -13.733   5.399  1.00  0.00     0.012 A 
ENDBRANCH   1  20
BRANCH   7  26
HETATM   26  N   UNL     1      42.435 -15.592   6.712  1.00  0.00    -0.286 NA
HETATM   27  H   UNL     1      41.426 -15.654   6.810  1.00  0.00     0.125 HD
HETATM   28  H   UNL     1      42.771 -14.639   6.791  1.00  0.00     0.125 HD
ENDBRANCH   7  26
TORSDOF 3
ENDMDL
MODEL 10
REMARK VINA RESULT:      -7.2      4.355      7.978
REMARK  3 active torsions:
REMARK  status: ('A' for Active; 'I' for Inactive)
REMARK    1  A    between atoms: C_4  and  C_5 
REMARK    2  A    between atoms: C_11  and  N_12 
REMARK    3  A    between atoms: C_14  and  C_15 
ROOT
HETATM    1  C   UNL     1      41.220 -14.970   3.624  1.00  0.00    -0.006 A 
HETATM    2  C   UNL     1      40.295 -14.504   2.631  1.00  0.00     0.063 A 
HETATM    3  C   UNL     1      39.592 -13.329   2.911  1.00  0.00     0.165 A 
HETATM    4  N   UNL     1      38.725 -12.788   2.070  1.00  0.00    -0.222 NA
HETATM    5  C   UNL     1      38.520 -13.408   0.911  1.00  0.00     0.237 A 
HETATM    6  N   UNL     1      39.102 -14.538   0.519  1.00  0.00    -0.229 NA
HETATM    7  C   UNL     1      39.972 -15.077   1.381  1.00  0.00     0.117 A 
HETATM    8  N   UNL     1      39.738 -12.668   4.055  1.00  0.00    -0.228 NA
HETATM    9  C   UNL     1      40.582 -13.111   5.010  1.00  0.00     0.070 A 
HETATM   10  C   UNL     1      41.345 -14.248   4.818  1.00  0.00     0.046 A 
ENDROOT
BRANCH   9  11
HETATM   11  C   UNL     1      40.622 -12.311   6.251  1.00  0.00    -0.004 A 
HETATM   12  C   UNL     1      41.809 -11.696   6.699  1.00  0.00     0.053 A 
HETATM   13  C   UNL     1      41.785 -10.979   7.878  1.00  0.00     0.106 A 
HETATM   14  C   UNL     1      40.641 -10.844   8.626  1.00  0.00     0.105 A 
HETATM   15  O   UNL     1      42.850 -10.345   8.439  1.00  0.00    -0.323 OA
HETATM   16  O   UNL     1      40.838 -10.106   9.750  1.00  0.00    -0.323 OA
HETATM   17  C   UNL     1      39.456 -11.422   8.237  1.00  0.00     0.040 A 
HETATM   18  C   UNL     1      42.245  -9.809   9.636  1.00  0.00     0.352 A 
HETATM   19  C   UNL     1      39.454 -12.161   7.047  1.00  0.00     0.017 A 
ENDBRANCH   9  11
BRANCH   1  20
HETATM   20  C   UNL     1      42.057 -16.171   3.477  1.00  0.00    -0.025 A 
HETATM   21  C   UNL     1      41.730 -17.366   4.137  1.00  0.00     0.012 A 
HETATM   22  C   UNL     1      42.517 -18.509   3.979  1.00  0.00     0.001 A 
HETATM   23  C   UNL     1      43.634 -18.478   3.148  1.00  0.00     0.000 A 
HETATM   24  C   UNL     1      43.967 -17.305   2.475  1.00  0.00     0.001 A 
HETATM   25  C   UNL     1      43.184 -16.160   2.638  1.00  0.00     0.012 A 
ENDBRANCH   1  20
BRANCH   7  26
HETATM   26  N   UNL     1      40.563 -16.240   0.893  1.00  0.00    -0.286 NA
HETATM   27  H   UNL     1      39.870 -16.982   0.923  1.00  0.00     0.125 HD
HETATM   28  H   UNL     1      41.414 -16.489   1.384  1.00  0.00     0.125 HD
ENDBRANCH   7  26
TORSDOF 3
ENDMDL
