MODEL 1
REMARK VINA RESULT:      -7.9      0.000      0.000
REMARK  10 active torsions:
REMARK  status: ('A' for Active; 'I' for Inactive)
REMARK    1  A    between atoms: C_2  and  N_3 
REMARK    2  A    between atoms: N_3  and  C_5 
REMARK    3  A    between atoms: N_3  and  C_34 
REMARK    4  A    between atoms: C_5  and  C_6 
REMARK    5  A    between atoms: C_6  and  C_7 
REMARK    6  A    between atoms: C_7  and  N_8 
REMARK       I    between atoms: N_8  and  C_9 
REMARK    7  A    between atoms: C_9  and  C_10 
REMARK    8  A    between atoms: N_16  and  C_17 
REMARK    9  A    between atoms: C_17  and  C_18 
REMARK       I    between atoms: C_18  and  N_19 
REMARK   10  A    between atoms: N_19  and  C_20 
ROOT
HETATM    1  C   UNL     1      41.523 -11.421   7.002  1.00  0.00     0.081 A 
HETATM    2  S   UNL     1      40.169 -11.266   5.963  1.00  0.00    -0.063 SA
HETATM    3  C   UNL     1      40.723 -12.502   4.939  1.00  0.00     0.116 A 
HETATM    4  C   UNL     1      41.929 -13.022   5.360  1.00  0.00     0.075 A 
HETATM    5  C   UNL     1      42.546 -14.038   4.518  1.00  0.00     0.262 A 
HETATM    6  O   UNL     1      43.632 -14.549   4.779  1.00  0.00    -0.267 OA
HETATM    7  N   UNL     1      41.824 -14.336   3.365  1.00  0.00    -0.299 N 
HETATM    8  C   UNL     1      40.590 -13.766   3.113  1.00  0.00     0.214 A 
HETATM    9  N   UNL     1      40.016 -12.863   3.842  1.00  0.00    -0.235 NA
HETATM   10  C   UNL     1      42.388 -12.430   6.596  1.00  0.00    -0.021 A 
HETATM   11  C   UNL     1      43.653 -12.806   7.303  1.00  0.00     0.051 C 
ENDROOT
BRANCH   1  12
HETATM   12  C   UNL     1      41.604 -10.559   8.166  1.00  0.00     0.259 C 
HETATM   13  N   UNL     1      40.689 -10.848   9.162  1.00  0.00    -0.356 N 
HETATM   14  H   UNL     1      39.994 -11.562   8.966  1.00  0.00     0.162 HD
HETATM   15  O   UNL     1      42.427  -9.658   8.307  1.00  0.00    -0.267 OA
BRANCH  13  16
HETATM   16  C   UNL     1      40.596 -10.079  10.383  1.00  0.00     0.124 C 
BRANCH  16  17
HETATM   17  C   UNL     1      40.258 -10.956  11.591  1.00  0.00     0.047 C 
BRANCH  17  18
HETATM   18  C   UNL     1      41.510 -11.470  12.299  1.00  0.00     0.236 C 
BRANCH  18  19
HETATM   19  N   UNL     1      42.780 -10.752  11.853  1.00  0.00    -0.072 N 
HETATM   20  H   UNL     1      42.476 -10.152  11.074  1.00  0.00     0.279 HD
BRANCH  19  21
HETATM   21  C   UNL     1      43.855 -11.652  11.264  1.00  0.00     0.230 C 
HETATM   22  C   UNL     1      44.924 -10.857  10.537  1.00  0.00     0.034 C 
ENDBRANCH  19  21
BRANCH  19  23
HETATM   23  C   UNL     1      43.380  -9.807  12.880  1.00  0.00     0.230 C 
HETATM   24  C   UNL     1      42.710  -9.953  14.232  1.00  0.00     0.034 C 
ENDBRANCH  19  23
ENDBRANCH  18  19
ENDBRANCH  17  18
ENDBRANCH  16  17
ENDBRANCH  13  16
ENDBRANCH   1  12
BRANCH   7  25
HETATM   25  C   UNL     1      42.403 -15.259   2.405  1.00  0.00     0.236 C 
BRANCH  25  26
HETATM   26  C   UNL     1      42.315 -16.711   2.887  1.00  0.00     0.240 C 
HETATM   27  N   UNL     1      43.549 -17.202   3.288  1.00  0.00    -0.326 N 
HETATM   28  H   UNL     1      44.300 -16.531   3.399  1.00  0.00     0.169 HD
HETATM   29  O   UNL     1      41.266 -17.343   2.814  1.00  0.00    -0.271 OA
BRANCH  27  30
HETATM   30  C   UNL     1      43.887 -18.537   3.599  1.00  0.00     0.036 A 
HETATM   31  C   UNL     1      44.089 -19.538   2.650  1.00  0.00     0.053 A 
HETATM   32  C   UNL     1      44.470 -20.827   3.050  1.00  0.00     0.042 A 
HETATM   33 CL   UNL     1      44.721 -22.013   1.816  1.00  0.00    -0.084 Cl
HETATM   34  C   UNL     1      44.651 -21.139   4.406  1.00  0.00    -0.040 A 
HETATM   35  C   UNL     1      45.078 -22.506   4.862  1.00  0.00     0.050 C 
HETATM   36  C   UNL     1      44.439 -20.130   5.354  1.00  0.00     0.011 A 
HETATM   37  C   UNL     1      44.063 -18.845   4.954  1.00  0.00     0.030 A 
ENDBRANCH  27  30
ENDBRANCH  25  26
ENDBRANCH   7  25
TORSDOF 10
ENDMDL
MODEL 2
REMARK VINA RESULT:      -7.8      2.020      2.820
REMARK  10 active torsions:
REMARK  status: ('A' for Active; 'I' for Inactive)
REMARK    1  A    between atoms: C_2  and  N_3 
REMARK    2  A    between atoms: N_3  and  C_5 
REMARK    3  A    between atoms: N_3  and  C_34 
REMARK    4  A    between atoms: C_5  and  C_6 
REMARK    5  A    between atoms: C_6  and  C_7 
REMARK    6  A    between atoms: C_7  and  N_8 
REMARK       I    between atoms: N_8  and  C_9 
REMARK    7  A    between atoms: C_9  and  C_10 
REMARK    8  A    between atoms: N_16  and  C_17 
REMARK    9  A    between atoms: C_17  and  C_18 
REMARK       I    between atoms: C_18  and  N_19 
REMARK   10  A    between atoms: N_19  and  C_20 
ROOT
HETATM    1  C   UNL     1      40.496 -12.414   5.015  1.00  0.00     0.081 A 
HETATM    2  S   UNL     1      40.955 -11.459   3.668  1.00  0.00    -0.063 SA
HETATM    3  C   UNL     1      41.192 -12.826   2.690  1.00  0.00     0.116 A 
HETATM    4  C   UNL     1      40.947 -13.999   3.370  1.00  0.00     0.075 A 
HETATM    5  C   UNL     1      41.194 -15.246   2.657  1.00  0.00     0.262 A 
HETATM    6  O   UNL     1      41.038 -16.350   3.174  1.00  0.00    -0.267 OA
HETATM    7  N   UNL     1      41.672 -15.075   1.362  1.00  0.00    -0.299 N 
HETATM    8  C   UNL     1      41.809 -13.820   0.797  1.00  0.00     0.214 A 
HETATM    9  N   UNL     1      41.597 -12.696   1.404  1.00  0.00    -0.235 NA
HETATM   10  C   UNL     1      40.493 -13.773   4.723  1.00  0.00    -0.021 A 
HETATM   11  C   UNL     1      40.132 -14.854   5.695  1.00  0.00     0.051 C 
ENDROOT
BRANCH   1  12
HETATM   12  C   UNL     1      40.134 -11.742   6.249  1.00  0.00     0.259 C 
HETATM   13  N   UNL     1      41.074 -10.837   6.710  1.00  0.00    -0.356 N 
HETATM   14  H   UNL     1      41.957 -10.785   6.211  1.00  0.00     0.162 HD
HETATM   15  O   UNL     1      39.073 -11.909   6.846  1.00  0.00    -0.267 OA
BRANCH  13  16
HETATM   16  C   UNL     1      40.904 -10.095   7.938  1.00  0.00     0.124 C 
BRANCH  16  17
HETATM   17  C   UNL     1      42.118 -10.224   8.862  1.00  0.00     0.047 C 
BRANCH  17  18
HETATM   18  C   UNL     1      41.761 -10.878  10.195  1.00  0.00     0.236 C 
BRANCH  18  19
HETATM   19  N   UNL     1      42.920 -11.665  10.800  1.00  0.00    -0.072 N 
HETATM   20  H   UNL     1      42.605 -12.645  10.776  1.00  0.00     0.279 HD
BRANCH  19  21
HETATM   21  C   UNL     1      43.200 -11.374  12.266  1.00  0.00     0.230 C 
HETATM   22  C   UNL     1      43.177  -9.886  12.563  1.00  0.00     0.034 C 
ENDBRANCH  19  21
BRANCH  19  23
HETATM   23  C   UNL     1      44.208 -11.636   9.995  1.00  0.00     0.230 C 
HETATM   24  C   UNL     1      45.356 -12.268  10.757  1.00  0.00     0.034 C 
ENDBRANCH  19  23
ENDBRANCH  18  19
ENDBRANCH  17  18
ENDBRANCH  16  17
ENDBRANCH  13  16
ENDBRANCH   1  12
BRANCH   7  25
HETATM   25  C   UNL     1      42.049 -16.253   0.602  1.00  0.00     0.236 C 
BRANCH  25  26
HETATM   26  C   UNL     1      43.150 -17.056   1.303  1.00  0.00     0.240 C 
HETATM   27  N   UNL     1      42.689 -18.279   1.766  1.00  0.00    -0.326 N 
HETATM   28  H   UNL     1      41.777 -18.582   1.442  1.00  0.00     0.169 HD
HETATM   29  O   UNL     1      44.266 -16.580   1.486  1.00  0.00    -0.271 OA
BRANCH  27  30
HETATM   30  C   UNL     1      43.353 -19.186   2.620  1.00  0.00     0.036 A 
HETATM   31  C   UNL     1      43.557 -18.976   3.983  1.00  0.00     0.053 A 
HETATM   32  C   UNL     1      44.188 -19.957   4.763  1.00  0.00     0.042 A 
HETATM   33 CL   UNL     1      44.390 -19.636   6.451  1.00  0.00    -0.084 Cl
HETATM   34  C   UNL     1      44.628 -21.161   4.194  1.00  0.00    -0.040 A 
HETATM   35  C   UNL     1      45.289 -22.236   5.010  1.00  0.00     0.050 C 
HETATM   36  C   UNL     1      44.426 -21.360   2.823  1.00  0.00     0.011 A 
HETATM   37  C   UNL     1      43.796 -20.385   2.047  1.00  0.00     0.030 A 
ENDBRANCH  27  30
ENDBRANCH  25  26
ENDBRANCH   7  25
TORSDOF 10
ENDMDL
MODEL 3
REMARK VINA RESULT:      -7.8      1.744      2.464
REMARK  10 active torsions:
REMARK  status: ('A' for Active; 'I' for Inactive)
REMARK    1  A    between atoms: C_2  and  N_3 
REMARK    2  A    between atoms: N_3  and  C_5 
REMARK    3  A    between atoms: N_3  and  C_34 
REMARK    4  A    between atoms: C_5  and  C_6 
REMARK    5  A    between atoms: C_6  and  C_7 
REMARK    6  A    between atoms: C_7  and  N_8 
REMARK       I    between atoms: N_8  and  C_9 
REMARK    7  A    between atoms: C_9  and  C_10 
REMARK    8  A    between atoms: N_16  and  C_17 
REMARK    9  A    between atoms: C_17  and  C_18 
REMARK       I    between atoms: C_18  and  N_19 
REMARK   10  A    between atoms: N_19  and  C_20 
ROOT
HETATM    1  C   UNL     1      40.569 -11.942   5.849  1.00  0.00     0.081 A 
HETATM    2  S   UNL     1      42.221 -12.268   6.168  1.00  0.00    -0.063 SA
HETATM    3  C   UNL     1      42.406 -13.124   4.714  1.00  0.00     0.116 A 
HETATM    4  C   UNL     1      41.232 -13.184   3.995  1.00  0.00     0.075 A 
HETATM    5  C   UNL     1      41.245 -13.961   2.762  1.00  0.00     0.262 A 
HETATM    6  O   UNL     1      40.249 -14.107   2.057  1.00  0.00    -0.267 OA
HETATM    7  N   UNL     1      42.467 -14.567   2.485  1.00  0.00    -0.299 N 
HETATM    8  C   UNL     1      43.578 -14.359   3.281  1.00  0.00     0.214 A 
HETATM    9  N   UNL     1      43.598 -13.674   4.380  1.00  0.00    -0.235 NA
HETATM   10  C   UNL     1      40.156 -12.454   4.626  1.00  0.00    -0.021 A 
HETATM   11  C   UNL     1      38.771 -12.326   4.070  1.00  0.00     0.051 C 
ENDROOT
BRANCH   1  12
HETATM   12  C   UNL     1      39.818 -11.165   6.818  1.00  0.00     0.259 C 
HETATM   13  N   UNL     1      39.850 -11.665   8.107  1.00  0.00    -0.356 N 
HETATM   14  H   UNL     1      40.309 -12.560   8.250  1.00  0.00     0.162 HD
HETATM   15  O   UNL     1      39.219 -10.124   6.559  1.00  0.00    -0.267 OA
BRANCH  13  16
HETATM   16  C   UNL     1      39.137 -11.046   9.202  1.00  0.00     0.124 C 
BRANCH  16  17
HETATM   17  C   UNL     1      40.066 -10.233  10.108  1.00  0.00     0.047 C 
BRANCH  17  18
HETATM   18  C   UNL     1      40.638 -11.073  11.248  1.00  0.00     0.236 C 
BRANCH  18  19
HETATM   19  N   UNL     1      42.107 -11.429  11.044  1.00  0.00    -0.072 N 
HETATM   20  H   UNL     1      42.090 -12.394  10.685  1.00  0.00     0.279 HD
BRANCH  19  21
HETATM   21  C   UNL     1      42.936 -11.495  12.317  1.00  0.00     0.230 C 
HETATM   22  C   UNL     1      43.393 -10.119  12.768  1.00  0.00     0.034 C 
ENDBRANCH  19  21
BRANCH  19  23
HETATM   23  C   UNL     1      42.825 -10.616   9.981  1.00  0.00     0.230 C 
HETATM   24  C   UNL     1      43.952 -11.405   9.342  1.00  0.00     0.034 C 
ENDBRANCH  19  23
ENDBRANCH  18  19
ENDBRANCH  17  18
ENDBRANCH  16  17
ENDBRANCH  13  16
ENDBRANCH   1  12
BRANCH   7  25
HETATM   25  C   UNL     1      42.558 -15.449   1.335  1.00  0.00     0.236 C 
BRANCH  25  26
HETATM   26  C   UNL     1      43.443 -16.667   1.620  1.00  0.00     0.240 C 
HETATM   27  N   UNL     1      42.788 -17.620   2.385  1.00  0.00    -0.326 N 
HETATM   28  H   UNL     1      41.788 -17.509   2.506  1.00  0.00     0.169 HD
HETATM   29  O   UNL     1      44.618 -16.696   1.266  1.00  0.00    -0.271 OA
BRANCH  27  30
HETATM   30  C   UNL     1      43.341 -18.764   3.000  1.00  0.00     0.036 A 
HETATM   31  C   UNL     1      43.655 -19.944   2.328  1.00  0.00     0.053 A 
HETATM   32  C   UNL     1      44.247 -21.014   3.014  1.00  0.00     0.042 A 
HETATM   33 CL   UNL     1      44.625 -22.440   2.110  1.00  0.00    -0.084 Cl
HETATM   34  C   UNL     1      44.532 -20.925   4.385  1.00  0.00    -0.040 A 
HETATM   35  C   UNL     1      45.183 -22.049   5.141  1.00  0.00     0.050 C 
HETATM   36  C   UNL     1      44.207 -19.740   5.055  1.00  0.00     0.011 A 
HETATM   37  C   UNL     1      43.620 -18.673   4.370  1.00  0.00     0.030 A 
ENDBRANCH  27  30
ENDBRANCH  25  26
ENDBRANCH   7  25
TORSDOF 10
ENDMDL
MODEL 4
REMARK VINA RESULT:      -7.6      4.297      8.249
REMARK  10 active torsions:
REMARK  status: ('A' for Active; 'I' for Inactive)
REMARK    1  A    between atoms: C_2  and  N_3 
REMARK    2  A    between atoms: N_3  and  C_5 
REMARK    3  A    between atoms: N_3  and  C_34 
REMARK    4  A    between atoms: C_5  and  C_6 
REMARK    5  A    between atoms: C_6  and  C_7 
REMARK    6  A    between atoms: C_7  and  N_8 
REMARK       I    between atoms: N_8  and  C_9 
REMARK    7  A    between atoms: C_9  and  C_10 
REMARK    8  A    between atoms: N_16  and  C_17 
REMARK    9  A    between atoms: C_17  and  C_18 
REMARK       I    between atoms: C_18  and  N_19 
REMARK   10  A    between atoms: N_19  and  C_20 
ROOT
HETATM    1  C   UNL     1      39.782 -12.244   1.323  1.00  0.00     0.081 A 
HETATM    2  S   UNL     1      38.741 -12.131   2.680  1.00  0.00    -0.063 SA
HETATM    3  C   UNL     1      39.856 -12.917   3.691  1.00  0.00     0.116 A 
HETATM    4  C   UNL     1      41.000 -13.282   3.014  1.00  0.00     0.075 A 
HETATM    5  C   UNL     1      42.001 -14.035   3.759  1.00  0.00     0.262 A 
HETATM    6  O   UNL     1      43.045 -14.437   3.250  1.00  0.00    -0.267 OA
HETATM    7  N   UNL     1      41.645 -14.306   5.077  1.00  0.00    -0.299 N 
HETATM    8  C   UNL     1      40.477 -13.814   5.630  1.00  0.00     0.214 A 
HETATM    9  N   UNL     1      39.571 -13.142   4.995  1.00  0.00    -0.235 NA
HETATM   10  C   UNL     1      40.992 -12.852   1.635  1.00  0.00    -0.021 A 
HETATM   11  C   UNL     1      42.104 -13.088   0.660  1.00  0.00     0.051 C 
ENDROOT
BRANCH   1  12
HETATM   12  C   UNL     1      39.337 -11.683   0.062  1.00  0.00     0.259 C 
HETATM   13  N   UNL     1      38.475 -12.492  -0.657  1.00  0.00    -0.356 N 
HETATM   14  H   UNL     1      38.301 -13.426  -0.297  1.00  0.00     0.162 HD
HETATM   15  O   UNL     1      39.649 -10.569  -0.352  1.00  0.00    -0.267 OA
BRANCH  13  16
HETATM   16  C   UNL     1      37.951 -12.118  -1.951  1.00  0.00     0.124 C 
BRANCH  16  17
HETATM   17  C   UNL     1      38.542 -12.967  -3.080  1.00  0.00     0.047 C 
BRANCH  17  18
HETATM   18  C   UNL     1      39.913 -12.461  -3.524  1.00  0.00     0.236 C 
BRANCH  18  19
HETATM   19  N   UNL     1      41.065 -13.224  -2.879  1.00  0.00    -0.072 N 
HETATM   20  H   UNL     1      40.883 -13.158  -1.867  1.00  0.00     0.279 HD
BRANCH  19  21
HETATM   21  C   UNL     1      42.440 -12.603  -3.076  1.00  0.00     0.230 C 
HETATM   22  C   UNL     1      42.501 -11.183  -2.546  1.00  0.00     0.034 C 
ENDBRANCH  19  21
BRANCH  19  23
HETATM   23  C   UNL     1      41.104 -14.711  -3.184  1.00  0.00     0.230 C 
HETATM   24  C   UNL     1      41.007 -15.544  -1.921  1.00  0.00     0.034 C 
ENDBRANCH  19  23
ENDBRANCH  18  19
ENDBRANCH  17  18
ENDBRANCH  16  17
ENDBRANCH  13  16
ENDBRANCH   1  12
BRANCH   7  25
HETATM   25  C   UNL     1      42.526 -15.141   5.874  1.00  0.00     0.236 C 
BRANCH  25  26
HETATM   26  C   UNL     1      42.457 -16.611   5.448  1.00  0.00     0.240 C 
HETATM   27  N   UNL     1      43.647 -17.046   4.883  1.00  0.00    -0.326 N 
HETATM   28  H   UNL     1      44.454 -16.441   4.981  1.00  0.00     0.169 HD
HETATM   29  O   UNL     1      41.414 -17.251   5.537  1.00  0.00    -0.271 OA
BRANCH  27  30
HETATM   30  C   UNL     1      43.888 -18.261   4.206  1.00  0.00     0.036 A 
HETATM   31  C   UNL     1      44.392 -19.411   4.811  1.00  0.00     0.053 A 
HETATM   32  C   UNL     1      44.555 -20.589   4.067  1.00  0.00     0.042 A 
HETATM   33 CL   UNL     1      45.167 -21.983   4.888  1.00  0.00    -0.084 Cl
HETATM   34  C   UNL     1      44.221 -20.636   2.705  1.00  0.00    -0.040 A 
HETATM   35  C   UNL     1      44.367 -21.889   1.888  1.00  0.00     0.050 C 
HETATM   36  C   UNL     1      43.723 -19.474   2.103  1.00  0.00     0.011 A 
HETATM   37  C   UNL     1      43.558 -18.302   2.845  1.00  0.00     0.030 A 
ENDBRANCH  27  30
ENDBRANCH  25  26
ENDBRANCH   7  25
TORSDOF 10
ENDMDL
MODEL 5
REMARK VINA RESULT:      -7.4      4.671      8.476
REMARK  10 active torsions:
REMARK  status: ('A' for Active; 'I' for Inactive)
REMARK    1  A    between atoms: C_2  and  N_3 
REMARK    2  A    between atoms: N_3  and  C_5 
REMARK    3  A    between atoms: N_3  and  C_34 
REMARK    4  A    between atoms: C_5  and  C_6 
REMARK    5  A    between atoms: C_6  and  C_7 
REMARK    6  A    between atoms: C_7  and  N_8 
REMARK       I    between atoms: N_8  and  C_9 
REMARK    7  A    between atoms: C_9  and  C_10 
REMARK    8  A    between atoms: N_16  and  C_17 
REMARK    9  A    between atoms: C_17  and  C_18 
REMARK       I    between atoms: C_18  and  N_19 
REMARK   10  A    between atoms: N_19  and  C_20 
ROOT
HETATM    1  C   UNL     1      40.485 -13.306   1.184  1.00  0.00     0.081 A 
HETATM    2  S   UNL     1      41.946 -12.464   1.486  1.00  0.00    -0.063 SA
HETATM    3  C   UNL     1      42.306 -13.427   2.837  1.00  0.00     0.116 A 
HETATM    4  C   UNL     1      41.328 -14.369   3.076  1.00  0.00     0.075 A 
HETATM    5  C   UNL     1      41.485 -15.206   4.259  1.00  0.00     0.262 A 
HETATM    6  O   UNL     1      40.661 -16.057   4.586  1.00  0.00    -0.267 OA
HETATM    7  N   UNL     1      42.620 -14.919   5.011  1.00  0.00    -0.299 N 
HETATM    8  C   UNL     1      43.545 -13.976   4.602  1.00  0.00     0.214 A 
HETATM    9  N   UNL     1      43.433 -13.219   3.558  1.00  0.00    -0.235 NA
HETATM   10  C   UNL     1      40.275 -14.341   2.087  1.00  0.00    -0.021 A 
HETATM   11  C   UNL     1      39.090 -15.256   2.076  1.00  0.00     0.051 C 
ENDROOT
BRANCH   1  12
HETATM   12  C   UNL     1      39.677 -12.904   0.048  1.00  0.00     0.259 C 
HETATM   13  N   UNL     1      40.012 -13.520  -1.145  1.00  0.00    -0.356 N 
HETATM   14  H   UNL     1      40.832 -14.119  -1.147  1.00  0.00     0.162 HD
HETATM   15  O   UNL     1      38.741 -12.111   0.107  1.00  0.00    -0.267 OA
BRANCH  13  16
HETATM   16  C   UNL     1      39.341 -13.224  -2.391  1.00  0.00     0.124 C 
BRANCH  16  17
HETATM   17  C   UNL     1      40.027 -12.092  -3.159  1.00  0.00     0.047 C 
BRANCH  17  18
HETATM   18  C   UNL     1      41.345 -12.538  -3.789  1.00  0.00     0.236 C 
BRANCH  18  19
HETATM   19  N   UNL     1      42.516 -11.634  -3.418  1.00  0.00    -0.072 N 
HETATM   20  H   UNL     1      43.303 -11.990  -3.979  1.00  0.00     0.279 HD
BRANCH  19  21
HETATM   21  C   UNL     1      42.979 -11.739  -1.973  1.00  0.00     0.230 C 
HETATM   22  C   UNL     1      43.335 -10.383  -1.392  1.00  0.00     0.034 C 
ENDBRANCH  19  21
BRANCH  19  23
HETATM   23  C   UNL     1      42.360 -10.179  -3.823  1.00  0.00     0.230 C 
HETATM   24  C   UNL     1      42.318 -10.020  -5.331  1.00  0.00     0.034 C 
ENDBRANCH  19  23
ENDBRANCH  18  19
ENDBRANCH  17  18
ENDBRANCH  16  17
ENDBRANCH  13  16
ENDBRANCH   1  12
BRANCH   7  25
HETATM   25  C   UNL     1      42.816 -15.625   6.265  1.00  0.00     0.236 C 
BRANCH  25  26
HETATM   26  C   UNL     1      43.309 -17.059   6.041  1.00  0.00     0.240 C 
HETATM   27  N   UNL     1      43.627 -17.298   4.712  1.00  0.00    -0.326 N 
HETATM   28  H   UNL     1      43.683 -16.494   4.098  1.00  0.00     0.169 HD
HETATM   29  O   UNL     1      43.310 -17.880   6.952  1.00  0.00    -0.271 OA
BRANCH  27  30
HETATM   30  C   UNL     1      43.919 -18.539   4.104  1.00  0.00     0.036 A 
HETATM   31  C   UNL     1      44.452 -19.637   4.777  1.00  0.00     0.053 A 
HETATM   32  C   UNL     1      44.666 -20.847   4.099  1.00  0.00     0.042 A 
HETATM   33 CL   UNL     1      45.313 -22.173   5.002  1.00  0.00    -0.084 Cl
HETATM   34  C   UNL     1      44.355 -20.977   2.738  1.00  0.00    -0.040 A 
HETATM   35  C   UNL     1      44.556 -22.266   1.992  1.00  0.00     0.050 C 
HETATM   36  C   UNL     1      43.827 -19.867   2.067  1.00  0.00     0.011 A 
HETATM   37  C   UNL     1      43.612 -18.663   2.744  1.00  0.00     0.030 A 
ENDBRANCH  27  30
ENDBRANCH  25  26
ENDBRANCH   7  25
TORSDOF 10
ENDMDL
MODEL 6
REMARK VINA RESULT:      -7.4      1.395      1.961
REMARK  10 active torsions:
REMARK  status: ('A' for Active; 'I' for Inactive)
REMARK    1  A    between atoms: C_2  and  N_3 
REMARK    2  A    between atoms: N_3  and  C_5 
REMARK    3  A    between atoms: N_3  and  C_34 
REMARK    4  A    between atoms: C_5  and  C_6 
REMARK    5  A    between atoms: C_6  and  C_7 
REMARK    6  A    between atoms: C_7  and  N_8 
REMARK       I    between atoms: N_8  and  C_9 
REMARK    7  A    between atoms: C_9  and  C_10 
REMARK    8  A    between atoms: N_16  and  C_17 
REMARK    9  A    between atoms: C_17  and  C_18 
REMARK       I    between atoms: C_18  and  N_19 
REMARK   10  A    between atoms: N_19  and  C_20 
ROOT
HETATM    1  C   UNL     1      40.561 -11.743   6.027  1.00  0.00     0.081 A 
HETATM    2  S   UNL     1      39.234 -11.780   4.943  1.00  0.00    -0.063 SA
HETATM    3  C   UNL     1      39.993 -12.921   3.941  1.00  0.00     0.116 A 
HETATM    4  C   UNL     1      41.246 -13.263   4.402  1.00  0.00     0.075 A 
HETATM    5  C   UNL     1      42.031 -14.178   3.583  1.00  0.00     0.262 A 
HETATM    6  O   UNL     1      43.170 -14.529   3.881  1.00  0.00    -0.267 OA
HETATM    7  N   UNL     1      41.397 -14.574   2.408  1.00  0.00    -0.299 N 
HETATM    8  C   UNL     1      40.103 -14.186   2.114  1.00  0.00     0.214 A 
HETATM    9  N   UNL     1      39.382 -13.377   2.822  1.00  0.00    -0.235 NA
HETATM   10  C   UNL     1      41.575 -12.616   5.651  1.00  0.00    -0.021 A 
HETATM   11  C   UNL     1      42.857 -12.807   6.401  1.00  0.00     0.051 C 
ENDROOT
BRANCH   1  12
HETATM   12  C   UNL     1      40.479 -10.881   7.191  1.00  0.00     0.259 C 
HETATM   13  N   UNL     1      39.929 -11.477   8.312  1.00  0.00    -0.356 N 
HETATM   14  H   UNL     1      39.554 -12.415   8.206  1.00  0.00     0.162 HD
HETATM   15  O   UNL     1      40.887  -9.722   7.228  1.00  0.00    -0.267 OA
BRANCH  13  16
HETATM   16  C   UNL     1      39.736 -10.768   9.557  1.00  0.00     0.124 C 
BRANCH  16  17
HETATM   17  C   UNL     1      40.820 -11.104  10.584  1.00  0.00     0.047 C 
BRANCH  17  18
HETATM   18  C   UNL     1      41.197  -9.896  11.440  1.00  0.00     0.236 C 
BRANCH  18  19
HETATM   19  N   UNL     1      40.511  -9.896  12.802  1.00  0.00    -0.072 N 
HETATM   20  H   UNL     1      39.818 -10.655  12.741  1.00  0.00     0.279 HD
BRANCH  19  21
HETATM   21  C   UNL     1      39.703  -8.646  13.117  1.00  0.00     0.230 C 
HETATM   22  C   UNL     1      38.315  -8.699  12.504  1.00  0.00     0.034 C 
ENDBRANCH  19  21
BRANCH  19  23
HETATM   23  C   UNL     1      41.406 -10.261  13.974  1.00  0.00     0.230 C 
HETATM   24  C   UNL     1      42.826  -9.771  13.766  1.00  0.00     0.034 C 
ENDBRANCH  19  23
ENDBRANCH  18  19
ENDBRANCH  17  18
ENDBRANCH  16  17
ENDBRANCH  13  16
ENDBRANCH   1  12
BRANCH   7  25
HETATM   25  C   UNL     1      42.134 -15.401   1.469  1.00  0.00     0.236 C 
BRANCH  25  26
HETATM   26  C   UNL     1      42.154 -16.872   1.900  1.00  0.00     0.240 C 
HETATM   27  N   UNL     1      43.180 -17.138   2.794  1.00  0.00    -0.326 N 
HETATM   28  H   UNL     1      43.662 -16.342   3.197  1.00  0.00     0.169 HD
HETATM   29  O   UNL     1      41.385 -17.690   1.406  1.00  0.00    -0.271 OA
BRANCH  27  30
HETATM   30  C   UNL     1      43.625 -18.399   3.248  1.00  0.00     0.036 A 
HETATM   31  C   UNL     1      43.859 -19.495   2.418  1.00  0.00     0.053 A 
HETATM   32  C   UNL     1      44.346 -20.697   2.953  1.00  0.00     0.042 A 
HETATM   33 CL   UNL     1      44.630 -22.008   1.861  1.00  0.00    -0.084 Cl
HETATM   34  C   UNL     1      44.605 -20.824   4.326  1.00  0.00    -0.040 A 
HETATM   35  C   UNL     1      45.145 -22.093   4.923  1.00  0.00     0.050 C 
HETATM   36  C   UNL     1      44.360 -19.722   5.153  1.00  0.00     0.011 A 
HETATM   37  C   UNL     1      43.878 -18.524   4.620  1.00  0.00     0.030 A 
ENDBRANCH  27  30
ENDBRANCH  25  26
ENDBRANCH   7  25
TORSDOF 10
ENDMDL
MODEL 7
REMARK VINA RESULT:      -7.3      1.673      2.696
REMARK  10 active torsions:
REMARK  status: ('A' for Active; 'I' for Inactive)
REMARK    1  A    between atoms: C_2  and  N_3 
REMARK    2  A    between atoms: N_3  and  C_5 
REMARK    3  A    between atoms: N_3  and  C_34 
REMARK    4  A    between atoms: C_5  and  C_6 
REMARK    5  A    between atoms: C_6  and  C_7 
REMARK    6  A    between atoms: C_7  and  N_8 
REMARK       I    between atoms: N_8  and  C_9 
REMARK    7  A    between atoms: C_9  and  C_10 
REMARK    8  A    between atoms: N_16  and  C_17 
REMARK    9  A    between atoms: C_17  and  C_18 
REMARK       I    between atoms: C_18  and  N_19 
REMARK   10  A    between atoms: N_19  and  C_20 
ROOT
HETATM    1  C   UNL     1      43.496 -11.701   8.214  1.00  0.00     0.081 A 
HETATM    2  S   UNL     1      41.999 -11.008   7.749  1.00  0.00    -0.063 SA
HETATM    3  C   UNL     1      41.827 -12.080   6.443  1.00  0.00     0.116 A 
HETATM    4  C   UNL     1      42.895 -12.946   6.341  1.00  0.00     0.075 A 
HETATM    5  C   UNL     1      42.900 -13.865   5.209  1.00  0.00     0.262 A 
HETATM    6  O   UNL     1      43.814 -14.660   5.002  1.00  0.00    -0.267 OA
HETATM    7  N   UNL     1      41.809 -13.723   4.357  1.00  0.00    -0.299 N 
HETATM    8  C   UNL     1      40.781 -12.840   4.633  1.00  0.00     0.214 A 
HETATM    9  N   UNL     1      40.747 -12.014   5.629  1.00  0.00    -0.235 NA
HETATM   10  C   UNL     1      43.860 -12.767   7.401  1.00  0.00    -0.021 A 
HETATM   11  C   UNL     1      45.111 -13.574   7.562  1.00  0.00     0.051 C 
ENDROOT
BRANCH   1  12
HETATM   12  C   UNL     1      44.175 -11.162   9.377  1.00  0.00     0.259 C 
HETATM   13  N   UNL     1      43.505 -11.345  10.573  1.00  0.00    -0.356 N 
HETATM   14  H   UNL     1      42.574 -11.750  10.530  1.00  0.00     0.162 HD
HETATM   15  O   UNL     1      45.274 -10.613   9.347  1.00  0.00    -0.267 OA
BRANCH  13  16
HETATM   16  C   UNL     1      44.009 -10.850  11.834  1.00  0.00     0.124 C 
BRANCH  16  17
HETATM   17  C   UNL     1      43.305  -9.562  12.270  1.00  0.00     0.047 C 
BRANCH  17  18
HETATM   18  C   UNL     1      42.099  -9.239  11.391  1.00  0.00     0.236 C 
BRANCH  18  19
HETATM   19  N   UNL     1      40.770  -9.410  12.120  1.00  0.00    -0.072 N 
HETATM   20  H   UNL     1      40.133  -9.792  11.406  1.00  0.00     0.279 HD
BRANCH  19  21
HETATM   21  C   UNL     1      40.118  -8.116  12.582  1.00  0.00     0.230 C 
HETATM   22  C   UNL     1      40.532  -7.744  13.993  1.00  0.00     0.034 C 
ENDBRANCH  19  21
BRANCH  19  23
HETATM   23  C   UNL     1      40.778 -10.433  13.242  1.00  0.00     0.230 C 
HETATM   24  C   UNL     1      40.325 -11.797  12.759  1.00  0.00     0.034 C 
ENDBRANCH  19  23
ENDBRANCH  18  19
ENDBRANCH  17  18
ENDBRANCH  16  17
ENDBRANCH  13  16
ENDBRANCH   1  12
BRANCH   7  25
HETATM   25  C   UNL     1      41.771 -14.518   3.143  1.00  0.00     0.236 C 
BRANCH  25  26
HETATM   26  C   UNL     1      41.887 -16.017   3.439  1.00  0.00     0.240 C 
HETATM   27  N   UNL     1      43.104 -16.537   3.024  1.00  0.00    -0.326 N 
HETATM   28  H   UNL     1      43.825 -15.875   2.761  1.00  0.00     0.169 HD
HETATM   29  O   UNL     1      40.944 -16.648   3.906  1.00  0.00    -0.271 OA
BRANCH  27  30
HETATM   30  C   UNL     1      43.483 -17.895   2.953  1.00  0.00     0.036 A 
HETATM   31  C   UNL     1      43.976 -18.631   4.030  1.00  0.00     0.053 A 
HETATM   32  C   UNL     1      44.284 -19.991   3.876  1.00  0.00     0.042 A 
HETATM   33 CL   UNL     1      44.873 -20.845   5.260  1.00  0.00    -0.084 Cl
HETATM   34  C   UNL     1      44.108 -20.637   2.643  1.00  0.00    -0.040 A 
HETATM   35  C   UNL     1      44.411 -22.097   2.456  1.00  0.00     0.050 C 
HETATM   36  C   UNL     1      43.620 -19.889   1.565  1.00  0.00     0.011 A 
HETATM   37  C   UNL     1      43.311 -18.536   1.719  1.00  0.00     0.030 A 
ENDBRANCH  27  30
ENDBRANCH  25  26
ENDBRANCH   7  25
TORSDOF 10
ENDMDL
MODEL 8
REMARK VINA RESULT:      -7.1      4.892      7.001
REMARK  10 active torsions:
REMARK  status: ('A' for Active; 'I' for Inactive)
REMARK    1  A    between atoms: C_2  and  N_3 
REMARK    2  A    between atoms: N_3  and  C_5 
REMARK    3  A    between atoms: N_3  and  C_34 
REMARK    4  A    between atoms: C_5  and  C_6 
REMARK    5  A    between atoms: C_6  and  C_7 
REMARK    6  A    between atoms: C_7  and  N_8 
REMARK       I    between atoms: N_8  and  C_9 
REMARK    7  A    between atoms: C_9  and  C_10 
REMARK    8  A    between atoms: N_16  and  C_17 
REMARK    9  A    between atoms: C_17  and  C_18 
REMARK       I    between atoms: C_18  and  N_19 
REMARK   10  A    between atoms: N_19  and  C_20 
ROOT
HETATM    1  C   UNL     1      38.362 -11.272   2.946  1.00  0.00     0.081 A 
HETATM    2  S   UNL     1      37.625 -11.571   1.428  1.00  0.00    -0.063 SA
HETATM    3  C   UNL     1      38.727 -12.806   1.055  1.00  0.00     0.116 A 
HETATM    4  C   UNL     1      39.659 -12.988   2.054  1.00  0.00     0.075 A 
HETATM    5  C   UNL     1      40.709 -13.970   1.815  1.00  0.00     0.262 A 
HETATM    6  O   UNL     1      41.608 -14.194   2.623  1.00  0.00    -0.267 OA
HETATM    7  N   UNL     1      40.634 -14.590   0.571  1.00  0.00    -0.299 N 
HETATM    8  C   UNL     1      39.594 -14.340  -0.305  1.00  0.00     0.214 A 
HETATM    9  N   UNL     1      38.648 -13.476  -0.120  1.00  0.00    -0.235 NA
HETATM   10  C   UNL     1      39.430 -12.127   3.192  1.00  0.00    -0.021 A 
HETATM   11  C   UNL     1      40.267 -12.112   4.434  1.00  0.00     0.051 C 
ENDROOT
BRANCH   1  12
HETATM   12  C   UNL     1      37.800 -10.241   3.798  1.00  0.00     0.259 C 
HETATM   13  N   UNL     1      36.695  -9.597   3.270  1.00  0.00    -0.356 N 
HETATM   14  H   UNL     1      36.430  -9.828   2.317  1.00  0.00     0.162 HD
HETATM   15  O   UNL     1      38.220  -9.959   4.917  1.00  0.00    -0.267 OA
BRANCH  13  16
HETATM   16  C   UNL     1      36.018  -8.521   3.957  1.00  0.00     0.124 C 
BRANCH  16  17
HETATM   17  C   UNL     1      34.607  -8.286   3.411  1.00  0.00     0.047 C 
BRANCH  17  18
HETATM   18  C   UNL     1      33.926  -9.589   2.997  1.00  0.00     0.236 C 
BRANCH  18  19
HETATM   19  N   UNL     1      32.686  -9.900   3.830  1.00  0.00    -0.072 N 
HETATM   20  H   UNL     1      32.021  -9.150   3.591  1.00  0.00     0.279 HD
BRANCH  19  21
HETATM   21  C   UNL     1      32.878  -9.795   5.335  1.00  0.00     0.230 C 
HETATM   22  C   UNL     1      31.924  -8.794   5.960  1.00  0.00     0.034 C 
ENDBRANCH  19  21
BRANCH  19  23
HETATM   23  C   UNL     1      31.978 -11.195   3.472  1.00  0.00     0.230 C 
HETATM   24  C   UNL     1      30.645 -10.935   2.799  1.00  0.00     0.034 C 
ENDBRANCH  19  23
ENDBRANCH  18  19
ENDBRANCH  17  18
ENDBRANCH  16  17
ENDBRANCH  13  16
ENDBRANCH   1  12
BRANCH   7  25
HETATM   25  C   UNL     1      41.693 -15.509   0.191  1.00  0.00     0.236 C 
BRANCH  25  26
HETATM   26  C   UNL     1      41.725 -16.746   1.095  1.00  0.00     0.240 C 
HETATM   27  N   UNL     1      42.985 -16.967   1.630  1.00  0.00    -0.326 N 
HETATM   28  H   UNL     1      43.667 -16.223   1.532  1.00  0.00     0.169 HD
HETATM   29  O   UNL     1      40.742 -17.471   1.216  1.00  0.00    -0.271 OA
BRANCH  27  30
HETATM   30  C   UNL     1      43.436 -18.103   2.337  1.00  0.00     0.036 A 
HETATM   31  C   UNL     1      43.660 -19.351   1.757  1.00  0.00     0.053 A 
HETATM   32  C   UNL     1      44.155 -20.412   2.530  1.00  0.00     0.042 A 
HETATM   33 CL   UNL     1      44.425 -21.927   1.740  1.00  0.00    -0.084 Cl
HETATM   34  C   UNL     1      44.430 -20.245   3.895  1.00  0.00    -0.040 A 
HETATM   35  C   UNL     1      44.979 -21.358   4.742  1.00  0.00     0.050 C 
HETATM   36  C   UNL     1      44.196 -18.990   4.472  1.00  0.00     0.011 A 
HETATM   37  C   UNL     1      43.706 -17.933   3.701  1.00  0.00     0.030 A 
ENDBRANCH  27  30
ENDBRANCH  25  26
ENDBRANCH   7  25
TORSDOF 10
ENDMDL
MODEL 9
REMARK VINA RESULT:      -7.1      4.145      6.469
REMARK  10 active torsions:
REMARK  status: ('A' for Active; 'I' for Inactive)
REMARK    1  A    between atoms: C_2  and  N_3 
REMARK    2  A    between atoms: N_3  and  C_5 
REMARK    3  A    between atoms: N_3  and  C_34 
REMARK    4  A    between atoms: C_5  and  C_6 
REMARK    5  A    between atoms: C_6  and  C_7 
REMARK    6  A    between atoms: C_7  and  N_8 
REMARK       I    between atoms: N_8  and  C_9 
REMARK    7  A    between atoms: C_9  and  C_10 
REMARK    8  A    between atoms: N_16  and  C_17 
REMARK    9  A    between atoms: C_17  and  C_18 
REMARK       I    between atoms: C_18  and  N_19 
REMARK   10  A    between atoms: N_19  and  C_20 
ROOT
HETATM    1  C   UNL     1      42.992 -15.061   5.917  1.00  0.00     0.081 A 
HETATM    2  S   UNL     1      43.206 -16.505   5.019  1.00  0.00    -0.063 SA
HETATM    3  C   UNL     1      41.947 -16.111   3.950  1.00  0.00     0.116 A 
HETATM    4  C   UNL     1      41.352 -14.910   4.271  1.00  0.00     0.075 A 
HETATM    5  C   UNL     1      40.204 -14.501   3.471  1.00  0.00     0.262 A 
HETATM    6  O   UNL     1      39.579 -13.465   3.686  1.00  0.00    -0.267 OA
HETATM    7  N   UNL     1      39.847 -15.413   2.482  1.00  0.00    -0.299 N 
HETATM    8  C   UNL     1      40.588 -16.556   2.245  1.00  0.00     0.214 A 
HETATM    9  N   UNL     1      41.611 -16.944   2.936  1.00  0.00    -0.235 NA
HETATM   10  C   UNL     1      41.985 -14.259   5.395  1.00  0.00    -0.021 A 
HETATM   11  C   UNL     1      41.570 -12.935   5.959  1.00  0.00     0.051 C 
ENDROOT
BRANCH   1  12
HETATM   12  C   UNL     1      43.868 -14.813   7.046  1.00  0.00     0.259 C 
HETATM   13  N   UNL     1      44.533 -13.601   7.005  1.00  0.00    -0.356 N 
HETATM   14  H   UNL     1      44.427 -13.038   6.166  1.00  0.00     0.162 HD
HETATM   15  O   UNL     1      44.007 -15.578   7.998  1.00  0.00    -0.267 OA
BRANCH  13  16
HETATM   16  C   UNL     1      45.472 -13.192   8.025  1.00  0.00     0.124 C 
BRANCH  16  17
HETATM   17  C   UNL     1      44.924 -12.052   8.887  1.00  0.00     0.047 C 
BRANCH  17  18
HETATM   18  C   UNL     1      44.413 -12.546  10.239  1.00  0.00     0.236 C 
BRANCH  18  19
HETATM   19  N   UNL     1      43.190 -11.777  10.728  1.00  0.00    -0.072 N 
HETATM   20  H   UNL     1      42.413 -12.448  10.642  1.00  0.00     0.279 HD
BRANCH  19  21
HETATM   21  C   UNL     1      42.786 -10.592   9.865  1.00  0.00     0.230 C 
HETATM   22  C   UNL     1      41.322 -10.651   9.469  1.00  0.00     0.034 C 
ENDBRANCH  19  21
BRANCH  19  23
HETATM   23  C   UNL     1      43.220 -11.382  12.194  1.00  0.00     0.230 C 
HETATM   24  C   UNL     1      43.596  -9.924  12.372  1.00  0.00     0.034 C 
ENDBRANCH  19  23
ENDBRANCH  18  19
ENDBRANCH  17  18
ENDBRANCH  16  17
ENDBRANCH  13  16
ENDBRANCH   1  12
BRANCH   7  25
HETATM   25  C   UNL     1      38.653 -15.151   1.698  1.00  0.00     0.236 C 
BRANCH  25  26
HETATM   26  C   UNL     1      38.900 -14.090   0.621  1.00  0.00     0.240 C 
HETATM   27  N   UNL     1      39.953 -14.432  -0.216  1.00  0.00    -0.326 N 
HETATM   28  H   UNL     1      40.303 -15.381  -0.154  1.00  0.00     0.169 HD
HETATM   29  O   UNL     1      38.270 -13.037   0.608  1.00  0.00    -0.271 OA
BRANCH  27  30
HETATM   30  C   UNL     1      40.587 -13.621  -1.182  1.00  0.00     0.036 A 
HETATM   31  C   UNL     1      41.546 -12.653  -0.888  1.00  0.00     0.053 A 
HETATM   32  C   UNL     1      42.158 -11.926  -1.920  1.00  0.00     0.042 A 
HETATM   33 CL   UNL     1      43.353 -10.755  -1.482  1.00  0.00    -0.084 Cl
HETATM   34  C   UNL     1      41.818 -12.152  -3.263  1.00  0.00    -0.040 A 
HETATM   35  C   UNL     1      42.471 -11.401  -4.389  1.00  0.00     0.050 C 
HETATM   36  C   UNL     1      40.848 -13.120  -3.549  1.00  0.00     0.011 A 
HETATM   37  C   UNL     1      40.241 -13.845  -2.520  1.00  0.00     0.030 A 
ENDBRANCH  27  30
ENDBRANCH  25  26
ENDBRANCH   7  25
TORSDOF 10
ENDMDL
MODEL 10
REMARK VINA RESULT:      -6.9      2.052      2.534
REMARK  10 active torsions:
REMARK  status: ('A' for Active; 'I' for Inactive)
REMARK    1  A    between atoms: C_2  and  N_3 
REMARK    2  A    between atoms: N_3  and  C_5 
REMARK    3  A    between atoms: N_3  and  C_34 
REMARK    4  A    between atoms: C_5  and  C_6 
REMARK    5  A    between atoms: C_6  and  C_7 
REMARK    6  A    between atoms: C_7  and  N_8 
REMARK       I    between atoms: N_8  and  C_9 
REMARK    7  A    between atoms: C_9  and  C_10 
REMARK    8  A    between atoms: N_16  and  C_17 
REMARK    9  A    between atoms: C_17  and  C_18 
REMARK       I    between atoms: C_18  and  N_19 
REMARK   10  A    between atoms: N_19  and  C_20 
ROOT
HETATM    1  C   UNL     1      40.297 -11.414   4.944  1.00  0.00     0.081 A 
HETATM    2  S   UNL     1      40.610 -10.592   3.473  1.00  0.00    -0.063 SA
HETATM    3  C   UNL     1      40.587 -12.034   2.579  1.00  0.00     0.116 A 
HETATM    4  C   UNL     1      40.364 -13.135   3.377  1.00  0.00     0.075 A 
HETATM    5  C   UNL     1      40.400 -14.443   2.734  1.00  0.00     0.262 A 
HETATM    6  O   UNL     1      40.244 -15.493   3.353  1.00  0.00    -0.267 OA
HETATM    7  N   UNL     1      40.682 -14.398   1.372  1.00  0.00    -0.299 N 
HETATM    8  C   UNL     1      40.824 -13.199   0.698  1.00  0.00     0.214 A 
HETATM    9  N   UNL     1      40.795 -12.024   1.240  1.00  0.00    -0.235 NA
HETATM   10  C   UNL     1      40.144 -12.783   4.761  1.00  0.00    -0.021 A 
HETATM   11  C   UNL     1      39.860 -13.764   5.857  1.00  0.00     0.051 C 
ENDROOT
BRANCH   1  12
HETATM   12  C   UNL     1      40.184 -10.634   6.162  1.00  0.00     0.259 C 
HETATM   13  N   UNL     1      41.392 -10.265   6.724  1.00  0.00    -0.356 N 
HETATM   14  H   UNL     1      42.238 -10.636   6.301  1.00  0.00     0.162 HD
HETATM   15  O   UNL     1      39.120 -10.281   6.664  1.00  0.00    -0.267 OA
BRANCH  13  16
HETATM   16  C   UNL     1      41.482  -9.512   7.955  1.00  0.00     0.124 C 
BRANCH  16  17
HETATM   17  C   UNL     1      41.640 -10.422   9.176  1.00  0.00     0.047 C 
BRANCH  17  18
HETATM   18  C   UNL     1      40.825  -9.931  10.370  1.00  0.00     0.236 C 
BRANCH  18  19
HETATM   19  N   UNL     1      41.630  -9.042  11.313  1.00  0.00    -0.072 N 
HETATM   20  H   UNL     1      41.622  -8.116  10.863  1.00  0.00     0.279 HD
BRANCH  19  21
HETATM   21  C   UNL     1      43.101  -9.407  11.443  1.00  0.00     0.230 C 
HETATM   22  C   UNL     1      43.367 -10.263  12.667  1.00  0.00     0.034 C 
ENDBRANCH  19  21
BRANCH  19  23
HETATM   23  C   UNL     1      41.011  -8.830  12.684  1.00  0.00     0.230 C 
HETATM   24  C   UNL     1      39.511  -8.632  12.595  1.00  0.00     0.034 C 
ENDBRANCH  19  23
ENDBRANCH  18  19
ENDBRANCH  17  18
ENDBRANCH  16  17
ENDBRANCH  13  16
ENDBRANCH   1  12
BRANCH   7  25
HETATM   25  C   UNL     1      40.845 -15.652   0.657  1.00  0.00     0.236 C 
BRANCH  25  26
HETATM   26  C   UNL     1      42.080 -16.423   1.134  1.00  0.00     0.240 C 
HETATM   27  N   UNL     1      41.750 -17.669   1.648  1.00  0.00    -0.326 N 
HETATM   28  H   UNL     1      40.806 -18.001   1.486  1.00  0.00     0.169 HD
HETATM   29  O   UNL     1      43.194 -15.909   1.124  1.00  0.00    -0.271 OA
BRANCH  27  30
HETATM   30  C   UNL     1      42.587 -18.563   2.351  1.00  0.00     0.036 A 
HETATM   31  C   UNL     1      43.129 -19.725   1.805  1.00  0.00     0.053 A 
HETATM   32  C   UNL     1      43.990 -20.530   2.566  1.00  0.00     0.042 A 
HETATM   33 CL   UNL     1      44.639 -21.948   1.818  1.00  0.00    -0.084 Cl
HETATM   34  C   UNL     1      44.320 -20.188   3.886  1.00  0.00    -0.040 A 
HETATM   35  C   UNL     1      45.254 -21.022   4.718  1.00  0.00     0.050 C 
HETATM   36  C   UNL     1      43.766 -19.023   4.429  1.00  0.00     0.011 A 
HETATM   37  C   UNL     1      42.911 -18.220   3.670  1.00  0.00     0.030 A 
ENDBRANCH  27  30
ENDBRANCH  25  26
ENDBRANCH   7  25
TORSDOF 10
ENDMDL
