MODEL 1
REMARK VINA RESULT:      -8.7      0.000      0.000
REMARK  6 active torsions:
REMARK  status: ('A' for Active; 'I' for Inactive)
REMARK    1  A    between atoms: O_2  and  C_3 
REMARK    2  A    between atoms: C_7  and  C_8 
REMARK    3  A    between atoms: C_8  and  N_9 
REMARK       I    between atoms: N_9  and  C_10 
REMARK       I    between atoms: C_10  and  N_12 
REMARK    4  A    between atoms: N_12  and  C_13 
REMARK    5  A    between atoms: C_16  and  C_21 
REMARK    6  A    between atoms: C_18  and  O_19 
ROOT
HETATM    1  N   UNL     1      44.272 -13.430   8.591  1.00  0.00    -0.339 N 
HETATM    2  C   UNL     1      44.559 -14.190   7.477  1.00  0.00     0.321 C 
HETATM    3  O   UNL     1      45.328 -13.797   6.608  1.00  0.00    -0.247 OA
HETATM    4  N   UNL     1      43.892 -15.389   7.493  1.00  0.00    -0.306 N 
HETATM    5  H   UNL     1      43.406 -13.613   9.072  1.00  0.00     0.164 HD
HETATM    6  H   UNL     1      43.251 -15.564   8.254  1.00  0.00     0.171 HD
ENDROOT
BRANCH   4   7
HETATM    7  C   UNL     1      43.967 -16.428   6.540  1.00  0.00     0.069 A 
HETATM    8  C   UNL     1      44.886 -17.473   6.597  1.00  0.00     0.033 A 
HETATM    9  C   UNL     1      44.888 -18.472   5.613  1.00  0.00     0.015 A 
HETATM   10  C   UNL     1      43.966 -18.451   4.556  1.00  0.00    -0.020 A 
HETATM   11  C   UNL     1      43.040 -17.402   4.500  1.00  0.00     0.051 A 
HETATM   12  C   UNL     1      43.056 -16.394   5.472  1.00  0.00     0.095 A 
BRANCH  10  13
HETATM   13  C   UNL     1      43.997 -19.498   3.547  1.00  0.00     0.010 A 
HETATM   14  C   UNL     1      44.704 -20.725   3.513  1.00  0.00     0.152 A 
HETATM   15  N   UNL     1      44.465 -21.433   2.405  1.00  0.00    -0.187 NA
HETATM   16  N   UNL     1      43.597 -20.667   1.727  1.00  0.00    -0.289 N 
HETATM   17  H   UNL     1      43.254 -21.005   0.834  1.00  0.00     0.188 HD
HETATM   18  C   UNL     1      43.287 -19.500   2.364  1.00  0.00     0.123 A 
ENDBRANCH  10  13
BRANCH  12  19
HETATM   19  O   UNL     1      42.154 -15.356   5.421  1.00  0.00    -0.354 OA
HETATM   20  C   UNL     1      40.839 -15.814   5.742  1.00  0.00     0.210 C 
ENDBRANCH  12  19
ENDBRANCH   4   7
BRANCH   1  21
HETATM   21  C   UNL     1      44.789 -12.081   8.670  1.00  0.00     0.163 C 
BRANCH  21  22
HETATM   22  C   UNL     1      44.047 -11.235   9.672  1.00  0.00    -0.038 A 
HETATM   23  C   UNL     1      44.593 -10.974  10.936  1.00  0.00     0.009 A 
HETATM   24  C   UNL     1      43.932 -10.137  11.832  1.00  0.00     0.003 A 
HETATM   25  C   UNL     1      42.727  -9.538  11.465  1.00  0.00     0.037 A 
HETATM   26  C   UNL     1      42.177  -9.765  10.202  1.00  0.00     0.068 A 
HETATM   27  C   UNL     1      42.834 -10.617   9.313  1.00  0.00     0.045 A 
BRANCH  26  28
HETATM   28  O   UNL     1      41.007  -9.100   9.961  1.00  0.00    -0.356 OA
HETATM   29  C   UNL     1      40.777  -7.913  10.711  1.00  0.00     0.210 C 
ENDBRANCH  26  28
ENDBRANCH  21  22
ENDBRANCH   1  21
TORSDOF 6
ENDMDL
MODEL 2
REMARK VINA RESULT:      -8.2      1.378      2.232
REMARK  6 active torsions:
REMARK  status: ('A' for Active; 'I' for Inactive)
REMARK    1  A    between atoms: O_2  and  C_3 
REMARK    2  A    between atoms: C_7  and  C_8 
REMARK    3  A    between atoms: C_8  and  N_9 
REMARK       I    between atoms: N_9  and  C_10 
REMARK       I    between atoms: C_10  and  N_12 
REMARK    4  A    between atoms: N_12  and  C_13 
REMARK    5  A    between atoms: C_16  and  C_21 
REMARK    6  A    between atoms: C_18  and  O_19 
ROOT
HETATM    1  N   UNL     1      44.211 -13.511   8.498  1.00  0.00    -0.339 N 
HETATM    2  C   UNL     1      44.513 -14.257   7.379  1.00  0.00     0.321 C 
HETATM    3  O   UNL     1      45.406 -13.929   6.606  1.00  0.00    -0.247 OA
HETATM    4  N   UNL     1      43.708 -15.364   7.272  1.00  0.00    -0.306 N 
HETATM    5  H   UNL     1      43.286 -13.604   8.887  1.00  0.00     0.164 HD
HETATM    6  H   UNL     1      42.979 -15.487   7.961  1.00  0.00     0.171 HD
ENDROOT
BRANCH   4   7
HETATM    7  C   UNL     1      43.752 -16.366   6.280  1.00  0.00     0.069 A 
HETATM    8  C   UNL     1      43.269 -16.203   4.984  1.00  0.00     0.033 A 
HETATM    9  C   UNL     1      43.359 -17.249   4.055  1.00  0.00     0.015 A 
HETATM   10  C   UNL     1      43.939 -18.477   4.399  1.00  0.00    -0.020 A 
HETATM   11  C   UNL     1      44.427 -18.643   5.702  1.00  0.00     0.051 A 
HETATM   12  C   UNL     1      44.315 -17.603   6.633  1.00  0.00     0.095 A 
BRANCH  10  13
HETATM   13  C   UNL     1      44.012 -19.546   3.415  1.00  0.00     0.010 A 
HETATM   14  C   UNL     1      44.738 -20.762   3.427  1.00  0.00     0.152 A 
HETATM   15  N   UNL     1      44.538 -21.499   2.330  1.00  0.00    -0.187 NA
HETATM   16  N   UNL     1      43.676 -20.763   1.613  1.00  0.00    -0.289 N 
HETATM   17  H   UNL     1      43.361 -21.127   0.721  1.00  0.00     0.188 HD
HETATM   18  C   UNL     1      43.332 -19.586   2.216  1.00  0.00     0.123 A 
ENDBRANCH  10  13
BRANCH  12  19
HETATM   19  O   UNL     1      44.787 -17.759   7.917  1.00  0.00    -0.354 OA
HETATM   20  C   UNL     1      44.174 -18.886   8.548  1.00  0.00     0.210 C 
ENDBRANCH  12  19
ENDBRANCH   4   7
BRANCH   1  21
HETATM   21  C   UNL     1      44.875 -12.241   8.694  1.00  0.00     0.163 C 
BRANCH  21  22
HETATM   22  C   UNL     1      44.056 -11.279   9.514  1.00  0.00    -0.038 A 
HETATM   23  C   UNL     1      42.855 -10.755   9.017  1.00  0.00     0.009 A 
HETATM   24  C   UNL     1      42.069  -9.918   9.806  1.00  0.00     0.003 A 
HETATM   25  C   UNL     1      42.468  -9.612  11.107  1.00  0.00     0.037 A 
HETATM   26  C   UNL     1      43.649 -10.142  11.630  1.00  0.00     0.068 A 
HETATM   27  C   UNL     1      44.442 -10.968  10.831  1.00  0.00     0.045 A 
BRANCH  26  28
HETATM   28  O   UNL     1      43.913  -9.783  12.924  1.00  0.00    -0.356 OA
HETATM   29  C   UNL     1      42.823  -9.833  13.838  1.00  0.00     0.210 C 
ENDBRANCH  26  28
ENDBRANCH  21  22
ENDBRANCH   1  21
TORSDOF 6
ENDMDL
MODEL 3
REMARK VINA RESULT:      -7.8      5.671      9.890
REMARK  6 active torsions:
REMARK  status: ('A' for Active; 'I' for Inactive)
REMARK    1  A    between atoms: O_2  and  C_3 
REMARK    2  A    between atoms: C_7  and  C_8 
REMARK    3  A    between atoms: C_8  and  N_9 
REMARK       I    between atoms: N_9  and  C_10 
REMARK       I    between atoms: C_10  and  N_12 
REMARK    4  A    between atoms: N_12  and  C_13 
REMARK    5  A    between atoms: C_16  and  C_21 
REMARK    6  A    between atoms: C_18  and  O_19 
ROOT
HETATM    1  N   UNL     1      41.175 -16.293  -0.697  1.00  0.00    -0.339 N 
HETATM    2  C   UNL     1      41.648 -16.095   0.582  1.00  0.00     0.321 C 
HETATM    3  O   UNL     1      42.051 -15.000   0.959  1.00  0.00    -0.247 OA
HETATM    4  N   UNL     1      41.597 -17.245   1.328  1.00  0.00    -0.306 N 
HETATM    5  H   UNL     1      41.196 -17.231  -1.064  1.00  0.00     0.164 HD
HETATM    6  H   UNL     1      41.282 -18.091   0.873  1.00  0.00     0.171 HD
ENDROOT
BRANCH   4   7
HETATM    7  C   UNL     1      41.965 -17.411   2.681  1.00  0.00     0.069 A 
HETATM    8  C   UNL     1      41.295 -16.819   3.749  1.00  0.00     0.033 A 
HETATM    9  C   UNL     1      41.721 -17.042   5.066  1.00  0.00     0.015 A 
HETATM   10  C   UNL     1      42.820 -17.867   5.343  1.00  0.00    -0.020 A 
HETATM   11  C   UNL     1      43.493 -18.465   4.270  1.00  0.00     0.051 A 
HETATM   12  C   UNL     1      43.078 -18.221   2.955  1.00  0.00     0.095 A 
BRANCH  10  13
HETATM   13  C   UNL     1      43.242 -18.074   6.720  1.00  0.00     0.010 A 
HETATM   14  C   UNL     1      43.960 -19.142   7.313  1.00  0.00     0.152 A 
HETATM   15  N   UNL     1      44.168 -18.966   8.621  1.00  0.00    -0.187 NA
HETATM   16  N   UNL     1      43.592 -17.781   8.872  1.00  0.00    -0.289 N 
HETATM   17  H   UNL     1      43.628 -17.421   9.819  1.00  0.00     0.188 HD
HETATM   18  C   UNL     1      43.023 -17.208   7.770  1.00  0.00     0.123 A 
ENDBRANCH  10  13
BRANCH  12  19
HETATM   19  O   UNL     1      43.737 -18.800   1.894  1.00  0.00    -0.354 OA
HETATM   20  C   UNL     1      43.642 -20.224   1.956  1.00  0.00     0.210 C 
ENDBRANCH  12  19
ENDBRANCH   4   7
BRANCH   1  21
HETATM   21  C   UNL     1      41.280 -15.216  -1.658  1.00  0.00     0.163 C 
BRANCH  21  22
HETATM   22  C   UNL     1      40.098 -15.155  -2.590  1.00  0.00    -0.038 A 
HETATM   23  C   UNL     1      39.831 -16.204  -3.480  1.00  0.00     0.009 A 
HETATM   24  C   UNL     1      38.699 -16.170  -4.292  1.00  0.00     0.003 A 
HETATM   25  C   UNL     1      37.814 -15.096  -4.208  1.00  0.00     0.037 A 
HETATM   26  C   UNL     1      38.048 -14.052  -3.311  1.00  0.00     0.068 A 
HETATM   27  C   UNL     1      39.191 -14.081  -2.510  1.00  0.00     0.045 A 
BRANCH  26  28
HETATM   28  O   UNL     1      37.092 -13.074  -3.311  1.00  0.00    -0.356 OA
HETATM   29  C   UNL     1      37.293 -11.979  -2.425  1.00  0.00     0.210 C 
ENDBRANCH  26  28
ENDBRANCH  21  22
ENDBRANCH   1  21
TORSDOF 6
ENDMDL
MODEL 4
REMARK VINA RESULT:      -7.8      2.246      3.344
REMARK  6 active torsions:
REMARK  status: ('A' for Active; 'I' for Inactive)
REMARK    1  A    between atoms: O_2  and  C_3 
REMARK    2  A    between atoms: C_7  and  C_8 
REMARK    3  A    between atoms: C_8  and  N_9 
REMARK       I    between atoms: N_9  and  C_10 
REMARK       I    between atoms: C_10  and  N_12 
REMARK    4  A    between atoms: N_12  and  C_13 
REMARK    5  A    between atoms: C_16  and  C_21 
REMARK    6  A    between atoms: C_18  and  O_19 
ROOT
HETATM    1  N   UNL     1      39.542 -13.314   6.648  1.00  0.00    -0.339 N 
HETATM    2  C   UNL     1      40.449 -13.964   5.840  1.00  0.00     0.321 C 
HETATM    3  O   UNL     1      41.329 -13.359   5.238  1.00  0.00    -0.247 OA
HETATM    4  N   UNL     1      40.232 -15.320   5.819  1.00  0.00    -0.306 N 
HETATM    5  H   UNL     1      38.661 -13.770   6.825  1.00  0.00     0.164 HD
HETATM    6  H   UNL     1      39.439 -15.679   6.330  1.00  0.00     0.171 HD
ENDROOT
BRANCH   4   7
HETATM    7  C   UNL     1      40.980 -16.300   5.132  1.00  0.00     0.069 A 
HETATM    8  C   UNL     1      40.979 -16.454   3.748  1.00  0.00     0.033 A 
HETATM    9  C   UNL     1      41.759 -17.450   3.143  1.00  0.00     0.015 A 
HETATM   10  C   UNL     1      42.561 -18.309   3.909  1.00  0.00    -0.020 A 
HETATM   11  C   UNL     1      42.564 -18.154   5.301  1.00  0.00     0.051 A 
HETATM   12  C   UNL     1      41.766 -17.172   5.902  1.00  0.00     0.095 A 
BRANCH  10  13
HETATM   13  C   UNL     1      43.353 -19.337   3.253  1.00  0.00     0.010 A 
HETATM   14  C   UNL     1      44.478 -20.066   3.711  1.00  0.00     0.152 A 
HETATM   15  N   UNL     1      44.932 -20.944   2.812  1.00  0.00    -0.187 NA
HETATM   16  N   UNL     1      44.095 -20.788   1.775  1.00  0.00    -0.289 N 
HETATM   17  H   UNL     1      44.236 -21.366   0.954  1.00  0.00     0.188 HD
HETATM   18  C   UNL     1      43.136 -19.838   1.987  1.00  0.00     0.123 A 
ENDBRANCH  10  13
BRANCH  12  19
HETATM   19  O   UNL     1      41.759 -17.017   7.270  1.00  0.00    -0.354 OA
HETATM   20  C   UNL     1      43.048 -17.299   7.818  1.00  0.00     0.210 C 
ENDBRANCH  12  19
ENDBRANCH   4   7
BRANCH   1  21
HETATM   21  C   UNL     1      39.546 -11.867   6.682  1.00  0.00     0.163 C 
BRANCH  21  22
HETATM   22  C   UNL     1      40.229 -11.319   7.908  1.00  0.00    -0.038 A 
HETATM   23  C   UNL     1      39.524 -11.151   9.108  1.00  0.00     0.009 A 
HETATM   24  C   UNL     1      40.178 -10.706  10.255  1.00  0.00     0.003 A 
HETATM   25  C   UNL     1      41.547 -10.441  10.217  1.00  0.00     0.037 A 
HETATM   26  C   UNL     1      42.273 -10.624   9.038  1.00  0.00     0.068 A 
HETATM   27  C   UNL     1      41.611 -11.055   7.887  1.00  0.00     0.045 A 
BRANCH  26  28
HETATM   28  O   UNL     1      43.609 -10.352   9.143  1.00  0.00    -0.356 OA
HETATM   29  C   UNL     1      44.194 -10.495  10.432  1.00  0.00     0.210 C 
ENDBRANCH  26  28
ENDBRANCH  21  22
ENDBRANCH   1  21
TORSDOF 6
ENDMDL
MODEL 5
REMARK VINA RESULT:      -7.7      5.602      8.321
REMARK  6 active torsions:
REMARK  status: ('A' for Active; 'I' for Inactive)
REMARK    1  A    between atoms: O_2  and  C_3 
REMARK    2  A    between atoms: C_7  and  C_8 
REMARK    3  A    between atoms: C_8  and  N_9 
REMARK       I    between atoms: N_9  and  C_10 
REMARK       I    between atoms: C_10  and  N_12 
REMARK    4  A    between atoms: N_12  and  C_13 
REMARK    5  A    between atoms: C_16  and  C_21 
REMARK    6  A    between atoms: C_18  and  O_19 
ROOT
HETATM    1  N   UNL     1      42.208 -13.443   1.650  1.00  0.00    -0.339 N 
HETATM    2  C   UNL     1      42.210 -14.821   1.637  1.00  0.00     0.321 C 
HETATM    3  O   UNL     1      41.428 -15.462   0.943  1.00  0.00    -0.247 OA
HETATM    4  N   UNL     1      43.171 -15.338   2.469  1.00  0.00    -0.306 N 
HETATM    5  H   UNL     1      42.592 -12.982   2.460  1.00  0.00     0.164 HD
HETATM    6  H   UNL     1      43.718 -14.690   3.019  1.00  0.00     0.171 HD
ENDROOT
BRANCH   4   7
HETATM    7  C   UNL     1      43.484 -16.697   2.683  1.00  0.00     0.069 A 
HETATM    8  C   UNL     1      43.979 -17.548   1.698  1.00  0.00     0.033 A 
HETATM    9  C   UNL     1      44.273 -18.886   1.997  1.00  0.00     0.015 A 
HETATM   10  C   UNL     1      44.086 -19.399   3.288  1.00  0.00    -0.020 A 
HETATM   11  C   UNL     1      43.590 -18.544   4.281  1.00  0.00     0.051 A 
HETATM   12  C   UNL     1      43.276 -17.214   3.972  1.00  0.00     0.095 A 
BRANCH  10  13
HETATM   13  C   UNL     1      44.393 -20.793   3.566  1.00  0.00     0.010 A 
HETATM   14  C   UNL     1      44.406 -21.923   2.710  1.00  0.00     0.152 A 
HETATM   15  N   UNL     1      44.753 -23.049   3.340  1.00  0.00    -0.187 NA
HETATM   16  N   UNL     1      44.972 -22.646   4.601  1.00  0.00    -0.289 N 
HETATM   17  H   UNL     1      45.262 -23.339   5.282  1.00  0.00     0.188 HD
HETATM   18  C   UNL     1      44.768 -21.309   4.789  1.00  0.00     0.123 A 
ENDBRANCH  10  13
BRANCH  12  19
HETATM   19  O   UNL     1      42.784 -16.368   4.940  1.00  0.00    -0.354 OA
HETATM   20  C   UNL     1      41.597 -16.906   5.526  1.00  0.00     0.210 C 
ENDBRANCH  12  19
ENDBRANCH   4   7
BRANCH   1  21
HETATM   21  C   UNL     1      41.171 -12.737   0.929  1.00  0.00     0.163 C 
BRANCH  21  22
HETATM   22  C   UNL     1      41.522 -12.514  -0.519  1.00  0.00    -0.038 A 
HETATM   23  C   UNL     1      42.447 -11.528  -0.889  1.00  0.00     0.009 A 
HETATM   24  C   UNL     1      42.817 -11.371  -2.224  1.00  0.00     0.003 A 
HETATM   25  C   UNL     1      42.278 -12.212  -3.198  1.00  0.00     0.037 A 
HETATM   26  C   UNL     1      41.373 -13.216  -2.847  1.00  0.00     0.068 A 
HETATM   27  C   UNL     1      40.993 -13.360  -1.512  1.00  0.00     0.045 A 
BRANCH  26  28
HETATM   28  O   UNL     1      40.940 -13.985  -3.893  1.00  0.00    -0.356 OA
HETATM   29  C   UNL     1      39.929 -14.944  -3.609  1.00  0.00     0.210 C 
ENDBRANCH  26  28
ENDBRANCH  21  22
ENDBRANCH   1  21
TORSDOF 6
ENDMDL
MODEL 6
REMARK VINA RESULT:      -7.6      6.028      8.230
REMARK  6 active torsions:
REMARK  status: ('A' for Active; 'I' for Inactive)
REMARK    1  A    between atoms: O_2  and  C_3 
REMARK    2  A    between atoms: C_7  and  C_8 
REMARK    3  A    between atoms: C_8  and  N_9 
REMARK       I    between atoms: N_9  and  C_10 
REMARK       I    between atoms: C_10  and  N_12 
REMARK    4  A    between atoms: N_12  and  C_13 
REMARK    5  A    between atoms: C_16  and  C_21 
REMARK    6  A    between atoms: C_18  and  O_19 
ROOT
HETATM    1  N   UNL     1      41.728 -14.143   0.530  1.00  0.00    -0.339 N 
HETATM    2  C   UNL     1      41.958 -15.497   0.650  1.00  0.00     0.321 C 
HETATM    3  O   UNL     1      41.556 -16.297  -0.186  1.00  0.00    -0.247 OA
HETATM    4  N   UNL     1      42.672 -15.794   1.784  1.00  0.00    -0.306 N 
HETATM    5  H   UNL     1      41.752 -13.588   1.371  1.00  0.00     0.164 HD
HETATM    6  H   UNL     1      42.901 -15.036   2.411  1.00  0.00     0.171 HD
ENDROOT
BRANCH   4   7
HETATM    7  C   UNL     1      43.116 -17.063   2.214  1.00  0.00     0.069 A 
HETATM    8  C   UNL     1      43.823 -17.955   1.411  1.00  0.00     0.033 A 
HETATM    9  C   UNL     1      44.235 -19.195   1.919  1.00  0.00     0.015 A 
HETATM   10  C   UNL     1      43.956 -19.566   3.242  1.00  0.00    -0.020 A 
HETATM   11  C   UNL     1      43.248 -18.669   4.051  1.00  0.00     0.051 A 
HETATM   12  C   UNL     1      42.818 -17.441   3.533  1.00  0.00     0.095 A 
BRANCH  10  13
HETATM   13  C   UNL     1      44.391 -20.862   3.738  1.00  0.00     0.010 A 
HETATM   14  C   UNL     1      44.864 -21.249   5.017  1.00  0.00     0.152 A 
HETATM   15  N   UNL     1      45.162 -22.549   5.091  1.00  0.00    -0.187 NA
HETATM   16  N   UNL     1      44.874 -23.005   3.863  1.00  0.00    -0.289 N 
HETATM   17  H   UNL     1      45.014 -23.991   3.672  1.00  0.00     0.188 HD
HETATM   18  C   UNL     1      44.413 -22.037   3.017  1.00  0.00     0.123 A 
ENDBRANCH  10  13
BRANCH  12  19
HETATM   19  O   UNL     1      42.116 -16.556   4.319  1.00  0.00    -0.354 OA
HETATM   20  C   UNL     1      41.243 -17.253   5.210  1.00  0.00     0.210 C 
ENDBRANCH  12  19
ENDBRANCH   4   7
BRANCH   1  21
HETATM   21  C   UNL     1      40.878 -13.669  -0.540  1.00  0.00     0.163 C 
BRANCH  21  22
HETATM   22  C   UNL     1      41.567 -12.661  -1.423  1.00  0.00    -0.038 A 
HETATM   23  C   UNL     1      41.194 -12.510  -2.766  1.00  0.00     0.009 A 
HETATM   24  C   UNL     1      41.789 -11.531  -3.559  1.00  0.00     0.003 A 
HETATM   25  C   UNL     1      42.749 -10.681  -3.010  1.00  0.00     0.037 A 
HETATM   26  C   UNL     1      43.118 -10.799  -1.668  1.00  0.00     0.068 A 
HETATM   27  C   UNL     1      42.531 -11.791  -0.882  1.00  0.00     0.045 A 
BRANCH  26  28
HETATM   28  O   UNL     1      44.051  -9.890  -1.252  1.00  0.00    -0.356 OA
HETATM   29  C   UNL     1      43.619  -8.540  -1.122  1.00  0.00     0.210 C 
ENDBRANCH  26  28
ENDBRANCH  21  22
ENDBRANCH   1  21
TORSDOF 6
ENDMDL
MODEL 7
REMARK VINA RESULT:      -7.4      4.211      9.760
REMARK  6 active torsions:
REMARK  status: ('A' for Active; 'I' for Inactive)
REMARK    1  A    between atoms: O_2  and  C_3 
REMARK    2  A    between atoms: C_7  and  C_8 
REMARK    3  A    between atoms: C_8  and  N_9 
REMARK       I    between atoms: N_9  and  C_10 
REMARK       I    between atoms: C_10  and  N_12 
REMARK    4  A    between atoms: N_12  and  C_13 
REMARK    5  A    between atoms: C_16  and  C_21 
REMARK    6  A    between atoms: C_18  and  O_19 
ROOT
HETATM    1  N   UNL     1      42.094 -18.148   1.785  1.00  0.00    -0.339 N 
HETATM    2  C   UNL     1      42.162 -16.965   2.489  1.00  0.00     0.321 C 
HETATM    3  O   UNL     1      43.224 -16.379   2.667  1.00  0.00    -0.247 OA
HETATM    4  N   UNL     1      40.926 -16.564   2.932  1.00  0.00    -0.306 N 
HETATM    5  H   UNL     1      41.309 -18.754   1.962  1.00  0.00     0.164 HD
HETATM    6  H   UNL     1      40.139 -17.171   2.750  1.00  0.00     0.171 HD
ENDROOT
BRANCH   4   7
HETATM    7  C   UNL     1      40.609 -15.392   3.653  1.00  0.00     0.069 A 
HETATM    8  C   UNL     1      40.139 -14.220   3.067  1.00  0.00     0.033 A 
HETATM    9  C   UNL     1      39.839 -13.102   3.858  1.00  0.00     0.015 A 
HETATM   10  C   UNL     1      39.995 -13.135   5.251  1.00  0.00    -0.020 A 
HETATM   11  C   UNL     1      40.466 -14.315   5.841  1.00  0.00     0.051 A 
HETATM   12  C   UNL     1      40.786 -15.422   5.045  1.00  0.00     0.095 A 
BRANCH  10  13
HETATM   13  C   UNL     1      39.681 -11.957   6.044  1.00  0.00     0.010 A 
HETATM   14  C   UNL     1      39.415 -11.822   7.430  1.00  0.00     0.152 A 
HETATM   15  N   UNL     1      39.175 -10.559   7.793  1.00  0.00    -0.187 NA
HETATM   16  N   UNL     1      39.295  -9.876   6.645  1.00  0.00    -0.289 N 
HETATM   17  H   UNL     1      39.162  -8.871   6.668  1.00  0.00     0.188 HD
HETATM   18  C   UNL     1      39.593 -10.665   5.570  1.00  0.00     0.123 A 
ENDBRANCH  10  13
BRANCH  12  19
HETATM   19  O   UNL     1      41.255 -16.583   5.616  1.00  0.00    -0.354 OA
HETATM   20  C   UNL     1      42.302 -16.303   6.547  1.00  0.00     0.210 C 
ENDBRANCH  12  19
ENDBRANCH   4   7
BRANCH   1  21
HETATM   21  C   UNL     1      43.324 -18.781   1.358  1.00  0.00     0.163 C 
BRANCH  21  22
HETATM   22  C   UNL     1      43.734 -19.914   2.261  1.00  0.00    -0.038 A 
HETATM   23  C   UNL     1      43.968 -21.196   1.743  1.00  0.00     0.009 A 
HETATM   24  C   UNL     1      44.411 -22.223   2.574  1.00  0.00     0.003 A 
HETATM   25  C   UNL     1      44.643 -21.974   3.926  1.00  0.00     0.037 A 
HETATM   26  C   UNL     1      44.439 -20.699   4.458  1.00  0.00     0.068 A 
HETATM   27  C   UNL     1      43.980 -19.676   3.626  1.00  0.00     0.045 A 
BRANCH  26  28
HETATM   28  O   UNL     1      44.726 -20.583   5.790  1.00  0.00    -0.356 OA
HETATM   29  C   UNL     1      43.974 -19.627   6.528  1.00  0.00     0.210 C 
ENDBRANCH  26  28
ENDBRANCH  21  22
ENDBRANCH   1  21
TORSDOF 6
ENDMDL
MODEL 8
REMARK VINA RESULT:      -7.4      3.656      5.019
REMARK  6 active torsions:
REMARK  status: ('A' for Active; 'I' for Inactive)
REMARK    1  A    between atoms: O_2  and  C_3 
REMARK    2  A    between atoms: C_7  and  C_8 
REMARK    3  A    between atoms: C_8  and  N_9 
REMARK       I    between atoms: N_9  and  C_10 
REMARK       I    between atoms: C_10  and  N_12 
REMARK    4  A    between atoms: N_12  and  C_13 
REMARK    5  A    between atoms: C_16  and  C_21 
REMARK    6  A    between atoms: C_18  and  O_19 
ROOT
HETATM    1  N   UNL     1      42.121 -13.198   2.412  1.00  0.00    -0.339 N 
HETATM    2  C   UNL     1      42.041 -14.574   2.376  1.00  0.00     0.321 C 
HETATM    3  O   UNL     1      41.033 -15.153   1.986  1.00  0.00    -0.247 OA
HETATM    4  N   UNL     1      43.201 -15.163   2.814  1.00  0.00    -0.306 N 
HETATM    5  H   UNL     1      42.786 -12.784   3.045  1.00  0.00     0.164 HD
HETATM    6  H   UNL     1      43.939 -14.561   3.150  1.00  0.00     0.171 HD
ENDROOT
BRANCH   4   7
HETATM    7  C   UNL     1      43.492 -16.542   2.883  1.00  0.00     0.069 A 
HETATM    8  C   UNL     1      43.820 -17.327   1.781  1.00  0.00     0.033 A 
HETATM    9  C   UNL     1      44.104 -18.691   1.938  1.00  0.00     0.015 A 
HETATM   10  C   UNL     1      44.075 -19.297   3.202  1.00  0.00    -0.020 A 
HETATM   11  C   UNL     1      43.748 -18.508   4.313  1.00  0.00     0.051 A 
HETATM   12  C   UNL     1      43.442 -17.152   4.148  1.00  0.00     0.095 A 
BRANCH  10  13
HETATM   13  C   UNL     1      44.368 -20.715   3.333  1.00  0.00     0.010 A 
HETATM   14  C   UNL     1      44.308 -21.761   2.379  1.00  0.00     0.152 A 
HETATM   15  N   UNL     1      44.666 -22.946   2.882  1.00  0.00    -0.187 NA
HETATM   16  N   UNL     1      44.966 -22.665   4.159  1.00  0.00    -0.289 N 
HETATM   17  H   UNL     1      45.280 -23.422   4.756  1.00  0.00     0.188 HD
HETATM   18  C   UNL     1      44.802 -21.348   4.479  1.00  0.00     0.123 A 
ENDBRANCH  10  13
BRANCH  12  19
HETATM   19  O   UNL     1      43.114 -16.370   5.233  1.00  0.00    -0.354 OA
HETATM   20  C   UNL     1      42.007 -16.930   5.942  1.00  0.00     0.210 C 
ENDBRANCH  12  19
ENDBRANCH   4   7
BRANCH   1  21
HETATM   21  C   UNL     1      40.940 -12.420   2.108  1.00  0.00     0.163 C 
BRANCH  21  22
HETATM   22  C   UNL     1      40.465 -11.604   3.282  1.00  0.00    -0.038 A 
HETATM   23  C   UNL     1      40.367 -10.208   3.193  1.00  0.00     0.009 A 
HETATM   24  C   UNL     1      39.865  -9.466   4.260  1.00  0.00     0.003 A 
HETATM   25  C   UNL     1      39.441 -10.114   5.419  1.00  0.00     0.037 A 
HETATM   26  C   UNL     1      39.508 -11.506   5.520  1.00  0.00     0.068 A 
HETATM   27  C   UNL     1      40.026 -12.245   4.455  1.00  0.00     0.045 A 
BRANCH  26  28
HETATM   28  O   UNL     1      39.037 -12.016   6.699  1.00  0.00    -0.356 OA
HETATM   29  C   UNL     1      39.525 -11.421   7.895  1.00  0.00     0.210 C 
ENDBRANCH  26  28
ENDBRANCH  21  22
ENDBRANCH   1  21
TORSDOF 6
ENDMDL
MODEL 9
REMARK VINA RESULT:      -7.3      5.866      9.769
REMARK  6 active torsions:
REMARK  status: ('A' for Active; 'I' for Inactive)
REMARK    1  A    between atoms: O_2  and  C_3 
REMARK    2  A    between atoms: C_7  and  C_8 
REMARK    3  A    between atoms: C_8  and  N_9 
REMARK       I    between atoms: N_9  and  C_10 
REMARK       I    between atoms: C_10  and  N_12 
REMARK    4  A    between atoms: N_12  and  C_13 
REMARK    5  A    between atoms: C_16  and  C_21 
REMARK    6  A    between atoms: C_18  and  O_19 
ROOT
HETATM    1  N   UNL     1      42.336 -17.744   4.063  1.00  0.00    -0.339 N 
HETATM    2  C   UNL     1      42.412 -16.864   3.005  1.00  0.00     0.321 C 
HETATM    3  O   UNL     1      43.468 -16.333   2.680  1.00  0.00    -0.247 OA
HETATM    4  N   UNL     1      41.193 -16.688   2.399  1.00  0.00    -0.306 N 
HETATM    5  H   UNL     1      41.438 -17.869   4.504  1.00  0.00     0.164 HD
HETATM    6  H   UNL     1      40.393 -17.156   2.802  1.00  0.00     0.171 HD
ENDROOT
BRANCH   4   7
HETATM    7  C   UNL     1      40.899 -15.891   1.272  1.00  0.00     0.069 A 
HETATM    8  C   UNL     1      41.396 -16.134  -0.006  1.00  0.00     0.033 A 
HETATM    9  C   UNL     1      41.047 -15.297  -1.075  1.00  0.00     0.015 A 
HETATM   10  C   UNL     1      40.188 -14.204  -0.891  1.00  0.00    -0.020 A 
HETATM   11  C   UNL     1      39.686 -13.960   0.393  1.00  0.00     0.051 A 
HETATM   12  C   UNL     1      40.055 -14.785   1.463  1.00  0.00     0.095 A 
BRANCH  10  13
HETATM   13  C   UNL     1      39.850 -13.350  -2.019  1.00  0.00     0.010 A 
HETATM   14  C   UNL     1      39.893 -11.940  -2.153  1.00  0.00     0.152 A 
HETATM   15  N   UNL     1      39.508 -11.520  -3.361  1.00  0.00    -0.187 NA
HETATM   16  N   UNL     1      39.226 -12.659  -4.012  1.00  0.00    -0.289 N 
HETATM   17  H   UNL     1      38.913 -12.596  -4.974  1.00  0.00     0.188 HD
HETATM   18  C   UNL     1      39.410 -13.779  -3.253  1.00  0.00     0.123 A 
ENDBRANCH  10  13
BRANCH  12  19
HETATM   19  O   UNL     1      39.571 -14.549   2.730  1.00  0.00    -0.354 OA
HETATM   20  C   UNL     1      39.512 -13.146   2.995  1.00  0.00     0.210 C 
ENDBRANCH  12  19
ENDBRANCH   4   7
BRANCH   1  21
HETATM   21  C   UNL     1      43.503 -17.943   4.893  1.00  0.00     0.163 C 
BRANCH  21  22
HETATM   22  C   UNL     1      43.975 -19.374   4.894  1.00  0.00    -0.038 A 
HETATM   23  C   UNL     1      44.062 -20.101   6.089  1.00  0.00     0.009 A 
HETATM   24  C   UNL     1      44.436 -21.443   6.075  1.00  0.00     0.003 A 
HETATM   25  C   UNL     1      44.710 -22.075   4.862  1.00  0.00     0.037 A 
HETATM   26  C   UNL     1      44.606 -21.377   3.658  1.00  0.00     0.068 A 
HETATM   27  C   UNL     1      44.247 -20.028   3.678  1.00  0.00     0.045 A 
BRANCH  26  28
HETATM   28  O   UNL     1      44.878 -22.120   2.542  1.00  0.00    -0.356 OA
HETATM   29  C   UNL     1      44.013 -21.941   1.426  1.00  0.00     0.210 C 
ENDBRANCH  26  28
ENDBRANCH  21  22
ENDBRANCH   1  21
TORSDOF 6
ENDMDL
MODEL 10
REMARK VINA RESULT:      -7.2      4.556      9.819
REMARK  6 active torsions:
REMARK  status: ('A' for Active; 'I' for Inactive)
REMARK    1  A    between atoms: O_2  and  C_3 
REMARK    2  A    between atoms: C_7  and  C_8 
REMARK    3  A    between atoms: C_8  and  N_9 
REMARK       I    between atoms: N_9  and  C_10 
REMARK       I    between atoms: C_10  and  N_12 
REMARK    4  A    between atoms: N_12  and  C_13 
REMARK    5  A    between atoms: C_16  and  C_21 
REMARK    6  A    between atoms: C_18  and  O_19 
ROOT
HETATM    1  N   UNL     1      41.607 -17.679   2.038  1.00  0.00    -0.339 N 
HETATM    2  C   UNL     1      41.679 -16.406   2.562  1.00  0.00     0.321 C 
HETATM    3  O   UNL     1      42.688 -15.719   2.453  1.00  0.00    -0.247 OA
HETATM    4  N   UNL     1      40.511 -16.044   3.184  1.00  0.00    -0.306 N 
HETATM    5  H   UNL     1      40.936 -18.313   2.441  1.00  0.00     0.164 HD
HETATM    6  H   UNL     1      39.772 -16.730   3.239  1.00  0.00     0.171 HD
ENDROOT
BRANCH   4   7
HETATM    7  C   UNL     1      40.211 -14.810   3.801  1.00  0.00     0.069 A 
HETATM    8  C   UNL     1      40.345 -14.567   5.166  1.00  0.00     0.033 A 
HETATM    9  C   UNL     1      40.033 -13.308   5.697  1.00  0.00     0.015 A 
HETATM   10  C   UNL     1      39.587 -12.263   4.875  1.00  0.00    -0.020 A 
HETATM   11  C   UNL     1      39.453 -12.506   3.502  1.00  0.00     0.051 A 
HETATM   12  C   UNL     1      39.744 -13.772   2.979  1.00  0.00     0.095 A 
BRANCH  10  13
HETATM   13  C   UNL     1      39.264 -10.970   5.457  1.00  0.00     0.010 A 
HETATM   14  C   UNL     1      39.362 -10.510   6.794  1.00  0.00     0.152 A 
HETATM   15  N   UNL     1      38.974  -9.240   6.937  1.00  0.00    -0.187 NA
HETATM   16  N   UNL     1      38.634  -8.875   5.691  1.00  0.00    -0.289 N 
HETATM   17  H   UNL     1      38.307  -7.927   5.541  1.00  0.00     0.188 HD
HETATM   18  C   UNL     1      38.786  -9.873   4.771  1.00  0.00     0.123 A 
ENDBRANCH  10  13
BRANCH  12  19
HETATM   19  O   UNL     1      39.610 -14.021   1.631  1.00  0.00    -0.354 OA
HETATM   20  C   UNL     1      38.233 -14.164   1.278  1.00  0.00     0.210 C 
ENDBRANCH  12  19
ENDBRANCH   4   7
BRANCH   1  21
HETATM   21  C   UNL     1      42.796 -18.267   1.461  1.00  0.00     0.163 C 
BRANCH  21  22
HETATM   22  C   UNL     1      43.431 -19.291   2.365  1.00  0.00    -0.038 A 
HETATM   23  C   UNL     1      43.771 -20.563   1.881  1.00  0.00     0.009 A 
HETATM   24  C   UNL     1      44.419 -21.482   2.704  1.00  0.00     0.003 A 
HETATM   25  C   UNL     1      44.748 -21.131   4.013  1.00  0.00     0.037 A 
HETATM   26  C   UNL     1      44.440 -19.862   4.508  1.00  0.00     0.068 A 
HETATM   27  C   UNL     1      43.777 -18.950   3.685  1.00  0.00     0.045 A 
BRANCH  26  28
HETATM   28  O   UNL     1      44.839 -19.640   5.797  1.00  0.00    -0.356 OA
HETATM   29  C   UNL     1      45.127 -18.294   6.156  1.00  0.00     0.210 C 
ENDBRANCH  26  28
ENDBRANCH  21  22
ENDBRANCH   1  21
TORSDOF 6
ENDMDL
