MODEL 1
REMARK VINA RESULT:      -8.5      0.000      0.000
REMARK  8 active torsions:
REMARK  status: ('A' for Active; 'I' for Inactive)
REMARK    1  A    between atoms: C_7  and  C_8 
REMARK    2  A    between atoms: C_8  and  O_9 
REMARK    3  A    between atoms: O_9  and  C_10 
REMARK    4  A    between atoms: C_13  and  C_14 
REMARK       I    between atoms: C_14  and  N_15 
REMARK    5  A    between atoms: N_15  and  C_16 
REMARK    6  A    between atoms: C_16  and  C_17 
REMARK    7  A    between atoms: C_18  and  C_19 
REMARK    8  A    between atoms: C_19  and  N_20 
ROOT
HETATM    1  C   UNL     1      41.571 -12.086   5.949  1.00  0.00     0.251 C 
HETATM    2  N   UNL     1      42.161 -12.007   7.195  1.00  0.00    -0.353 N 
HETATM    3  O   UNL     1      40.988 -11.145   5.424  1.00  0.00    -0.268 OA
HETATM    4  H   UNL     1      42.776 -12.750   7.496  1.00  0.00     0.163 HD
ENDROOT
BRANCH   1   5
HETATM    5  C   UNL     1      41.664 -13.391   5.247  1.00  0.00     0.032 A 
HETATM    6  C   UNL     1      42.626 -13.627   4.257  1.00  0.00     0.020 A 
HETATM    7  C   UNL     1      42.734 -14.897   3.685  1.00  0.00     0.038 A 
HETATM    8  C   UNL     1      41.906 -15.940   4.105  1.00  0.00     0.069 A 
HETATM    9  C   UNL     1      40.928 -15.699   5.070  1.00  0.00     0.038 A 
HETATM   10  C   UNL     1      40.817 -14.431   5.649  1.00  0.00     0.020 A 
BRANCH   8  11
HETATM   11  O   UNL     1      42.145 -17.140   3.499  1.00  0.00    -0.347 OA
BRANCH  11  12
HETATM   12  C   UNL     1      43.496 -17.406   3.113  1.00  0.00     0.219 C 
BRANCH  12  13
HETATM   13  C   UNL     1      44.016 -18.578   3.862  1.00  0.00     0.024 A 
HETATM   14  C   UNL     1      44.151 -19.915   3.394  1.00  0.00     0.069 A 
HETATM   15  C   UNL     1      43.804 -20.458   2.059  1.00  0.00     0.073 C 
HETATM   16  N   UNL     1      44.657 -20.716   4.337  1.00  0.00    -0.133 NA
HETATM   17  O   UNL     1      44.852 -19.916   5.445  1.00  0.00    -0.217 OA
HETATM   18  C   UNL     1      44.467 -18.644   5.163  1.00  0.00     0.085 A 
HETATM   19  C   UNL     1      44.601 -17.662   6.254  1.00  0.00     0.079 C 
ENDBRANCH  12  13
ENDBRANCH  11  12
ENDBRANCH   8  11
ENDBRANCH   1   5
BRANCH   2  20
HETATM   20  C   UNL     1      42.019 -10.822   8.002  1.00  0.00     0.162 C 
BRANCH  20  21
HETATM   21  C   UNL     1      42.995 -10.803   9.156  1.00  0.00    -0.033 A 
HETATM   22  C   UNL     1      42.841 -10.026  10.327  1.00  0.00    -0.025 A 
HETATM   23  C   UNL     1      43.831 -10.105  11.331  1.00  0.00     0.009 A 
HETATM   24  C   UNL     1      44.946 -10.930  11.184  1.00  0.00     0.001 A 
HETATM   25  C   UNL     1      45.094 -11.695  10.035  1.00  0.00     0.001 A 
HETATM   26  C   UNL     1      44.127 -11.634   9.035  1.00  0.00     0.009 A 
BRANCH  22  27
HETATM   27  C   UNL     1      41.673  -9.104  10.570  1.00  0.00     0.274 C 
BRANCH  27  28
HETATM   28  N   UNL     1      40.554  -9.736  11.364  1.00  0.00    -0.067 N 
HETATM   29  H   UNL     1      39.675  -9.398  10.949  1.00  0.00     0.280 HD
HETATM   30  C   UNL     1      40.569  -9.335  12.824  1.00  0.00     0.235 C 
HETATM   31  C   UNL     1      41.103 -10.561  13.530  1.00  0.00     0.029 C 
HETATM   32  C   UNL     1      40.434 -11.690  12.775  1.00  0.00     0.029 C 
HETATM   33  C   UNL     1      40.519 -11.255  11.322  1.00  0.00     0.235 C 
ENDBRANCH  27  28
ENDBRANCH  22  27
ENDBRANCH  20  21
ENDBRANCH   2  20
TORSDOF 8
ENDMDL
MODEL 2
REMARK VINA RESULT:      -8.3      5.545      9.043
REMARK  8 active torsions:
REMARK  status: ('A' for Active; 'I' for Inactive)
REMARK    1  A    between atoms: C_7  and  C_8 
REMARK    2  A    between atoms: C_8  and  O_9 
REMARK    3  A    between atoms: O_9  and  C_10 
REMARK    4  A    between atoms: C_13  and  C_14 
REMARK       I    between atoms: C_14  and  N_15 
REMARK    5  A    between atoms: N_15  and  C_16 
REMARK    6  A    between atoms: C_16  and  C_17 
REMARK    7  A    between atoms: C_18  and  C_19 
REMARK    8  A    between atoms: C_19  and  N_20 
ROOT
HETATM    1  C   UNL     1      40.517 -14.611   2.560  1.00  0.00     0.251 C 
HETATM    2  N   UNL     1      41.895 -14.545   2.514  1.00  0.00    -0.353 N 
HETATM    3  O   UNL     1      39.903 -15.156   3.470  1.00  0.00    -0.268 OA
HETATM    4  H   UNL     1      42.337 -13.935   1.842  1.00  0.00     0.163 HD
ENDROOT
BRANCH   1   5
HETATM    5  C   UNL     1      39.780 -13.986   1.432  1.00  0.00     0.032 A 
HETATM    6  C   UNL     1      40.364 -12.999   0.630  1.00  0.00     0.020 A 
HETATM    7  C   UNL     1      39.666 -12.501  -0.474  1.00  0.00     0.038 A 
HETATM    8  C   UNL     1      38.400 -12.993  -0.796  1.00  0.00     0.069 A 
HETATM    9  C   UNL     1      37.805 -13.956   0.019  1.00  0.00     0.038 A 
HETATM   10  C   UNL     1      38.500 -14.460   1.124  1.00  0.00     0.020 A 
BRANCH   8  11
HETATM   11  O   UNL     1      37.847 -12.456  -1.923  1.00  0.00    -0.347 OA
BRANCH  11  12
HETATM   12  C   UNL     1      38.645 -12.491  -3.108  1.00  0.00     0.219 C 
BRANCH  12  13
HETATM   13  C   UNL     1      38.824 -13.895  -3.559  1.00  0.00     0.024 A 
HETATM   14  C   UNL     1      37.828 -14.776  -4.065  1.00  0.00     0.069 A 
HETATM   15  C   UNL     1      36.383 -14.511  -4.260  1.00  0.00     0.073 C 
HETATM   16  N   UNL     1      38.342 -15.970  -4.377  1.00  0.00    -0.133 NA
HETATM   17  O   UNL     1      39.686 -15.893  -4.068  1.00  0.00    -0.217 OA
HETATM   18  C   UNL     1      39.971 -14.658  -3.577  1.00  0.00     0.085 A 
HETATM   19  C   UNL     1      41.371 -14.417  -3.186  1.00  0.00     0.079 C 
ENDBRANCH  12  13
ENDBRANCH  11  12
ENDBRANCH   8  11
ENDBRANCH   1   5
BRANCH   2  20
HETATM   20  C   UNL     1      42.697 -15.226   3.499  1.00  0.00     0.162 C 
BRANCH  20  21
HETATM   21  C   UNL     1      43.060 -16.628   3.064  1.00  0.00    -0.033 A 
HETATM   22  C   UNL     1      42.672 -17.806   3.741  1.00  0.00    -0.025 A 
HETATM   23  C   UNL     1      43.079 -19.054   3.222  1.00  0.00     0.009 A 
HETATM   24  C   UNL     1      43.851 -19.139   2.063  1.00  0.00     0.001 A 
HETATM   25  C   UNL     1      44.228 -17.981   1.397  1.00  0.00     0.001 A 
HETATM   26  C   UNL     1      43.834 -16.740   1.891  1.00  0.00     0.009 A 
BRANCH  22  27
HETATM   27  C   UNL     1      41.843 -17.811   5.001  1.00  0.00     0.274 C 
BRANCH  27  28
HETATM   28  N   UNL     1      42.657 -17.977   6.264  1.00  0.00    -0.067 N 
HETATM   29  H   UNL     1      42.115 -18.598   6.879  1.00  0.00     0.280 HD
HETATM   30  C   UNL     1      42.881 -16.670   6.995  1.00  0.00     0.235 C 
HETATM   31  C   UNL     1      44.324 -16.331   6.695  1.00  0.00     0.029 C 
HETATM   32  C   UNL     1      44.999 -17.685   6.766  1.00  0.00     0.029 C 
HETATM   33  C   UNL     1      44.023 -18.614   6.066  1.00  0.00     0.235 C 
ENDBRANCH  27  28
ENDBRANCH  22  27
ENDBRANCH  20  21
ENDBRANCH   2  20
TORSDOF 8
ENDMDL
MODEL 3
REMARK VINA RESULT:      -8.2      5.364      8.850
REMARK  8 active torsions:
REMARK  status: ('A' for Active; 'I' for Inactive)
REMARK    1  A    between atoms: C_7  and  C_8 
REMARK    2  A    between atoms: C_8  and  O_9 
REMARK    3  A    between atoms: O_9  and  C_10 
REMARK    4  A    between atoms: C_13  and  C_14 
REMARK       I    between atoms: C_14  and  N_15 
REMARK    5  A    between atoms: N_15  and  C_16 
REMARK    6  A    between atoms: C_16  and  C_17 
REMARK    7  A    between atoms: C_18  and  C_19 
REMARK    8  A    between atoms: C_19  and  N_20 
ROOT
HETATM    1  C   UNL     1      40.442 -14.423   4.326  1.00  0.00     0.251 C 
HETATM    2  N   UNL     1      41.728 -14.905   4.461  1.00  0.00    -0.353 N 
HETATM    3  O   UNL     1      39.680 -14.271   5.273  1.00  0.00    -0.268 OA
HETATM    4  H   UNL     1      42.363 -14.840   3.679  1.00  0.00     0.163 HD
ENDROOT
BRANCH   1   5
HETATM    5  C   UNL     1      39.995 -14.090   2.948  1.00  0.00     0.032 A 
HETATM    6  C   UNL     1      39.057 -14.875   2.269  1.00  0.00     0.020 A 
HETATM    7  C   UNL     1      38.600 -14.476   1.011  1.00  0.00     0.038 A 
HETATM    8  C   UNL     1      39.055 -13.289   0.432  1.00  0.00     0.069 A 
HETATM    9  C   UNL     1      40.011 -12.520   1.095  1.00  0.00     0.038 A 
HETATM   10  C   UNL     1      40.470 -12.914   2.356  1.00  0.00     0.020 A 
BRANCH   8  11
HETATM   11  O   UNL     1      38.496 -12.992  -0.777  1.00  0.00    -0.347 OA
BRANCH  11  12
HETATM   12  C   UNL     1      39.374 -12.473  -1.779  1.00  0.00     0.219 C 
BRANCH  12  13
HETATM   13  C   UNL     1      39.959 -13.588  -2.568  1.00  0.00     0.024 A 
HETATM   14  C   UNL     1      41.338 -13.866  -2.784  1.00  0.00     0.069 A 
HETATM   15  C   UNL     1      42.514 -13.116  -2.284  1.00  0.00     0.073 C 
HETATM   16  N   UNL     1      41.505 -14.953  -3.545  1.00  0.00    -0.133 NA
HETATM   17  O   UNL     1      40.234 -15.398  -3.849  1.00  0.00    -0.217 OA
HETATM   18  C   UNL     1      39.314 -14.583  -3.270  1.00  0.00     0.085 A 
HETATM   19  C   UNL     1      37.899 -14.918  -3.510  1.00  0.00     0.079 C 
ENDBRANCH  12  13
ENDBRANCH  11  12
ENDBRANCH   8  11
ENDBRANCH   1   5
BRANCH   2  20
HETATM   20  C   UNL     1      42.209 -15.368   5.739  1.00  0.00     0.162 C 
BRANCH  20  21
HETATM   21  C   UNL     1      43.094 -16.586   5.604  1.00  0.00    -0.033 A 
HETATM   22  C   UNL     1      42.908 -17.614   4.652  1.00  0.00    -0.025 A 
HETATM   23  C   UNL     1      43.815 -18.697   4.635  1.00  0.00     0.009 A 
HETATM   24  C   UNL     1      44.879 -18.763   5.535  1.00  0.00     0.001 A 
HETATM   25  C   UNL     1      45.061 -17.751   6.466  1.00  0.00     0.001 A 
HETATM   26  C   UNL     1      44.181 -16.673   6.497  1.00  0.00     0.009 A 
BRANCH  22  27
HETATM   27  C   UNL     1      41.785 -17.628   3.646  1.00  0.00     0.274 C 
BRANCH  27  28
HETATM   28  N   UNL     1      42.253 -17.735   2.213  1.00  0.00    -0.067 N 
HETATM   29  H   UNL     1      42.710 -18.652   2.124  1.00  0.00     0.280 HD
HETATM   30  C   UNL     1      43.264 -16.669   1.843  1.00  0.00     0.235 C 
HETATM   31  C   UNL     1      42.471 -15.698   0.997  1.00  0.00     0.029 C 
HETATM   32  C   UNL     1      41.594 -16.621   0.176  1.00  0.00     0.029 C 
HETATM   33  C   UNL     1      41.147 -17.677   1.172  1.00  0.00     0.235 C 
ENDBRANCH  27  28
ENDBRANCH  22  27
ENDBRANCH  20  21
ENDBRANCH   2  20
TORSDOF 8
ENDMDL
MODEL 4
REMARK VINA RESULT:      -8.2      6.273      9.566
REMARK  8 active torsions:
REMARK  status: ('A' for Active; 'I' for Inactive)
REMARK    1  A    between atoms: C_7  and  C_8 
REMARK    2  A    between atoms: C_8  and  O_9 
REMARK    3  A    between atoms: O_9  and  C_10 
REMARK    4  A    between atoms: C_13  and  C_14 
REMARK       I    between atoms: C_14  and  N_15 
REMARK    5  A    between atoms: N_15  and  C_16 
REMARK    6  A    between atoms: C_16  and  C_17 
REMARK    7  A    between atoms: C_18  and  C_19 
REMARK    8  A    between atoms: C_19  and  N_20 
ROOT
HETATM    1  C   UNL     1      41.715 -14.998   0.223  1.00  0.00     0.251 C 
HETATM    2  N   UNL     1      41.677 -15.332  -1.116  1.00  0.00    -0.353 N 
HETATM    3  O   UNL     1      41.427 -13.884   0.644  1.00  0.00    -0.268 OA
HETATM    4  H   UNL     1      41.749 -16.303  -1.384  1.00  0.00     0.163 HD
ENDROOT
BRANCH   1   5
HETATM    5  C   UNL     1      42.135 -16.067   1.166  1.00  0.00     0.032 A 
HETATM    6  C   UNL     1      41.761 -17.402   0.979  1.00  0.00     0.020 A 
HETATM    7  C   UNL     1      42.250 -18.386   1.841  1.00  0.00     0.038 A 
HETATM    8  C   UNL     1      43.127 -18.054   2.876  1.00  0.00     0.069 A 
HETATM    9  C   UNL     1      43.479 -16.720   3.081  1.00  0.00     0.038 A 
HETATM   10  C   UNL     1      42.993 -15.731   2.219  1.00  0.00     0.020 A 
BRANCH   8  11
HETATM   11  O   UNL     1      43.567 -19.114   3.615  1.00  0.00    -0.347 OA
BRANCH  11  12
HETATM   12  C   UNL     1      44.453 -18.817   4.697  1.00  0.00     0.219 C 
BRANCH  12  13
HETATM   13  C   UNL     1      44.182 -19.728   5.839  1.00  0.00     0.024 A 
HETATM   14  C   UNL     1      43.712 -19.377   7.135  1.00  0.00     0.069 A 
HETATM   15  C   UNL     1      43.387 -18.029   7.659  1.00  0.00     0.073 C 
HETATM   16  N   UNL     1      43.579 -20.454   7.917  1.00  0.00    -0.133 NA
HETATM   17  O   UNL     1      43.970 -21.529   7.145  1.00  0.00    -0.217 OA
HETATM   18  C   UNL     1      44.333 -21.096   5.909  1.00  0.00     0.085 A 
HETATM   19  C   UNL     1      44.791 -22.129   4.962  1.00  0.00     0.079 C 
ENDBRANCH  12  13
ENDBRANCH  11  12
ENDBRANCH   8  11
ENDBRANCH   1   5
BRANCH   2  20
HETATM   20  C   UNL     1      41.398 -14.332  -2.115  1.00  0.00     0.162 C 
BRANCH  20  21
HETATM   21  C   UNL     1      40.060 -14.555  -2.783  1.00  0.00    -0.033 A 
HETATM   22  C   UNL     1      38.967 -13.661  -2.713  1.00  0.00    -0.025 A 
HETATM   23  C   UNL     1      37.773 -13.994  -3.388  1.00  0.00     0.009 A 
HETATM   24  C   UNL     1      37.659 -15.178  -4.116  1.00  0.00     0.001 A 
HETATM   25  C   UNL     1      38.734 -16.052  -4.187  1.00  0.00     0.001 A 
HETATM   26  C   UNL     1      39.923 -15.742  -3.531  1.00  0.00     0.009 A 
BRANCH  22  27
HETATM   27  C   UNL     1      38.998 -12.362  -1.947  1.00  0.00     0.274 C 
BRANCH  27  28
HETATM   28  N   UNL     1      39.026 -12.540  -0.447  1.00  0.00    -0.067 N 
HETATM   29  H   UNL     1      39.939 -12.956  -0.220  1.00  0.00     0.280 HD
HETATM   30  C   UNL     1      37.945 -13.475   0.054  1.00  0.00     0.235 C 
HETATM   31  C   UNL     1      36.925 -12.548   0.675  1.00  0.00     0.029 C 
HETATM   32  C   UNL     1      37.795 -11.513   1.357  1.00  0.00     0.029 C 
HETATM   33  C   UNL     1      38.904 -11.252   0.352  1.00  0.00     0.235 C 
ENDBRANCH  27  28
ENDBRANCH  22  27
ENDBRANCH  20  21
ENDBRANCH   2  20
TORSDOF 8
ENDMDL
MODEL 5
REMARK VINA RESULT:      -8.2      5.266      9.051
REMARK  8 active torsions:
REMARK  status: ('A' for Active; 'I' for Inactive)
REMARK    1  A    between atoms: C_7  and  C_8 
REMARK    2  A    between atoms: C_8  and  O_9 
REMARK    3  A    between atoms: O_9  and  C_10 
REMARK    4  A    between atoms: C_13  and  C_14 
REMARK       I    between atoms: C_14  and  N_15 
REMARK    5  A    between atoms: N_15  and  C_16 
REMARK    6  A    between atoms: C_16  and  C_17 
REMARK    7  A    between atoms: C_18  and  C_19 
REMARK    8  A    between atoms: C_19  and  N_20 
ROOT
HETATM    1  C   UNL     1      41.324 -17.187   2.375  1.00  0.00     0.251 C 
HETATM    2  N   UNL     1      40.882 -16.983   3.666  1.00  0.00    -0.353 N 
HETATM    3  O   UNL     1      42.007 -18.149   2.044  1.00  0.00    -0.268 OA
HETATM    4  H   UNL     1      40.181 -16.279   3.842  1.00  0.00     0.163 HD
ENDROOT
BRANCH   1   5
HETATM    5  C   UNL     1      40.937 -16.166   1.367  1.00  0.00     0.032 A 
HETATM    6  C   UNL     1      41.542 -16.109   0.107  1.00  0.00     0.020 A 
HETATM    7  C   UNL     1      41.086 -15.189  -0.841  1.00  0.00     0.038 A 
HETATM    8  C   UNL     1      40.017 -14.339  -0.550  1.00  0.00     0.069 A 
HETATM    9  C   UNL     1      39.432 -14.374   0.716  1.00  0.00     0.038 A 
HETATM   10  C   UNL     1      39.883 -15.295   1.667  1.00  0.00     0.020 A 
BRANCH   8  11
HETATM   11  O   UNL     1      39.641 -13.521  -1.576  1.00  0.00    -0.347 OA
BRANCH  11  12
HETATM   12  C   UNL     1      39.730 -12.114  -1.341  1.00  0.00     0.219 C 
BRANCH  12  13
HETATM   13  C   UNL     1      41.129 -11.743  -1.007  1.00  0.00     0.024 A 
HETATM   14  C   UNL     1      42.253 -11.724  -1.879  1.00  0.00     0.069 A 
HETATM   15  C   UNL     1      42.301 -12.070  -3.319  1.00  0.00     0.073 C 
HETATM   16  N   UNL     1      43.363 -11.337  -1.241  1.00  0.00    -0.133 NA
HETATM   17  O   UNL     1      42.984 -11.107   0.066  1.00  0.00    -0.217 OA
HETATM   18  C   UNL     1      41.655 -11.352   0.206  1.00  0.00     0.085 A 
HETATM   19  C   UNL     1      41.093 -11.164   1.556  1.00  0.00     0.079 C 
ENDBRANCH  12  13
ENDBRANCH  11  12
ENDBRANCH   8  11
ENDBRANCH   1   5
BRANCH   2  20
HETATM   20  C   UNL     1      41.306 -17.853   4.734  1.00  0.00     0.162 C 
BRANCH  20  21
HETATM   21  C   UNL     1      42.493 -17.293   5.484  1.00  0.00    -0.033 A 
HETATM   22  C   UNL     1      43.508 -18.074   6.083  1.00  0.00    -0.025 A 
HETATM   23  C   UNL     1      44.564 -17.418   6.753  1.00  0.00     0.009 A 
HETATM   24  C   UNL     1      44.619 -16.027   6.829  1.00  0.00     0.001 A 
HETATM   25  C   UNL     1      43.624 -15.262   6.237  1.00  0.00     0.001 A 
HETATM   26  C   UNL     1      42.575 -15.888   5.569  1.00  0.00     0.009 A 
BRANCH  22  27
HETATM   27  C   UNL     1      43.528 -19.582   6.055  1.00  0.00     0.274 C 
BRANCH  27  28
HETATM   28  N   UNL     1      44.655 -20.160   5.231  1.00  0.00    -0.067 N 
HETATM   29  H   UNL     1      45.529 -19.815   5.650  1.00  0.00     0.280 HD
HETATM   30  C   UNL     1      44.618 -19.709   3.785  1.00  0.00     0.235 C 
HETATM   31  C   UNL     1      44.107 -20.923   3.042  1.00  0.00     0.029 C 
HETATM   32  C   UNL     1      44.808 -22.061   3.753  1.00  0.00     0.029 C 
HETATM   33  C   UNL     1      44.726 -21.678   5.220  1.00  0.00     0.235 C 
ENDBRANCH  27  28
ENDBRANCH  22  27
ENDBRANCH  20  21
ENDBRANCH   2  20
TORSDOF 8
ENDMDL
MODEL 6
REMARK VINA RESULT:      -8.1      1.041      1.983
REMARK  8 active torsions:
REMARK  status: ('A' for Active; 'I' for Inactive)
REMARK    1  A    between atoms: C_7  and  C_8 
REMARK    2  A    between atoms: C_8  and  O_9 
REMARK    3  A    between atoms: O_9  and  C_10 
REMARK    4  A    between atoms: C_13  and  C_14 
REMARK       I    between atoms: C_14  and  N_15 
REMARK    5  A    between atoms: N_15  and  C_16 
REMARK    6  A    between atoms: C_16  and  C_17 
REMARK    7  A    between atoms: C_18  and  C_19 
REMARK    8  A    between atoms: C_19  and  N_20 
ROOT
HETATM    1  C   UNL     1      41.102 -11.918   6.406  1.00  0.00     0.251 C 
HETATM    2  N   UNL     1      42.070 -11.579   7.330  1.00  0.00    -0.353 N 
HETATM    3  O   UNL     1      40.103 -11.237   6.202  1.00  0.00    -0.268 OA
HETATM    4  H   UNL     1      42.949 -12.076   7.327  1.00  0.00     0.163 HD
ENDROOT
BRANCH   1   5
HETATM    5  C   UNL     1      41.314 -13.177   5.646  1.00  0.00     0.032 A 
HETATM    6  C   UNL     1      42.490 -13.411   4.924  1.00  0.00     0.020 A 
HETATM    7  C   UNL     1      42.684 -14.644   4.297  1.00  0.00     0.038 A 
HETATM    8  C   UNL     1      41.725 -15.654   4.400  1.00  0.00     0.069 A 
HETATM    9  C   UNL     1      40.540 -15.412   5.094  1.00  0.00     0.038 A 
HETATM   10  C   UNL     1      40.341 -14.180   5.726  1.00  0.00     0.020 A 
BRANCH   8  11
HETATM   11  O   UNL     1      42.057 -16.824   3.780  1.00  0.00    -0.347 OA
BRANCH  11  12
HETATM   12  C   UNL     1      43.435 -17.005   3.447  1.00  0.00     0.219 C 
BRANCH  12  13
HETATM   13  C   UNL     1      43.950 -18.249   4.075  1.00  0.00     0.024 A 
HETATM   14  C   UNL     1      44.419 -18.417   5.407  1.00  0.00     0.069 A 
HETATM   15  C   UNL     1      44.513 -17.400   6.482  1.00  0.00     0.073 C 
HETATM   16  N   UNL     1      44.808 -19.676   5.635  1.00  0.00    -0.133 NA
HETATM   17  O   UNL     1      44.609 -20.351   4.448  1.00  0.00    -0.217 OA
HETATM   18  C   UNL     1      44.101 -19.500   3.518  1.00  0.00     0.085 A 
HETATM   19  C   UNL     1      43.842 -20.069   2.183  1.00  0.00     0.079 C 
ENDBRANCH  12  13
ENDBRANCH  11  12
ENDBRANCH   8  11
ENDBRANCH   1   5
BRANCH   2  20
HETATM   20  C   UNL     1      41.893 -10.443   8.197  1.00  0.00     0.162 C 
BRANCH  20  21
HETATM   21  C   UNL     1      42.792 -10.510   9.410  1.00  0.00    -0.033 A 
HETATM   22  C   UNL     1      42.562  -9.820  10.622  1.00  0.00    -0.025 A 
HETATM   23  C   UNL     1      43.485  -9.975  11.679  1.00  0.00     0.009 A 
HETATM   24  C   UNL     1      44.608 -10.790  11.544  1.00  0.00     0.001 A 
HETATM   25  C   UNL     1      44.832 -11.469  10.355  1.00  0.00     0.001 A 
HETATM   26  C   UNL     1      43.932 -11.333   9.301  1.00  0.00     0.009 A 
BRANCH  22  27
HETATM   27  C   UNL     1      41.378  -8.915  10.856  1.00  0.00     0.274 C 
BRANCH  27  28
HETATM   28  N   UNL     1      40.204  -9.606  11.511  1.00  0.00    -0.067 N 
HETATM   29  H   UNL     1      40.546 -10.522  11.830  1.00  0.00     0.280 HD
HETATM   30  C   UNL     1      39.052  -9.840  10.556  1.00  0.00     0.235 C 
HETATM   31  C   UNL     1      38.033  -8.797  10.957  1.00  0.00     0.029 C 
HETATM   32  C   UNL     1      38.141  -8.798  12.467  1.00  0.00     0.029 C 
HETATM   33  C   UNL     1      39.635  -8.888  12.724  1.00  0.00     0.235 C 
ENDBRANCH  27  28
ENDBRANCH  22  27
ENDBRANCH  20  21
ENDBRANCH   2  20
TORSDOF 8
ENDMDL
MODEL 7
REMARK VINA RESULT:      -8.1      2.681      4.692
REMARK  8 active torsions:
REMARK  status: ('A' for Active; 'I' for Inactive)
REMARK    1  A    between atoms: C_7  and  C_8 
REMARK    2  A    between atoms: C_8  and  O_9 
REMARK    3  A    between atoms: O_9  and  C_10 
REMARK    4  A    between atoms: C_13  and  C_14 
REMARK       I    between atoms: C_14  and  N_15 
REMARK    5  A    between atoms: N_15  and  C_16 
REMARK    6  A    between atoms: C_16  and  C_17 
REMARK    7  A    between atoms: C_18  and  C_19 
REMARK    8  A    between atoms: C_19  and  N_20 
ROOT
HETATM    1  C   UNL     1      45.036 -13.351   7.725  1.00  0.00     0.251 C 
HETATM    2  N   UNL     1      44.209 -12.927   8.745  1.00  0.00    -0.353 N 
HETATM    3  O   UNL     1      46.168 -12.914   7.555  1.00  0.00    -0.268 OA
HETATM    4  H   UNL     1      43.365 -13.445   8.942  1.00  0.00     0.163 HD
ENDROOT
BRANCH   1   5
HETATM    5  C   UNL     1      44.490 -14.384   6.807  1.00  0.00     0.032 A 
HETATM    6  C   UNL     1      44.211 -15.684   7.244  1.00  0.00     0.020 A 
HETATM    7  C   UNL     1      43.617 -16.597   6.370  1.00  0.00     0.038 A 
HETATM    8  C   UNL     1      43.278 -16.220   5.069  1.00  0.00     0.069 A 
HETATM    9  C   UNL     1      43.582 -14.934   4.622  1.00  0.00     0.038 A 
HETATM   10  C   UNL     1      44.174 -14.014   5.494  1.00  0.00     0.020 A 
BRANCH   8  11
HETATM   11  O   UNL     1      42.663 -17.191   4.334  1.00  0.00    -0.347 OA
BRANCH  11  12
HETATM   12  C   UNL     1      41.234 -17.211   4.365  1.00  0.00     0.219 C 
BRANCH  12  13
HETATM   13  C   UNL     1      40.691 -16.307   3.318  1.00  0.00     0.024 A 
HETATM   14  C   UNL     1      40.100 -15.026   3.500  1.00  0.00     0.069 A 
HETATM   15  C   UNL     1      39.880 -14.290   4.768  1.00  0.00     0.073 C 
HETATM   16  N   UNL     1      39.721 -14.490   2.335  1.00  0.00    -0.133 NA
HETATM   17  O   UNL     1      40.049 -15.421   1.369  1.00  0.00    -0.217 OA
HETATM   18  C   UNL     1      40.624 -16.504   1.955  1.00  0.00     0.085 A 
HETATM   19  C   UNL     1      41.023 -17.600   1.055  1.00  0.00     0.079 C 
ENDBRANCH  12  13
ENDBRANCH  11  12
ENDBRANCH   8  11
ENDBRANCH   1   5
BRANCH   2  20
HETATM   20  C   UNL     1      44.604 -11.845   9.610  1.00  0.00     0.162 C 
BRANCH  20  21
HETATM   21  C   UNL     1      43.485 -11.419  10.533  1.00  0.00    -0.033 A 
HETATM   22  C   UNL     1      42.337 -10.701  10.127  1.00  0.00    -0.025 A 
HETATM   23  C   UNL     1      41.365 -10.369  11.095  1.00  0.00     0.009 A 
HETATM   24  C   UNL     1      41.521 -10.735  12.432  1.00  0.00     0.001 A 
HETATM   25  C   UNL     1      42.647 -11.443  12.828  1.00  0.00     0.001 A 
HETATM   26  C   UNL     1      43.616 -11.783  11.888  1.00  0.00     0.009 A 
BRANCH  22  27
HETATM   27  C   UNL     1      42.086 -10.261   8.706  1.00  0.00     0.274 C 
BRANCH  27  28
HETATM   28  N   UNL     1      41.165 -11.179   7.937  1.00  0.00    -0.067 N 
HETATM   29  H   UNL     1      41.061 -12.030   8.506  1.00  0.00     0.280 HD
HETATM   30  C   UNL     1      41.727 -11.581   6.589  1.00  0.00     0.235 C 
HETATM   31  C   UNL     1      40.926 -10.759   5.605  1.00  0.00     0.029 C 
HETATM   32  C   UNL     1      39.534 -10.801   6.200  1.00  0.00     0.029 C 
HETATM   33  C   UNL     1      39.771 -10.627   7.690  1.00  0.00     0.235 C 
ENDBRANCH  27  28
ENDBRANCH  22  27
ENDBRANCH  20  21
ENDBRANCH   2  20
TORSDOF 8
ENDMDL
MODEL 8
REMARK VINA RESULT:      -8.1      2.075      3.368
REMARK  8 active torsions:
REMARK  status: ('A' for Active; 'I' for Inactive)
REMARK    1  A    between atoms: C_7  and  C_8 
REMARK    2  A    between atoms: C_8  and  O_9 
REMARK    3  A    between atoms: O_9  and  C_10 
REMARK    4  A    between atoms: C_13  and  C_14 
REMARK       I    between atoms: C_14  and  N_15 
REMARK    5  A    between atoms: N_15  and  C_16 
REMARK    6  A    between atoms: C_16  and  C_17 
REMARK    7  A    between atoms: C_18  and  C_19 
REMARK    8  A    between atoms: C_19  and  N_20 
ROOT
HETATM    1  C   UNL     1      44.542 -12.964   8.126  1.00  0.00     0.251 C 
HETATM    2  N   UNL     1      43.649 -12.026   8.604  1.00  0.00    -0.353 N 
HETATM    3  O   UNL     1      45.709 -13.025   8.492  1.00  0.00    -0.268 OA
HETATM    4  H   UNL     1      42.666 -12.135   8.403  1.00  0.00     0.163 HD
ENDROOT
BRANCH   1   5
HETATM    5  C   UNL     1      44.026 -13.924   7.116  1.00  0.00     0.032 A 
HETATM    6  C   UNL     1      43.299 -13.497   5.999  1.00  0.00     0.020 A 
HETATM    7  C   UNL     1      42.908 -14.424   5.030  1.00  0.00     0.038 A 
HETATM    8  C   UNL     1      43.254 -15.772   5.154  1.00  0.00     0.069 A 
HETATM    9  C   UNL     1      43.953 -16.204   6.281  1.00  0.00     0.038 A 
HETATM   10  C   UNL     1      44.349 -15.279   7.253  1.00  0.00     0.020 A 
BRANCH   8  11
HETATM   11  O   UNL     1      42.851 -16.564   4.118  1.00  0.00    -0.347 OA
BRANCH  11  12
HETATM   12  C   UNL     1      42.435 -17.890   4.449  1.00  0.00     0.219 C 
BRANCH  12  13
HETATM   13  C   UNL     1      43.443 -18.872   3.973  1.00  0.00     0.024 A 
HETATM   14  C   UNL     1      44.169 -19.815   4.753  1.00  0.00     0.069 A 
HETATM   15  C   UNL     1      44.101 -20.042   6.216  1.00  0.00     0.073 C 
HETATM   16  N   UNL     1      44.995 -20.545   3.995  1.00  0.00    -0.133 NA
HETATM   17  O   UNL     1      44.830 -20.081   2.705  1.00  0.00    -0.217 OA
HETATM   18  C   UNL     1      43.909 -19.083   2.694  1.00  0.00     0.085 A 
HETATM   19  C   UNL     1      43.626 -18.470   1.383  1.00  0.00     0.079 C 
ENDBRANCH  12  13
ENDBRANCH  11  12
ENDBRANCH   8  11
ENDBRANCH   1   5
BRANCH   2  20
HETATM   20  C   UNL     1      44.088 -10.980   9.493  1.00  0.00     0.162 C 
BRANCH  20  21
HETATM   21  C   UNL     1      43.129 -10.776  10.644  1.00  0.00    -0.033 A 
HETATM   22  C   UNL     1      41.981  -9.952  10.598  1.00  0.00    -0.025 A 
HETATM   23  C   UNL     1      41.169  -9.853  11.748  1.00  0.00     0.009 A 
HETATM   24  C   UNL     1      41.480 -10.550  12.916  1.00  0.00     0.001 A 
HETATM   25  C   UNL     1      42.605 -11.361  12.958  1.00  0.00     0.001 A 
HETATM   26  C   UNL     1      43.418 -11.475  11.833  1.00  0.00     0.009 A 
BRANCH  22  27
HETATM   27  C   UNL     1      41.570  -9.159   9.382  1.00  0.00     0.274 C 
BRANCH  27  28
HETATM   28  N   UNL     1      40.241  -9.583   8.801  1.00  0.00    -0.067 N 
HETATM   29  H   UNL     1      39.523  -9.299   9.480  1.00  0.00     0.280 HD
HETATM   30  C   UNL     1      40.136 -11.081   8.603  1.00  0.00     0.235 C 
HETATM   31  C   UNL     1      40.291 -11.260   7.110  1.00  0.00     0.029 C 
HETATM   32  C   UNL     1      39.510 -10.087   6.557  1.00  0.00     0.029 C 
HETATM   33  C   UNL     1      39.889  -8.935   7.471  1.00  0.00     0.235 C 
ENDBRANCH  27  28
ENDBRANCH  22  27
ENDBRANCH  20  21
ENDBRANCH   2  20
TORSDOF 8
ENDMDL
MODEL 9
REMARK VINA RESULT:      -8.1      1.843      3.131
REMARK  8 active torsions:
REMARK  status: ('A' for Active; 'I' for Inactive)
REMARK    1  A    between atoms: C_7  and  C_8 
REMARK    2  A    between atoms: C_8  and  O_9 
REMARK    3  A    between atoms: O_9  and  C_10 
REMARK    4  A    between atoms: C_13  and  C_14 
REMARK       I    between atoms: C_14  and  N_15 
REMARK    5  A    between atoms: N_15  and  C_16 
REMARK    6  A    between atoms: C_16  and  C_17 
REMARK    7  A    between atoms: C_18  and  C_19 
REMARK    8  A    between atoms: C_19  and  N_20 
ROOT
HETATM    1  C   UNL     1      39.677 -12.572   6.474  1.00  0.00     0.251 C 
HETATM    2  N   UNL     1      39.955 -12.169   7.765  1.00  0.00    -0.353 N 
HETATM    3  O   UNL     1      38.723 -12.150   5.831  1.00  0.00    -0.268 OA
HETATM    4  H   UNL     1      40.845 -12.410   8.175  1.00  0.00     0.163 HD
ENDROOT
BRANCH   1   5
HETATM    5  C   UNL     1      40.600 -13.569   5.872  1.00  0.00     0.032 A 
HETATM    6  C   UNL     1      41.918 -13.243   5.536  1.00  0.00     0.020 A 
HETATM    7  C   UNL     1      42.776 -14.234   5.054  1.00  0.00     0.038 A 
HETATM    8  C   UNL     1      42.338 -15.554   4.925  1.00  0.00     0.069 A 
HETATM    9  C   UNL     1      41.016 -15.875   5.231  1.00  0.00     0.038 A 
HETATM   10  C   UNL     1      40.153 -14.887   5.717  1.00  0.00     0.020 A 
BRANCH   8  11
HETATM   11  O   UNL     1      43.287 -16.432   4.487  1.00  0.00    -0.347 OA
BRANCH  11  12
HETATM   12  C   UNL     1      43.113 -17.802   4.857  1.00  0.00     0.219 C 
BRANCH  12  13
HETATM   13  C   UNL     1      43.364 -18.680   3.686  1.00  0.00     0.024 A 
HETATM   14  C   UNL     1      44.254 -19.787   3.608  1.00  0.00     0.069 A 
HETATM   15  C   UNL     1      45.143 -20.325   4.664  1.00  0.00     0.073 C 
HETATM   16  N   UNL     1      44.227 -20.353   2.396  1.00  0.00    -0.133 NA
HETATM   17  O   UNL     1      43.324 -19.616   1.657  1.00  0.00    -0.217 OA
HETATM   18  C   UNL     1      42.813 -18.618   2.424  1.00  0.00     0.085 A 
HETATM   19  C   UNL     1      41.835 -17.727   1.773  1.00  0.00     0.079 C 
ENDBRANCH  12  13
ENDBRANCH  11  12
ENDBRANCH   8  11
ENDBRANCH   1   5
BRANCH   2  20
HETATM   20  C   UNL     1      39.051 -11.298   8.473  1.00  0.00     0.162 C 
BRANCH  20  21
HETATM   21  C   UNL     1      39.702  -9.983   8.838  1.00  0.00    -0.033 A 
HETATM   22  C   UNL     1      40.471  -9.762  10.004  1.00  0.00    -0.025 A 
HETATM   23  C   UNL     1      41.024  -8.481  10.220  1.00  0.00     0.009 A 
HETATM   24  C   UNL     1      40.824  -7.443   9.311  1.00  0.00     0.001 A 
HETATM   25  C   UNL     1      40.071  -7.663   8.166  1.00  0.00     0.001 A 
HETATM   26  C   UNL     1      39.519  -8.920   7.931  1.00  0.00     0.009 A 
BRANCH  22  27
HETATM   27  C   UNL     1      40.736 -10.823  11.043  1.00  0.00     0.274 C 
BRANCH  27  28
HETATM   28  N   UNL     1      42.099 -11.463  10.924  1.00  0.00    -0.067 N 
HETATM   29  H   UNL     1      41.936 -12.462  10.740  1.00  0.00     0.280 HD
HETATM   30  C   UNL     1      42.916 -11.347  12.194  1.00  0.00     0.235 C 
HETATM   31  C   UNL     1      43.934 -10.276  11.872  1.00  0.00     0.029 C 
HETATM   32  C   UNL     1      44.295 -10.589  10.435  1.00  0.00     0.029 C 
HETATM   33  C   UNL     1      42.961 -10.929   9.792  1.00  0.00     0.235 C 
ENDBRANCH  27  28
ENDBRANCH  22  27
ENDBRANCH  20  21
ENDBRANCH   2  20
TORSDOF 8
ENDMDL
MODEL 10
REMARK VINA RESULT:      -8.1      3.024     10.214
REMARK  8 active torsions:
REMARK  status: ('A' for Active; 'I' for Inactive)
REMARK    1  A    between atoms: C_7  and  C_8 
REMARK    2  A    between atoms: C_8  and  O_9 
REMARK    3  A    between atoms: O_9  and  C_10 
REMARK    4  A    between atoms: C_13  and  C_14 
REMARK       I    between atoms: C_14  and  N_15 
REMARK    5  A    between atoms: N_15  and  C_16 
REMARK    6  A    between atoms: C_16  and  C_17 
REMARK    7  A    between atoms: C_18  and  C_19 
REMARK    8  A    between atoms: C_19  and  N_20 
ROOT
HETATM    1  C   UNL     1      44.796 -12.622   8.621  1.00  0.00     0.251 C 
HETATM    2  N   UNL     1      43.956 -13.415   7.867  1.00  0.00    -0.353 N 
HETATM    3  O   UNL     1      46.017 -12.724   8.594  1.00  0.00    -0.268 OA
HETATM    4  H   UNL     1      42.980 -13.169   7.794  1.00  0.00     0.163 HD
ENDROOT
BRANCH   1   5
HETATM    5  C   UNL     1      44.152 -11.611   9.499  1.00  0.00     0.032 A 
HETATM    6  C   UNL     1      42.989 -10.936   9.113  1.00  0.00     0.020 A 
HETATM    7  C   UNL     1      42.368 -10.059  10.005  1.00  0.00     0.038 A 
HETATM    8  C   UNL     1      42.884  -9.864  11.288  1.00  0.00     0.069 A 
HETATM    9  C   UNL     1      44.059 -10.514  11.664  1.00  0.00     0.038 A 
HETATM   10  C   UNL     1      44.684 -11.396  10.776  1.00  0.00     0.020 A 
BRANCH   8  11
HETATM   11  O   UNL     1      42.158  -9.018  12.075  1.00  0.00    -0.347 OA
BRANCH  11  12
HETATM   12  C   UNL     1      41.272  -8.119  11.403  1.00  0.00     0.219 C 
BRANCH  12  13
HETATM   13  C   UNL     1      39.883  -8.316  11.891  1.00  0.00     0.024 A 
HETATM   14  C   UNL     1      39.348  -7.943  13.156  1.00  0.00     0.069 A 
HETATM   15  C   UNL     1      40.041  -7.277  14.284  1.00  0.00     0.073 C 
HETATM   16  N   UNL     1      38.056  -8.272  13.258  1.00  0.00    -0.133 NA
HETATM   17  O   UNL     1      37.727  -8.878  12.062  1.00  0.00    -0.217 OA
HETATM   18  C   UNL     1      38.816  -8.907  11.250  1.00  0.00     0.085 A 
HETATM   19  C   UNL     1      38.632  -9.538   9.930  1.00  0.00     0.079 C 
ENDBRANCH  12  13
ENDBRANCH  11  12
ENDBRANCH   8  11
ENDBRANCH   1   5
BRANCH   2  20
HETATM   20  C   UNL     1      44.481 -14.501   7.078  1.00  0.00     0.162 C 
BRANCH  20  21
HETATM   21  C   UNL     1      43.675 -14.730   5.821  1.00  0.00    -0.033 A 
HETATM   22  C   UNL     1      42.663 -15.708   5.681  1.00  0.00    -0.025 A 
HETATM   23  C   UNL     1      41.985 -15.813   4.447  1.00  0.00     0.009 A 
HETATM   24  C   UNL     1      42.296 -14.974   3.377  1.00  0.00     0.001 A 
HETATM   25  C   UNL     1      43.287 -14.012   3.517  1.00  0.00     0.001 A 
HETATM   26  C   UNL     1      43.966 -13.890   4.727  1.00  0.00     0.009 A 
BRANCH  22  27
HETATM   27  C   UNL     1      42.264 -16.660   6.780  1.00  0.00     0.274 C 
BRANCH  27  28
HETATM   28  N   UNL     1      42.907 -18.022   6.670  1.00  0.00    -0.067 N 
HETATM   29  H   UNL     1      42.195 -18.705   6.960  1.00  0.00     0.280 HD
HETATM   30  C   UNL     1      44.109 -18.181   7.579  1.00  0.00     0.235 C 
HETATM   31  C   UNL     1      45.289 -18.089   6.637  1.00  0.00     0.029 C 
HETATM   32  C   UNL     1      44.800 -18.855   5.426  1.00  0.00     0.029 C 
HETATM   33  C   UNL     1      43.358 -18.405   5.269  1.00  0.00     0.235 C 
ENDBRANCH  27  28
ENDBRANCH  22  27
ENDBRANCH  20  21
ENDBRANCH   2  20
TORSDOF 8
ENDMDL
