MODEL 1
REMARK VINA RESULT:      -8.0      0.000      0.000
REMARK  8 active torsions:
REMARK  status: ('A' for Active; 'I' for Inactive)
REMARK    1  A    between atoms: C_4  and  C_5 
REMARK    2  A    between atoms: C_5  and  C_6 
REMARK    3  A    between atoms: C_10  and  S_11 
REMARK    4  A    between atoms: S_11  and  C_12 
REMARK    5  A    between atoms: C_12  and  C_13 
REMARK       I    between atoms: C_13  and  N_14 
REMARK    6  A    between atoms: N_14  and  N_15 
REMARK       I    between atoms: N_15  and  C_16 
REMARK       I    between atoms: C_16  and  N_17 
REMARK    7  A    between atoms: N_17  and  C_18 
REMARK    8  A    between atoms: C_18  and  C_19 
ROOT
HETATM    1  C   UNL     1      42.791 -13.180   4.164  1.00  0.00     0.245 C 
HETATM    2  N   UNL     1      42.937 -13.761   2.920  1.00  0.00    -0.265 N 
HETATM    3  O   UNL     1      43.461 -13.526   5.141  1.00  0.00    -0.271 OA
HETATM    4  H   UNL     1      42.147 -13.757   2.268  1.00  0.00     0.190 HD
ENDROOT
BRANCH   1   5
HETATM    5  C   UNL     1      41.707 -12.134   4.276  1.00  0.00     0.187 C 
BRANCH   5   6
HETATM    6  S   UNL     1      40.079 -12.914   4.241  1.00  0.00    -0.081 SA
BRANCH   6   7
HETATM    7  C   UNL     1      40.306 -14.490   4.911  1.00  0.00     0.185 A 
HETATM    8  N   UNL     1      40.239 -14.811   6.234  1.00  0.00    -0.254 N 
HETATM    9  N   UNL     1      40.573 -16.099   6.441  1.00  0.00    -0.157 NA
HETATM   10  H   UNL     1      40.022 -14.219   7.032  1.00  0.00     0.191 HD
HETATM   11  C   UNL     1      40.887 -16.494   5.198  1.00  0.00     0.153 A 
HETATM   12  N   UNL     1      40.678 -15.544   4.225  1.00  0.00    -0.206 NA
BRANCH  11  13
HETATM   13  C   UNL     1      41.427 -17.846   4.894  1.00  0.00     0.120 C 
BRANCH  13  14
HETATM   14  C   UNL     1      42.667 -17.996   5.745  1.00  0.00    -0.051 A 
HETATM   15  C   UNL     1      42.845 -19.121   6.567  1.00  0.00     0.007 A 
HETATM   16  C   UNL     1      43.977 -19.237   7.375  1.00  0.00     0.001 A 
HETATM   17  C   UNL     1      44.944 -18.233   7.371  1.00  0.00     0.000 A 
HETATM   18  C   UNL     1      44.780 -17.112   6.562  1.00  0.00     0.001 A 
HETATM   19  C   UNL     1      43.648 -16.991   5.755  1.00  0.00     0.007 A 
ENDBRANCH  13  14
ENDBRANCH  11  13
ENDBRANCH   6   7
ENDBRANCH   5   6
ENDBRANCH   1   5
BRANCH   2  20
HETATM   20  N   UNL     1      43.698 -14.959   2.882  1.00  0.00    -0.249 N 
HETATM   21  C   UNL     1      43.223 -15.944   2.038  1.00  0.00     0.335 C 
HETATM   22  N   UNL     1      43.805 -17.156   2.280  1.00  0.00    -0.338 N 
HETATM   23  O   UNL     1      42.362 -15.732   1.191  1.00  0.00    -0.246 OA
HETATM   24  H   UNL     1      44.703 -17.158   2.739  1.00  0.00     0.164 HD
HETATM   25  H   UNL     1      44.015 -15.272   3.799  1.00  0.00     0.192 HD
BRANCH  22  26
HETATM   26  C   UNL     1      43.478 -18.310   1.476  1.00  0.00     0.162 C 
BRANCH  26  27
HETATM   27  C   UNL     1      43.877 -19.574   2.189  1.00  0.00    -0.040 A 
HETATM   28  C   UNL     1      44.626 -19.505   3.372  1.00  0.00     0.009 A 
HETATM   29  C   UNL     1      45.024 -20.669   4.030  1.00  0.00     0.001 A 
HETATM   30  C   UNL     1      44.682 -21.915   3.508  1.00  0.00     0.000 A 
HETATM   31  C   UNL     1      43.946 -21.998   2.327  1.00  0.00     0.001 A 
HETATM   32  C   UNL     1      43.547 -20.833   1.667  1.00  0.00     0.009 A 
ENDBRANCH  26  27
ENDBRANCH  22  26
ENDBRANCH   2  20
TORSDOF 8
ENDMDL
MODEL 2
REMARK VINA RESULT:      -7.9      1.580      3.020
REMARK  8 active torsions:
REMARK  status: ('A' for Active; 'I' for Inactive)
REMARK    1  A    between atoms: C_4  and  C_5 
REMARK    2  A    between atoms: C_5  and  C_6 
REMARK    3  A    between atoms: C_10  and  S_11 
REMARK    4  A    between atoms: S_11  and  C_12 
REMARK    5  A    between atoms: C_12  and  C_13 
REMARK       I    between atoms: C_13  and  N_14 
REMARK    6  A    between atoms: N_14  and  N_15 
REMARK       I    between atoms: N_15  and  C_16 
REMARK       I    between atoms: C_16  and  N_17 
REMARK    7  A    between atoms: N_17  and  C_18 
REMARK    8  A    between atoms: C_18  and  C_19 
ROOT
HETATM    1  C   UNL     1      39.528 -14.798   2.893  1.00  0.00     0.245 C 
HETATM    2  N   UNL     1      40.233 -15.648   3.722  1.00  0.00    -0.265 N 
HETATM    3  O   UNL     1      39.007 -15.177   1.841  1.00  0.00    -0.271 OA
HETATM    4  H   UNL     1      40.960 -15.265   4.334  1.00  0.00     0.190 HD
ENDROOT
BRANCH   1   5
HETATM    5  C   UNL     1      39.488 -13.349   3.321  1.00  0.00     0.187 C 
BRANCH   5   6
HETATM    6  S   UNL     1      40.920 -12.465   2.668  1.00  0.00    -0.081 SA
BRANCH   6   7
HETATM    7  C   UNL     1      42.253 -12.945   3.656  1.00  0.00     0.185 A 
HETATM    8  N   UNL     1      43.467 -13.371   3.206  1.00  0.00    -0.254 N 
HETATM    9  N   UNL     1      44.250 -13.777   4.222  1.00  0.00    -0.157 NA
HETATM   10  H   UNL     1      43.809 -13.451   2.252  1.00  0.00     0.191 HD
HETATM   11  C   UNL     1      43.425 -13.621   5.269  1.00  0.00     0.153 A 
HETATM   12  N   UNL     1      42.209 -13.057   4.962  1.00  0.00    -0.206 NA
BRANCH  11  13
HETATM   13  C   UNL     1      43.790 -14.033   6.651  1.00  0.00     0.120 C 
BRANCH  13  14
HETATM   14  C   UNL     1      43.611 -15.534   6.695  1.00  0.00    -0.051 A 
HETATM   15  C   UNL     1      44.722 -16.389   6.768  1.00  0.00     0.007 A 
HETATM   16  C   UNL     1      44.551 -17.774   6.776  1.00  0.00     0.001 A 
HETATM   17  C   UNL     1      43.270 -18.321   6.711  1.00  0.00     0.000 A 
HETATM   18  C   UNL     1      42.160 -17.483   6.637  1.00  0.00     0.001 A 
HETATM   19  C   UNL     1      42.328 -16.098   6.627  1.00  0.00     0.007 A 
ENDBRANCH  13  14
ENDBRANCH  11  13
ENDBRANCH   6   7
ENDBRANCH   5   6
ENDBRANCH   1   5
BRANCH   2  20
HETATM   20  N   UNL     1      40.564 -16.915   3.171  1.00  0.00    -0.249 N 
HETATM   21  C   UNL     1      41.884 -17.080   2.802  1.00  0.00     0.335 C 
HETATM   22  N   UNL     1      42.065 -18.177   2.008  1.00  0.00    -0.338 N 
HETATM   23  O   UNL     1      42.771 -16.304   3.143  1.00  0.00    -0.246 OA
HETATM   24  H   UNL     1      41.373 -18.909   2.062  1.00  0.00     0.164 HD
HETATM   25  H   UNL     1      39.869 -17.271   2.516  1.00  0.00     0.192 HD
BRANCH  22  26
HETATM   26  C   UNL     1      43.381 -18.553   1.547  1.00  0.00     0.162 C 
BRANCH  26  27
HETATM   27  C   UNL     1      43.878 -19.753   2.306  1.00  0.00    -0.040 A 
HETATM   28  C   UNL     1      43.774 -21.032   1.741  1.00  0.00     0.009 A 
HETATM   29  C   UNL     1      44.209 -22.157   2.444  1.00  0.00     0.001 A 
HETATM   30  C   UNL     1      44.746 -22.014   3.721  1.00  0.00     0.000 A 
HETATM   31  C   UNL     1      44.846 -20.749   4.298  1.00  0.00     0.001 A 
HETATM   32  C   UNL     1      44.411 -19.622   3.596  1.00  0.00     0.009 A 
ENDBRANCH  26  27
ENDBRANCH  22  26
ENDBRANCH   2  20
TORSDOF 8
ENDMDL
MODEL 3
REMARK VINA RESULT:      -7.7      4.105      7.854
REMARK  8 active torsions:
REMARK  status: ('A' for Active; 'I' for Inactive)
REMARK    1  A    between atoms: C_4  and  C_5 
REMARK    2  A    between atoms: C_5  and  C_6 
REMARK    3  A    between atoms: C_10  and  S_11 
REMARK    4  A    between atoms: S_11  and  C_12 
REMARK    5  A    between atoms: C_12  and  C_13 
REMARK       I    between atoms: C_13  and  N_14 
REMARK    6  A    between atoms: N_14  and  N_15 
REMARK       I    between atoms: N_15  and  C_16 
REMARK       I    between atoms: C_16  and  N_17 
REMARK    7  A    between atoms: N_17  and  C_18 
REMARK    8  A    between atoms: C_18  and  C_19 
ROOT
HETATM    1  C   UNL     1      40.369 -13.832   5.498  1.00  0.00     0.245 C 
HETATM    2  N   UNL     1      39.245 -13.166   5.945  1.00  0.00    -0.265 N 
HETATM    3  O   UNL     1      41.091 -14.495   6.247  1.00  0.00    -0.271 OA
HETATM    4  H   UNL     1      38.913 -12.341   5.437  1.00  0.00     0.190 HD
ENDROOT
BRANCH   1   5
HETATM    5  C   UNL     1      40.703 -13.643   4.036  1.00  0.00     0.187 C 
BRANCH   5   6
HETATM    6  S   UNL     1      40.206 -15.098   3.089  1.00  0.00    -0.081 SA
BRANCH   6   7
HETATM    7  C   UNL     1      41.144 -16.405   3.718  1.00  0.00     0.185 A 
HETATM    8  N   UNL     1      40.719 -17.321   4.633  1.00  0.00    -0.254 N 
HETATM    9  N   UNL     1      41.721 -18.143   5.002  1.00  0.00    -0.157 NA
HETATM   10  H   UNL     1      39.807 -17.423   5.071  1.00  0.00     0.191 HD
HETATM   11  C   UNL     1      42.750 -17.632   4.308  1.00  0.00     0.153 A 
HETATM   12  N   UNL     1      42.416 -16.598   3.465  1.00  0.00    -0.206 NA
BRANCH  11  13
HETATM   13  C   UNL     1      44.143 -18.135   4.446  1.00  0.00     0.120 C 
BRANCH  13  14
HETATM   14  C   UNL     1      44.174 -19.464   3.724  1.00  0.00    -0.051 A 
HETATM   15  C   UNL     1      43.717 -19.575   2.401  1.00  0.00     0.007 A 
HETATM   16  C   UNL     1      43.719 -20.810   1.752  1.00  0.00     0.001 A 
HETATM   17  C   UNL     1      44.177 -21.948   2.415  1.00  0.00     0.000 A 
HETATM   18  C   UNL     1      44.632 -21.852   3.728  1.00  0.00     0.001 A 
HETATM   19  C   UNL     1      44.629 -20.618   4.381  1.00  0.00     0.007 A 
ENDBRANCH  13  14
ENDBRANCH  11  13
ENDBRANCH   6   7
ENDBRANCH   5   6
ENDBRANCH   1   5
BRANCH   2  20
HETATM   20  N   UNL     1      39.112 -13.055   7.355  1.00  0.00    -0.249 N 
HETATM   21  C   UNL     1      39.366 -11.805   7.883  1.00  0.00     0.335 C 
HETATM   22  N   UNL     1      39.528 -11.840   9.239  1.00  0.00    -0.338 N 
HETATM   23  O   UNL     1      39.453 -10.797   7.189  1.00  0.00    -0.246 OA
HETATM   24  H   UNL     1      39.118 -12.616   9.736  1.00  0.00     0.164 HD
HETATM   25  H   UNL     1      39.505 -13.845   7.867  1.00  0.00     0.192 HD
BRANCH  22  26
HETATM   26  C   UNL     1      39.759 -10.630   9.992  1.00  0.00     0.162 C 
BRANCH  26  27
HETATM   27  C   UNL     1      41.113 -10.670  10.646  1.00  0.00    -0.040 A 
HETATM   28  C   UNL     1      41.234 -11.082  11.981  1.00  0.00     0.009 A 
HETATM   29  C   UNL     1      42.481 -11.101  12.608  1.00  0.00     0.001 A 
HETATM   30  C   UNL     1      43.618 -10.703  11.908  1.00  0.00     0.000 A 
HETATM   31  C   UNL     1      43.509 -10.281  10.584  1.00  0.00     0.001 A 
HETATM   32  C   UNL     1      42.262 -10.261   9.955  1.00  0.00     0.009 A 
ENDBRANCH  26  27
ENDBRANCH  22  26
ENDBRANCH   2  20
TORSDOF 8
ENDMDL
MODEL 4
REMARK VINA RESULT:      -7.5      5.237      8.516
REMARK  8 active torsions:
REMARK  status: ('A' for Active; 'I' for Inactive)
REMARK    1  A    between atoms: C_4  and  C_5 
REMARK    2  A    between atoms: C_5  and  C_6 
REMARK    3  A    between atoms: C_10  and  S_11 
REMARK    4  A    between atoms: S_11  and  C_12 
REMARK    5  A    between atoms: C_12  and  C_13 
REMARK       I    between atoms: C_13  and  N_14 
REMARK    6  A    between atoms: N_14  and  N_15 
REMARK       I    between atoms: N_15  and  C_16 
REMARK       I    between atoms: C_16  and  N_17 
REMARK    7  A    between atoms: N_17  and  C_18 
REMARK    8  A    between atoms: C_18  and  C_19 
ROOT
HETATM    1  C   UNL     1      44.002 -14.212   6.765  1.00  0.00     0.245 C 
HETATM    2  N   UNL     1      43.657 -13.022   7.376  1.00  0.00    -0.265 N 
HETATM    3  O   UNL     1      44.377 -15.201   7.401  1.00  0.00    -0.271 OA
HETATM    4  H   UNL     1      43.742 -12.145   6.853  1.00  0.00     0.190 HD
ENDROOT
BRANCH   1   5
HETATM    5  C   UNL     1      43.957 -14.209   5.255  1.00  0.00     0.187 C 
BRANCH   5   6
HETATM    6  S   UNL     1      42.247 -14.278   4.680  1.00  0.00    -0.081 SA
BRANCH   6   7
HETATM    7  C   UNL     1      42.172 -15.628   3.606  1.00  0.00     0.185 A 
HETATM    8  N   UNL     1      41.132 -16.503   3.497  1.00  0.00    -0.254 N 
HETATM    9  N   UNL     1      41.427 -17.508   2.651  1.00  0.00    -0.157 NA
HETATM   10  H   UNL     1      40.237 -16.505   3.980  1.00  0.00     0.191 HD
HETATM   11  C   UNL     1      42.693 -17.212   2.319  1.00  0.00     0.153 A 
HETATM   12  N   UNL     1      43.161 -16.030   2.845  1.00  0.00    -0.206 NA
BRANCH  11  13
HETATM   13  C   UNL     1      43.528 -18.093   1.460  1.00  0.00     0.120 C 
BRANCH  13  14
HETATM   14  C   UNL     1      43.941 -19.253   2.338  1.00  0.00    -0.051 A 
HETATM   15  C   UNL     1      43.925 -20.568   1.846  1.00  0.00     0.007 A 
HETATM   16  C   UNL     1      44.276 -21.638   2.670  1.00  0.00     0.001 A 
HETATM   17  C   UNL     1      44.647 -21.407   3.995  1.00  0.00     0.000 A 
HETATM   18  C   UNL     1      44.665 -20.108   4.496  1.00  0.00     0.001 A 
HETATM   19  C   UNL     1      44.313 -19.036   3.674  1.00  0.00     0.007 A 
ENDBRANCH  13  14
ENDBRANCH  11  13
ENDBRANCH   6   7
ENDBRANCH   5   6
ENDBRANCH   1   5
BRANCH   2  20
HETATM   20  N   UNL     1      44.015 -12.904   8.745  1.00  0.00    -0.249 N 
HETATM   21  C   UNL     1      43.980 -11.624   9.264  1.00  0.00     0.335 C 
HETATM   22  N   UNL     1      44.624 -11.537  10.465  1.00  0.00    -0.338 N 
HETATM   23  O   UNL     1      43.444 -10.687   8.682  1.00  0.00    -0.246 OA
HETATM   24  H   UNL     1      44.729 -12.385  11.001  1.00  0.00     0.164 HD
HETATM   25  H   UNL     1      44.821 -13.470   9.008  1.00  0.00     0.192 HD
BRANCH  22  26
HETATM   26  C   UNL     1      44.665 -10.293  11.198  1.00  0.00     0.162 C 
BRANCH  26  27
HETATM   27  C   UNL     1      43.600 -10.276  12.262  1.00  0.00    -0.040 A 
HETATM   28  C   UNL     1      43.696  -9.378  13.335  1.00  0.00     0.009 A 
HETATM   29  C   UNL     1      42.729  -9.369  14.341  1.00  0.00     0.001 A 
HETATM   30  C   UNL     1      41.660 -10.261  14.288  1.00  0.00     0.000 A 
HETATM   31  C   UNL     1      41.559 -11.166  13.232  1.00  0.00     0.001 A 
HETATM   32  C   UNL     1      42.527 -11.177  12.224  1.00  0.00     0.009 A 
ENDBRANCH  26  27
ENDBRANCH  22  26
ENDBRANCH   2  20
TORSDOF 8
ENDMDL
MODEL 5
REMARK VINA RESULT:      -7.5      5.267      6.569
REMARK  8 active torsions:
REMARK  status: ('A' for Active; 'I' for Inactive)
REMARK    1  A    between atoms: C_4  and  C_5 
REMARK    2  A    between atoms: C_5  and  C_6 
REMARK    3  A    between atoms: C_10  and  S_11 
REMARK    4  A    between atoms: S_11  and  C_12 
REMARK    5  A    between atoms: C_12  and  C_13 
REMARK       I    between atoms: C_13  and  N_14 
REMARK    6  A    between atoms: N_14  and  N_15 
REMARK       I    between atoms: N_15  and  C_16 
REMARK       I    between atoms: C_16  and  N_17 
REMARK    7  A    between atoms: N_17  and  C_18 
REMARK    8  A    between atoms: C_18  and  C_19 
ROOT
HETATM    1  C   UNL     1      39.346 -12.395   6.709  1.00  0.00     0.245 C 
HETATM    2  N   UNL     1      39.914 -13.638   6.905  1.00  0.00    -0.265 N 
HETATM    3  O   UNL     1      38.813 -12.069   5.644  1.00  0.00    -0.271 OA
HETATM    4  H   UNL     1      40.664 -13.744   7.595  1.00  0.00     0.190 HD
ENDROOT
BRANCH   1   5
HETATM    5  C   UNL     1      39.475 -11.426   7.861  1.00  0.00     0.187 C 
BRANCH   5   6
HETATM    6  S   UNL     1      40.691 -10.150   7.472  1.00  0.00    -0.081 SA
BRANCH   6   7
HETATM    7  C   UNL     1      42.151 -10.648   8.251  1.00  0.00     0.185 A 
HETATM    8  N   UNL     1      42.873 -11.765   7.952  1.00  0.00    -0.254 N 
HETATM    9  N   UNL     1      43.895 -11.930   8.812  1.00  0.00    -0.157 NA
HETATM   10  H   UNL     1      42.713 -12.462   7.229  1.00  0.00     0.191 HD
HETATM   11  C   UNL     1      43.705 -10.899   9.649  1.00  0.00     0.153 A 
HETATM   12  N   UNL     1      42.674 -10.058   9.299  1.00  0.00    -0.206 NA
BRANCH  11  13
HETATM   13  C   UNL     1      44.533 -10.685  10.866  1.00  0.00     0.120 C 
BRANCH  13  14
HETATM   14  C   UNL     1      43.556 -10.551  12.012  1.00  0.00    -0.051 A 
HETATM   15  C   UNL     1      42.452 -11.412  12.120  1.00  0.00     0.007 A 
HETATM   16  C   UNL     1      41.536 -11.262  13.163  1.00  0.00     0.001 A 
HETATM   17  C   UNL     1      41.713 -10.253  14.109  1.00  0.00     0.000 A 
HETATM   18  C   UNL     1      42.803  -9.392  14.012  1.00  0.00     0.001 A 
HETATM   19  C   UNL     1      43.719  -9.538  12.970  1.00  0.00     0.007 A 
ENDBRANCH  13  14
ENDBRANCH  11  13
ENDBRANCH   6   7
ENDBRANCH   5   6
ENDBRANCH   1   5
BRANCH   2  20
HETATM   20  N   UNL     1      40.101 -14.424   5.738  1.00  0.00    -0.249 N 
HETATM   21  C   UNL     1      41.355 -14.354   5.163  1.00  0.00     0.335 C 
HETATM   22  N   UNL     1      41.373 -14.870   3.899  1.00  0.00    -0.338 N 
HETATM   23  O   UNL     1      42.320 -13.860   5.737  1.00  0.00    -0.246 OA
HETATM   24  H   UNL     1      40.651 -15.531   3.655  1.00  0.00     0.164 HD
HETATM   25  H   UNL     1      39.312 -14.393   5.093  1.00  0.00     0.192 HD
BRANCH  22  26
HETATM   26  C   UNL     1      42.599 -14.932   3.138  1.00  0.00     0.162 C 
BRANCH  26  27
HETATM   27  C   UNL     1      42.991 -16.364   2.892  1.00  0.00    -0.040 A 
HETATM   28  C   UNL     1      43.482 -16.749   1.637  1.00  0.00     0.009 A 
HETATM   29  C   UNL     1      43.827 -18.079   1.387  1.00  0.00     0.001 A 
HETATM   30  C   UNL     1      43.677 -19.037   2.387  1.00  0.00     0.000 A 
HETATM   31  C   UNL     1      43.180 -18.667   3.637  1.00  0.00     0.001 A 
HETATM   32  C   UNL     1      42.835 -17.337   3.889  1.00  0.00     0.009 A 
ENDBRANCH  26  27
ENDBRANCH  22  26
ENDBRANCH   2  20
TORSDOF 8
ENDMDL
MODEL 6
REMARK VINA RESULT:      -7.4      4.159      7.416
REMARK  8 active torsions:
REMARK  status: ('A' for Active; 'I' for Inactive)
REMARK    1  A    between atoms: C_4  and  C_5 
REMARK    2  A    between atoms: C_5  and  C_6 
REMARK    3  A    between atoms: C_10  and  S_11 
REMARK    4  A    between atoms: S_11  and  C_12 
REMARK    5  A    between atoms: C_12  and  C_13 
REMARK       I    between atoms: C_13  and  N_14 
REMARK    6  A    between atoms: N_14  and  N_15 
REMARK       I    between atoms: N_15  and  C_16 
REMARK       I    between atoms: C_16  and  N_17 
REMARK    7  A    between atoms: N_17  and  C_18 
REMARK    8  A    between atoms: C_18  and  C_19 
ROOT
HETATM    1  C   UNL     1      42.911 -13.418   4.023  1.00  0.00     0.245 C 
HETATM    2  N   UNL     1      43.630 -13.945   5.079  1.00  0.00    -0.265 N 
HETATM    3  O   UNL     1      42.225 -12.398   4.130  1.00  0.00    -0.271 OA
HETATM    4  H   UNL     1      43.845 -14.946   5.090  1.00  0.00     0.190 HD
ENDROOT
BRANCH   1   5
HETATM    5  C   UNL     1      42.963 -14.209   2.736  1.00  0.00     0.187 C 
BRANCH   5   6
HETATM    6  S   UNL     1      41.610 -15.403   2.683  1.00  0.00    -0.081 SA
BRANCH   6   7
HETATM    7  C   UNL     1      42.153 -16.763   3.599  1.00  0.00     0.185 A 
HETATM    8  N   UNL     1      41.382 -17.530   4.420  1.00  0.00    -0.254 N 
HETATM    9  N   UNL     1      42.125 -18.441   5.076  1.00  0.00    -0.157 NA
HETATM   10  H   UNL     1      40.385 -17.469   4.613  1.00  0.00     0.191 HD
HETATM   11  C   UNL     1      43.358 -18.136   4.646  1.00  0.00     0.153 A 
HETATM   12  N   UNL     1      43.404 -17.145   3.692  1.00  0.00    -0.206 NA
BRANCH  11  13
HETATM   13  C   UNL     1      44.581 -18.807   5.163  1.00  0.00     0.120 C 
BRANCH  13  14
HETATM   14  C   UNL     1      44.616 -20.167   4.503  1.00  0.00    -0.051 A 
HETATM   15  C   UNL     1      44.458 -20.296   3.113  1.00  0.00     0.007 A 
HETATM   16  C   UNL     1      44.459 -21.556   2.514  1.00  0.00     0.001 A 
HETATM   17  C   UNL     1      44.619 -22.701   3.294  1.00  0.00     0.000 A 
HETATM   18  C   UNL     1      44.776 -22.587   4.673  1.00  0.00     0.001 A 
HETATM   19  C   UNL     1      44.773 -21.328   5.276  1.00  0.00     0.007 A 
ENDBRANCH  13  14
ENDBRANCH  11  13
ENDBRANCH   6   7
ENDBRANCH   5   6
ENDBRANCH   1   5
BRANCH   2  20
HETATM   20  N   UNL     1      43.324 -13.415   6.360  1.00  0.00    -0.249 N 
HETATM   21  C   UNL     1      44.404 -13.208   7.195  1.00  0.00     0.335 C 
HETATM   22  N   UNL     1      44.023 -13.002   8.490  1.00  0.00    -0.338 N 
HETATM   23  O   UNL     1      45.564 -13.233   6.797  1.00  0.00    -0.246 OA
HETATM   24  H   UNL     1      43.083 -12.673   8.653  1.00  0.00     0.164 HD
HETATM   25  H   UNL     1      42.500 -13.834   6.791  1.00  0.00     0.192 HD
BRANCH  22  26
HETATM   26  C   UNL     1      45.000 -12.722   9.517  1.00  0.00     0.162 C 
BRANCH  26  27
HETATM   27  C   UNL     1      44.397 -11.859  10.592  1.00  0.00    -0.040 A 
HETATM   28  C   UNL     1      43.810 -12.452  11.719  1.00  0.00     0.009 A 
HETATM   29  C   UNL     1      43.225 -11.664  12.712  1.00  0.00     0.001 A 
HETATM   30  C   UNL     1      43.217 -10.277  12.585  1.00  0.00     0.000 A 
HETATM   31  C   UNL     1      43.789  -9.676  11.465  1.00  0.00     0.001 A 
HETATM   32  C   UNL     1      44.374 -10.463  10.470  1.00  0.00     0.009 A 
ENDBRANCH  26  27
ENDBRANCH  22  26
ENDBRANCH   2  20
TORSDOF 8
ENDMDL
MODEL 7
REMARK VINA RESULT:      -7.4      4.918      8.558
REMARK  8 active torsions:
REMARK  status: ('A' for Active; 'I' for Inactive)
REMARK    1  A    between atoms: C_4  and  C_5 
REMARK    2  A    between atoms: C_5  and  C_6 
REMARK    3  A    between atoms: C_10  and  S_11 
REMARK    4  A    between atoms: S_11  and  C_12 
REMARK    5  A    between atoms: C_12  and  C_13 
REMARK       I    between atoms: C_13  and  N_14 
REMARK    6  A    between atoms: N_14  and  N_15 
REMARK       I    between atoms: N_15  and  C_16 
REMARK       I    between atoms: C_16  and  N_17 
REMARK    7  A    between atoms: N_17  and  C_18 
REMARK    8  A    between atoms: C_18  and  C_19 
ROOT
HETATM    1  C   UNL     1      41.369 -12.279   5.587  1.00  0.00     0.245 C 
HETATM    2  N   UNL     1      41.737 -12.258   6.918  1.00  0.00    -0.265 N 
HETATM    3  O   UNL     1      40.531 -11.504   5.117  1.00  0.00    -0.271 OA
HETATM    4  H   UNL     1      42.096 -13.112   7.354  1.00  0.00     0.190 HD
ENDROOT
BRANCH   1   5
HETATM    5  C   UNL     1      42.009 -13.361   4.748  1.00  0.00     0.187 C 
BRANCH   5   6
HETATM    6  S   UNL     1      40.769 -14.567   4.232  1.00  0.00    -0.081 SA
BRANCH   6   7
HETATM    7  C   UNL     1      41.507 -16.114   4.447  1.00  0.00     0.185 A 
HETATM    8  N   UNL     1      40.892 -17.230   4.929  1.00  0.00    -0.254 N 
HETATM    9  N   UNL     1      41.766 -18.243   5.081  1.00  0.00    -0.157 NA
HETATM   10  H   UNL     1      39.923 -17.364   5.208  1.00  0.00     0.191 HD
HETATM   11  C   UNL     1      42.917 -17.653   4.721  1.00  0.00     0.153 A 
HETATM   12  N   UNL     1      42.782 -16.360   4.270  1.00  0.00    -0.206 NA
BRANCH  11  13
HETATM   13  C   UNL     1      44.235 -18.338   4.809  1.00  0.00     0.120 C 
BRANCH  13  14
HETATM   14  C   UNL     1      44.145 -19.527   3.879  1.00  0.00    -0.051 A 
HETATM   15  C   UNL     1      44.645 -20.781   4.265  1.00  0.00     0.007 A 
HETATM   16  C   UNL     1      44.588 -21.866   3.390  1.00  0.00     0.001 A 
HETATM   17  C   UNL     1      44.032 -21.712   2.121  1.00  0.00     0.000 A 
HETATM   18  C   UNL     1      43.534 -20.473   1.725  1.00  0.00     0.001 A 
HETATM   19  C   UNL     1      43.592 -19.385   2.597  1.00  0.00     0.007 A 
ENDBRANCH  13  14
ENDBRANCH  11  13
ENDBRANCH   6   7
ENDBRANCH   5   6
ENDBRANCH   1   5
BRANCH   2  20
HETATM   20  N   UNL     1      40.908 -11.487   7.776  1.00  0.00    -0.249 N 
HETATM   21  C   UNL     1      41.541 -10.471   8.465  1.00  0.00     0.335 C 
HETATM   22  N   UNL     1      40.775  -9.984   9.485  1.00  0.00    -0.338 N 
HETATM   23  O   UNL     1      42.671 -10.084   8.185  1.00  0.00    -0.246 OA
HETATM   24  H   UNL     1      39.777 -10.121   9.424  1.00  0.00     0.164 HD
HETATM   25  H   UNL     1      40.243 -12.044   8.312  1.00  0.00     0.192 HD
BRANCH  22  26
HETATM   26  C   UNL     1      41.236  -8.887  10.303  1.00  0.00     0.162 C 
BRANCH  26  27
HETATM   27  C   UNL     1      41.677  -9.387  11.652  1.00  0.00    -0.040 A 
HETATM   28  C   UNL     1      42.985  -9.146  12.096  1.00  0.00     0.009 A 
HETATM   29  C   UNL     1      43.414  -9.625  13.334  1.00  0.00     0.001 A 
HETATM   30  C   UNL     1      42.542 -10.357  14.138  1.00  0.00     0.000 A 
HETATM   31  C   UNL     1      41.242 -10.612  13.703  1.00  0.00     0.001 A 
HETATM   32  C   UNL     1      40.811 -10.133  12.464  1.00  0.00     0.009 A 
ENDBRANCH  26  27
ENDBRANCH  22  26
ENDBRANCH   2  20
TORSDOF 8
ENDMDL
MODEL 8
REMARK VINA RESULT:      -7.3      3.898      7.265
REMARK  8 active torsions:
REMARK  status: ('A' for Active; 'I' for Inactive)
REMARK    1  A    between atoms: C_4  and  C_5 
REMARK    2  A    between atoms: C_5  and  C_6 
REMARK    3  A    between atoms: C_10  and  S_11 
REMARK    4  A    between atoms: S_11  and  C_12 
REMARK    5  A    between atoms: C_12  and  C_13 
REMARK       I    between atoms: C_13  and  N_14 
REMARK    6  A    between atoms: N_14  and  N_15 
REMARK       I    between atoms: N_15  and  C_16 
REMARK       I    between atoms: C_16  and  N_17 
REMARK    7  A    between atoms: N_17  and  C_18 
REMARK    8  A    between atoms: C_18  and  C_19 
ROOT
HETATM    1  C   UNL     1      41.968 -14.668   5.038  1.00  0.00     0.245 C 
HETATM    2  N   UNL     1      43.308 -14.975   5.169  1.00  0.00    -0.265 N 
HETATM    3  O   UNL     1      41.538 -13.516   5.139  1.00  0.00    -0.271 OA
HETATM    4  H   UNL     1      43.581 -15.914   5.475  1.00  0.00     0.190 HD
ENDROOT
BRANCH   1   5
HETATM    5  C   UNL     1      41.044 -15.845   4.827  1.00  0.00     0.187 C 
BRANCH   5   6
HETATM    6  S   UNL     1      40.872 -16.786   6.357  1.00  0.00    -0.081 SA
BRANCH   6   7
HETATM    7  C   UNL     1      42.325 -17.710   6.501  1.00  0.00     0.185 A 
HETATM    8  N   UNL     1      42.926 -18.071   7.669  1.00  0.00    -0.254 N 
HETATM    9  N   UNL     1      44.101 -18.689   7.443  1.00  0.00    -0.157 NA
HETATM   10  H   UNL     1      42.631 -17.902   8.628  1.00  0.00     0.191 HD
HETATM   11  C   UNL     1      44.180 -18.622   6.105  1.00  0.00     0.153 A 
HETATM   12  N   UNL     1      43.076 -18.076   5.492  1.00  0.00    -0.206 NA
BRANCH  11  13
HETATM   13  C   UNL     1      45.370 -19.090   5.344  1.00  0.00     0.120 C 
BRANCH  13  14
HETATM   14  C   UNL     1      44.844 -20.069   4.318  1.00  0.00    -0.051 A 
HETATM   15  C   UNL     1      44.927 -21.454   4.537  1.00  0.00     0.007 A 
HETATM   16  C   UNL     1      44.469 -22.353   3.573  1.00  0.00     0.001 A 
HETATM   17  C   UNL     1      43.922 -21.880   2.380  1.00  0.00     0.000 A 
HETATM   18  C   UNL     1      43.835 -20.509   2.151  1.00  0.00     0.001 A 
HETATM   19  C   UNL     1      44.294 -19.608   3.112  1.00  0.00     0.007 A 
ENDBRANCH  13  14
ENDBRANCH  11  13
ENDBRANCH   6   7
ENDBRANCH   5   6
ENDBRANCH   1   5
BRANCH   2  20
HETATM   20  N   UNL     1      44.130 -13.944   5.698  1.00  0.00    -0.249 N 
HETATM   21  C   UNL     1      44.427 -14.047   7.043  1.00  0.00     0.335 C 
HETATM   22  N   UNL     1      44.942 -12.887   7.547  1.00  0.00    -0.338 N 
HETATM   23  O   UNL     1      44.221 -15.067   7.691  1.00  0.00    -0.246 OA
HETATM   24  H   UNL     1      45.374 -12.248   6.897  1.00  0.00     0.164 HD
HETATM   25  H   UNL     1      43.884 -13.013   5.364  1.00  0.00     0.192 HD
BRANCH  22  26
HETATM   26  C   UNL     1      45.360 -12.797   8.927  1.00  0.00     0.162 C 
BRANCH  26  27
HETATM   27  C   UNL     1      44.523 -11.786   9.663  1.00  0.00    -0.040 A 
HETATM   28  C   UNL     1      43.395 -11.227   9.045  1.00  0.00     0.009 A 
HETATM   29  C   UNL     1      42.624 -10.270   9.706  1.00  0.00     0.001 A 
HETATM   30  C   UNL     1      42.977  -9.858  10.990  1.00  0.00     0.000 A 
HETATM   31  C   UNL     1      44.102 -10.399  11.611  1.00  0.00     0.001 A 
HETATM   32  C   UNL     1      44.875 -11.357  10.950  1.00  0.00     0.009 A 
ENDBRANCH  26  27
ENDBRANCH  22  26
ENDBRANCH   2  20
TORSDOF 8
ENDMDL
MODEL 9
REMARK VINA RESULT:      -7.1      3.523      6.436
REMARK  8 active torsions:
REMARK  status: ('A' for Active; 'I' for Inactive)
REMARK    1  A    between atoms: C_4  and  C_5 
REMARK    2  A    between atoms: C_5  and  C_6 
REMARK    3  A    between atoms: C_10  and  S_11 
REMARK    4  A    between atoms: S_11  and  C_12 
REMARK    5  A    between atoms: C_12  and  C_13 
REMARK       I    between atoms: C_13  and  N_14 
REMARK    6  A    between atoms: N_14  and  N_15 
REMARK       I    between atoms: N_15  and  C_16 
REMARK       I    between atoms: C_16  and  N_17 
REMARK    7  A    between atoms: N_17  and  C_18 
REMARK    8  A    between atoms: C_18  and  C_19 
ROOT
HETATM    1  C   UNL     1      41.112 -12.797   3.043  1.00  0.00     0.245 C 
HETATM    2  N   UNL     1      41.246 -13.710   4.071  1.00  0.00    -0.265 N 
HETATM    3  O   UNL     1      41.611 -11.669   3.087  1.00  0.00    -0.271 OA
HETATM    4  H   UNL     1      40.533 -14.434   4.196  1.00  0.00     0.190 HD
ENDROOT
BRANCH   1   5
HETATM    5  C   UNL     1      40.253 -13.240   1.881  1.00  0.00     0.187 C 
BRANCH   5   6
HETATM    6  S   UNL     1      39.445 -14.809   2.265  1.00  0.00    -0.081 SA
BRANCH   6   7
HETATM    7  C   UNL     1      40.531 -16.036   1.719  1.00  0.00     0.185 A 
HETATM    8  N   UNL     1      40.192 -17.320   1.412  1.00  0.00    -0.254 N 
HETATM    9  N   UNL     1      41.282 -18.058   1.126  1.00  0.00    -0.157 NA
HETATM   10  H   UNL     1      39.278 -17.765   1.415  1.00  0.00     0.191 HD
HETATM   11  C   UNL     1      42.265 -17.167   1.333  1.00  0.00     0.153 A 
HETATM   12  N   UNL     1      41.833 -15.898   1.643  1.00  0.00    -0.206 NA
BRANCH  11  13
HETATM   13  C   UNL     1      43.706 -17.523   1.245  1.00  0.00     0.120 C 
BRANCH  13  14
HETATM   14  C   UNL     1      43.995 -18.378   2.458  1.00  0.00    -0.051 A 
HETATM   15  C   UNL     1      44.317 -19.738   2.319  1.00  0.00     0.007 A 
HETATM   16  C   UNL     1      44.552 -20.529   3.444  1.00  0.00     0.001 A 
HETATM   17  C   UNL     1      44.467 -19.973   4.720  1.00  0.00     0.000 A 
HETATM   18  C   UNL     1      44.146 -18.626   4.872  1.00  0.00     0.001 A 
HETATM   19  C   UNL     1      43.910 -17.833   3.748  1.00  0.00     0.007 A 
ENDBRANCH  13  14
ENDBRANCH  11  13
ENDBRANCH   6   7
ENDBRANCH   5   6
ENDBRANCH   1   5
BRANCH   2  20
HETATM   20  N   UNL     1      41.752 -13.194   5.293  1.00  0.00    -0.249 N 
HETATM   21  C   UNL     1      43.021 -13.615   5.641  1.00  0.00     0.335 C 
HETATM   22  N   UNL     1      43.316 -13.343   6.946  1.00  0.00    -0.338 N 
HETATM   23  O   UNL     1      43.769 -14.185   4.853  1.00  0.00    -0.246 OA
HETATM   24  H   UNL     1      42.799 -12.602   7.396  1.00  0.00     0.164 HD
HETATM   25  H   UNL     1      41.065 -13.177   6.047  1.00  0.00     0.192 HD
BRANCH  22  26
HETATM   26  C   UNL     1      44.611 -13.663   7.498  1.00  0.00     0.162 C 
BRANCH  26  27
HETATM   27  C   UNL     1      44.940 -12.735   8.636  1.00  0.00    -0.040 A 
HETATM   28  C   UNL     1      44.149 -12.738   9.794  1.00  0.00     0.009 A 
HETATM   29  C   UNL     1      44.428 -11.866  10.847  1.00  0.00     0.001 A 
HETATM   30  C   UNL     1      45.497 -10.977  10.750  1.00  0.00     0.000 A 
HETATM   31  C   UNL     1      46.284 -10.957   9.600  1.00  0.00     0.001 A 
HETATM   32  C   UNL     1      46.007 -11.830   8.545  1.00  0.00     0.009 A 
ENDBRANCH  26  27
ENDBRANCH  22  26
ENDBRANCH   2  20
TORSDOF 8
ENDMDL
MODEL 10
REMARK VINA RESULT:      -7.0      2.221      3.943
REMARK  8 active torsions:
REMARK  status: ('A' for Active; 'I' for Inactive)
REMARK    1  A    between atoms: C_4  and  C_5 
REMARK    2  A    between atoms: C_5  and  C_6 
REMARK    3  A    between atoms: C_10  and  S_11 
REMARK    4  A    between atoms: S_11  and  C_12 
REMARK    5  A    between atoms: C_12  and  C_13 
REMARK       I    between atoms: C_13  and  N_14 
REMARK    6  A    between atoms: N_14  and  N_15 
REMARK       I    between atoms: N_15  and  C_16 
REMARK       I    between atoms: C_16  and  N_17 
REMARK    7  A    between atoms: N_17  and  C_18 
REMARK    8  A    between atoms: C_18  and  C_19 
ROOT
HETATM    1  C   UNL     1      42.771 -13.655   5.192  1.00  0.00     0.245 C 
HETATM    2  N   UNL     1      42.421 -14.958   5.486  1.00  0.00    -0.265 N 
HETATM    3  O   UNL     1      43.522 -13.364   4.258  1.00  0.00    -0.271 OA
HETATM    4  H   UNL     1      42.152 -15.203   6.444  1.00  0.00     0.190 HD
ENDROOT
BRANCH   1   5
HETATM    5  C   UNL     1      42.227 -12.603   6.132  1.00  0.00     0.187 C 
BRANCH   5   6
HETATM    6  S   UNL     1      40.424 -12.563   6.049  1.00  0.00    -0.081 SA
BRANCH   6   7
HETATM    7  C   UNL     1      40.025 -12.968   4.418  1.00  0.00     0.185 A 
HETATM    8  N   UNL     1      39.726 -12.081   3.427  1.00  0.00    -0.254 N 
HETATM    9  N   UNL     1      39.350 -12.716   2.301  1.00  0.00    -0.157 NA
HETATM   10  H   UNL     1      39.716 -11.065   3.452  1.00  0.00     0.191 HD
HETATM   11  C   UNL     1      39.390 -13.998   2.695  1.00  0.00     0.153 A 
HETATM   12  N   UNL     1      39.856 -14.190   3.975  1.00  0.00    -0.206 NA
BRANCH  11  13
HETATM   13  C   UNL     1      38.955 -15.122   1.823  1.00  0.00     0.120 C 
BRANCH  13  14
HETATM   14  C   UNL     1      40.206 -15.917   1.521  1.00  0.00    -0.051 A 
HETATM   15  C   UNL     1      40.514 -17.077   2.250  1.00  0.00     0.007 A 
HETATM   16  C   UNL     1      41.686 -17.788   1.987  1.00  0.00     0.001 A 
HETATM   17  C   UNL     1      42.562 -17.350   0.996  1.00  0.00     0.000 A 
HETATM   18  C   UNL     1      42.269 -16.200   0.267  1.00  0.00     0.001 A 
HETATM   19  C   UNL     1      41.099 -15.485   0.529  1.00  0.00     0.007 A 
ENDBRANCH  13  14
ENDBRANCH  11  13
ENDBRANCH   6   7
ENDBRANCH   5   6
ENDBRANCH   1   5
BRANCH   2  20
HETATM   20  N   UNL     1      43.182 -15.964   4.835  1.00  0.00    -0.249 N 
HETATM   21  C   UNL     1      43.376 -17.127   5.555  1.00  0.00     0.335 C 
HETATM   22  N   UNL     1      44.357 -17.910   5.016  1.00  0.00    -0.338 N 
HETATM   23  O   UNL     1      42.742 -17.392   6.570  1.00  0.00    -0.246 OA
HETATM   24  H   UNL     1      44.572 -17.781   4.039  1.00  0.00     0.164 HD
HETATM   25  H   UNL     1      43.997 -15.605   4.339  1.00  0.00     0.192 HD
BRANCH  22  26
HETATM   26  C   UNL     1      44.686 -19.192   5.593  1.00  0.00     0.162 C 
BRANCH  26  27
HETATM   27  C   UNL     1      44.610 -20.272   4.548  1.00  0.00    -0.040 A 
HETATM   28  C   UNL     1      44.305 -19.942   3.220  1.00  0.00     0.009 A 
HETATM   29  C   UNL     1      44.207 -20.936   2.245  1.00  0.00     0.001 A 
HETATM   30  C   UNL     1      44.408 -22.271   2.590  1.00  0.00     0.000 A 
HETATM   31  C   UNL     1      44.702 -22.614   3.909  1.00  0.00     0.001 A 
HETATM   32  C   UNL     1      44.800 -21.620   4.886  1.00  0.00     0.009 A 
ENDBRANCH  26  27
ENDBRANCH  22  26
ENDBRANCH   2  20
TORSDOF 8
ENDMDL
