MODEL 1
REMARK VINA RESULT:      -9.0      0.000      0.000
REMARK  8 active torsions:
REMARK  status: ('A' for Active; 'I' for Inactive)
REMARK    1  A    between atoms: C_3  and  C_27 
REMARK       I    between atoms: N_12  and  C_13 
REMARK    2  A    between atoms: C_13  and  C_14 
REMARK    3  A    between atoms: C_14  and  O_15 
REMARK    4  A    between atoms: C_18  and  C_36 
REMARK    5  A    between atoms: O_19  and  C_36 
REMARK    6  A    between atoms: C_20  and  O_21 
REMARK    7  A    between atoms: C_27  and  C_28 
REMARK       I    between atoms: C_28  and  N_29 
REMARK    8  A    between atoms: N_29  and  C_30 
ROOT
HETATM    1  C           1      42.916 -13.875   2.363  0.00  0.00     0.016 C 
HETATM    2  C           1      42.063 -14.991   3.022  0.00  0.00    -0.030 C 
HETATM    3  C           1      41.492 -15.892   1.879  0.00  0.00     0.056 C 
HETATM    4  C           1      40.311 -15.195   1.275  0.00  0.00     0.056 A 
HETATM    5  C           1      39.356 -14.650   2.026  0.00  0.00     0.012 A 
HETATM    6  S           1      38.335 -14.032   1.177  0.00  0.00    -0.055 SA
HETATM    7  C           1      39.003 -14.412  -0.074  0.00  0.00     0.174 A 
HETATM    8  N           1      38.435 -14.057  -1.242  0.00  0.00    -0.304 N 
HETATM    9  C           1      38.870 -14.259  -2.519  0.00  0.00     0.247 C 
HETATM   10  O           1      39.906 -14.810  -2.795  0.00  0.00    -0.271 OA
HETATM   11  N           1      40.093 -15.043   0.046  0.00  0.00    -0.227 NA
HETATM   12  C           1      41.144 -14.320   5.456  0.00  0.00     0.008 C 
HETATM   13  C           1      42.633 -14.163   5.814  0.00  0.00     0.128 C 
HETATM   14  C           1      42.996 -15.849   3.900  0.00  0.00     0.013 C 
HETATM   15  H           1      37.555 -13.581  -1.108  0.00  0.00     0.171 HD
HETATM   16  C           1      40.599 -15.591   6.154  0.00  0.00     0.020 C 
HETATM   17  C           1      39.484 -14.711   3.516  0.00  0.00     0.055 C 
HETATM   18  C           1      40.936 -14.333   3.905  0.00  0.00     0.012 C 
HETATM   19  C           1      43.603 -15.094   5.086  0.00  0.00     0.033 C 
ENDROOT
BRANCH   3  20
HETATM   20  C           1      42.466 -16.377   0.783  0.00  0.00     0.114 C 
BRANCH  20  21
HETATM   21  C           1      43.514 -17.348   1.322  0.00  0.00     0.222 C 
HETATM   22  O           1      44.687 -17.079   1.276  0.00  0.00    -0.273 OA
HETATM   23  N           1      42.997 -18.493   1.850  0.00  0.00    -0.327 N 
HETATM   24  H           1      41.992 -18.593   1.847  0.00  0.00     0.169 HD
BRANCH  23  25
HETATM   25  C           1      43.552 -19.577   2.431  0.00  0.00     0.034 A 
HETATM   26  C           1      43.478 -20.719   1.721  0.00  0.00     0.029 A 
HETATM   27  C           1      43.985 -21.870   2.188  0.00  0.00     0.002 A 
HETATM   28  C           1      44.585 -21.896   3.386  0.00  0.00     0.000 A 
HETATM   29  C           1      44.672 -20.768   4.105  0.00  0.00     0.002 A 
HETATM   30  C           1      44.161 -19.619   3.629  0.00  0.00     0.029 A 
ENDBRANCH  23  25
ENDBRANCH  20  21
ENDBRANCH   3  20
BRANCH  12  31
HETATM   31  C           1      40.353 -13.129   6.057  0.00  0.00     0.176 C 
BRANCH  31  32
HETATM   32  O           1      39.499 -13.559   7.098  0.00  0.00    -0.400 OA
HETATM   33  H           1      39.203 -14.454   6.924  0.00  0.00     0.209 HD
ENDBRANCH  31  32
ENDBRANCH  12  31
BRANCH  13  34
HETATM   34  O           1      43.015 -12.820   5.616  0.00  0.00    -0.395 OA
HETATM   35  H           1      42.944 -12.367   6.461  0.00  0.00     0.210 HD
ENDBRANCH  13  34
BRANCH   9  36
HETATM   36  C           1      37.929 -13.716  -3.585  0.00  0.00     0.270 C 
BRANCH  36  37
HETATM   37  O           1      36.999 -14.706  -3.987  0.00  0.00    -0.387 OA
HETATM   38  C           1      35.948 -14.168  -4.760  0.00  0.00     0.202 C 
ENDBRANCH  36  37
ENDBRANCH   9  36
TORSDOF 8
ENDMDL
MODEL 2
REMARK VINA RESULT:      -8.7      2.846      6.484
REMARK  8 active torsions:
REMARK  status: ('A' for Active; 'I' for Inactive)
REMARK    1  A    between atoms: C_3  and  C_27 
REMARK       I    between atoms: N_12  and  C_13 
REMARK    2  A    between atoms: C_13  and  C_14 
REMARK    3  A    between atoms: C_14  and  O_15 
REMARK    4  A    between atoms: C_18  and  C_36 
REMARK    5  A    between atoms: O_19  and  C_36 
REMARK    6  A    between atoms: C_20  and  O_21 
REMARK    7  A    between atoms: C_27  and  C_28 
REMARK       I    between atoms: C_28  and  N_29 
REMARK    8  A    between atoms: N_29  and  C_30 
ROOT
HETATM    1  C           1      39.089 -14.710   1.431  0.00  0.00     0.016 C 
HETATM    2  C           1      40.370 -14.328   0.643  0.00  0.00    -0.030 C 
HETATM    3  C           1      41.513 -15.297   1.093  0.00  0.00     0.056 C 
HETATM    4  C           1      42.046 -14.817   2.408  0.00  0.00     0.056 A 
HETATM    5  C           1      42.344 -13.537   2.623  0.00  0.00     0.012 A 
HETATM    6  S           1      42.834 -13.354   3.991  0.00  0.00    -0.055 SA
HETATM    7  C           1      42.711 -14.776   4.333  0.00  0.00     0.174 A 
HETATM    8  N           1      43.059 -15.175   5.571  0.00  0.00    -0.304 N 
HETATM    9  C           1      43.004 -16.417   6.133  0.00  0.00     0.247 C 
HETATM   10  O           1      42.593 -17.395   5.561  0.00  0.00    -0.271 OA
HETATM   11  N           1      42.262 -15.531   3.421  0.00  0.00    -0.227 NA
HETATM   12  C           1      40.362 -11.782  -0.216  0.00  0.00     0.008 C 
HETATM   13  C           1      39.080 -12.193  -0.964  0.00  0.00     0.128 C 
HETATM   14  C           1      40.096 -14.559  -0.856  0.00  0.00     0.013 C 
HETATM   15  H           1      43.415 -14.413   6.130  0.00  0.00     0.171 HD
HETATM   16  C           1      41.501 -11.598  -1.249  0.00  0.00     0.020 C 
HETATM   17  C           1      42.108 -12.546   1.527  0.00  0.00     0.055 C 
HETATM   18  C           1      40.712 -12.812   0.909  0.00  0.00     0.012 C 
HETATM   19  C           1      39.014 -13.645  -1.439  0.00  0.00     0.033 C 
ENDROOT
BRANCH   3  20
HETATM   20  C           1      41.204 -16.809   1.141  0.00  0.00     0.114 C 
BRANCH  20  21
HETATM   21  C           1      42.469 -17.660   1.213  0.00  0.00     0.222 C 
HETATM   22  O           1      43.425 -17.407   0.527  0.00  0.00    -0.273 OA
HETATM   23  N           1      42.402 -18.685   2.110  0.00  0.00    -0.327 N 
HETATM   24  H           1      41.549 -18.783   2.640  0.00  0.00     0.169 HD
BRANCH  23  25
HETATM   25  C           1      43.276 -19.640   2.489  0.00  0.00     0.034 A 
HETATM   26  C           1      43.213 -20.794   1.798  0.00  0.00     0.029 A 
HETATM   27  C           1      44.022 -21.826   2.080  0.00  0.00     0.002 A 
HETATM   28  C           1      44.921 -21.718   3.068  0.00  0.00     0.000 A 
HETATM   29  C           1      45.002 -20.574   3.763  0.00  0.00     0.002 A 
HETATM   30  C           1      44.187 -19.546   3.475  0.00  0.00     0.029 A 
ENDBRANCH  23  25
ENDBRANCH  20  21
ENDBRANCH   3  20
BRANCH  12  31
HETATM   31  C           1      40.142 -10.390   0.432  0.00  0.00     0.176 C 
BRANCH  31  32
HETATM   32  O           1      39.424 -10.502   1.645  0.00  0.00    -0.400 OA
HETATM   33  H           1      39.975 -10.212   2.374  0.00  0.00     0.209 HD
ENDBRANCH  31  32
ENDBRANCH  12  31
BRANCH  13  34
HETATM   34  O           1      37.962 -11.898  -0.158  0.00  0.00    -0.395 OA
HETATM   35  H           1      37.469 -12.714  -0.032  0.00  0.00     0.210 HD
ENDBRANCH  13  34
BRANCH   9  36
HETATM   36  C           1      43.507 -16.466   7.569  0.00  0.00     0.270 C 
BRANCH  36  37
HETATM   37  O           1      43.135 -17.682   8.192  0.00  0.00    -0.387 OA
HETATM   38  C           1      44.230 -18.556   8.354  0.00  0.00     0.202 C 
ENDBRANCH  36  37
ENDBRANCH   9  36
TORSDOF 8
ENDMDL
MODEL 3
REMARK VINA RESULT:      -8.3      2.431      6.546
REMARK  8 active torsions:
REMARK  status: ('A' for Active; 'I' for Inactive)
REMARK    1  A    between atoms: C_3  and  C_27 
REMARK       I    between atoms: N_12  and  C_13 
REMARK    2  A    between atoms: C_13  and  C_14 
REMARK    3  A    between atoms: C_14  and  O_15 
REMARK    4  A    between atoms: C_18  and  C_36 
REMARK    5  A    between atoms: O_19  and  C_36 
REMARK    6  A    between atoms: C_20  and  O_21 
REMARK    7  A    between atoms: C_27  and  C_28 
REMARK       I    between atoms: C_28  and  N_29 
REMARK    8  A    between atoms: N_29  and  C_30 
ROOT
HETATM    1  C           1      39.184 -14.690  -0.593  0.00  0.00     0.016 C 
HETATM    2  C           1      40.694 -14.356  -0.726  0.00  0.00    -0.030 C 
HETATM    3  C           1      41.380 -14.703   0.635  0.00  0.00     0.056 C 
HETATM    4  C           1      41.107 -13.587   1.598  0.00  0.00     0.056 A 
HETATM    5  C           1      41.258 -12.310   1.256  0.00  0.00     0.012 A 
HETATM    6  S           1      40.915 -11.440   2.384  0.00  0.00    -0.055 SA
HETATM    7  C           1      40.598 -12.559   3.280  0.00  0.00     0.174 A 
HETATM    8  N           1      40.197 -12.286   4.536  0.00  0.00    -0.304 N 
HETATM    9  C           1      39.819 -13.136   5.534  0.00  0.00     0.247 C 
HETATM   10  O           1      39.776 -14.335   5.413  0.00  0.00    -0.271 OA
HETATM   11  N           1      40.714 -13.718   2.786  0.00  0.00    -0.227 NA
HETATM   12  C           1      41.206 -12.520  -2.619  0.00  0.00     0.008 C 
HETATM   13  C           1      40.544 -13.532  -3.573  0.00  0.00     0.128 C 
HETATM   14  C           1      41.289 -15.266  -1.819  0.00  0.00     0.013 C 
HETATM   15  H           1      40.199 -11.295   4.729  0.00  0.00     0.171 HD
HETATM   16  C           1      42.729 -12.500  -2.899  0.00  0.00     0.020 C 
HETATM   17  C           1      41.685 -11.980  -0.139  0.00  0.00     0.055 C 
HETATM   18  C           1      40.859 -12.841  -1.128  0.00  0.00     0.012 C 
HETATM   19  C           1      40.725 -15.008  -3.219  0.00  0.00     0.033 C 
ENDROOT
BRANCH   3  20
HETATM   20  C           1      41.070 -16.073   1.276  0.00  0.00     0.114 C 
BRANCH  20  21
HETATM   21  C           1      42.311 -16.955   1.397  0.00  0.00     0.222 C 
HETATM   22  O           1      43.305 -16.714   0.761  0.00  0.00    -0.273 OA
HETATM   23  N           1      42.178 -17.989   2.274  0.00  0.00    -0.327 N 
HETATM   24  H           1      41.298 -18.074   2.762  0.00  0.00     0.169 HD
BRANCH  23  25
HETATM   25  C           1      43.011 -18.969   2.682  0.00  0.00     0.034 A 
HETATM   26  C           1      43.116 -20.025   1.853  0.00  0.00     0.029 A 
HETATM   27  C           1      43.905 -21.070   2.144  0.00  0.00     0.002 A 
HETATM   28  C           1      44.614 -21.074   3.282  0.00  0.00     0.000 A 
HETATM   29  C           1      44.525 -20.029   4.117  0.00  0.00     0.002 A 
HETATM   30  C           1      43.732 -18.987   3.817  0.00  0.00     0.029 A 
ENDBRANCH  23  25
ENDBRANCH  20  21
ENDBRANCH   3  20
BRANCH  12  31
HETATM   31  C           1      40.689 -11.097  -2.958  0.00  0.00     0.176 C 
BRANCH  31  32
HETATM   32  O           1      40.726 -10.862  -4.352  0.00  0.00    -0.400 OA
HETATM   33  H           1      39.906 -10.449  -4.632  0.00  0.00     0.209 HD
ENDBRANCH  31  32
ENDBRANCH  12  31
BRANCH  13  34
HETATM   34  O           1      39.172 -13.228  -3.686  0.00  0.00    -0.395 OA
HETATM   35  H           1      38.848 -13.007  -2.807  0.00  0.00     0.210 HD
ENDBRANCH  13  34
BRANCH   9  36
HETATM   36  C           1      39.444 -12.436   6.832  0.00  0.00     0.270 C 
BRANCH  36  37
HETATM   37  O           1      39.094 -11.085   6.593  0.00  0.00    -0.387 OA
HETATM   38  C           1      39.543 -10.227   7.619  0.00  0.00     0.202 C 
ENDBRANCH  36  37
ENDBRANCH   9  36
TORSDOF 8
ENDMDL
MODEL 4
REMARK VINA RESULT:      -8.2      2.629      6.674
REMARK  8 active torsions:
REMARK  status: ('A' for Active; 'I' for Inactive)
REMARK    1  A    between atoms: C_3  and  C_27 
REMARK       I    between atoms: N_12  and  C_13 
REMARK    2  A    between atoms: C_13  and  C_14 
REMARK    3  A    between atoms: C_14  and  O_15 
REMARK    4  A    between atoms: C_18  and  C_36 
REMARK    5  A    between atoms: O_19  and  C_36 
REMARK    6  A    between atoms: C_20  and  O_21 
REMARK    7  A    between atoms: C_27  and  C_28 
REMARK       I    between atoms: C_28  and  N_29 
REMARK    8  A    between atoms: N_29  and  C_30 
ROOT
HETATM    1  C           1      39.485 -14.891   1.218  0.00  0.00     0.016 C 
HETATM    2  C           1      40.856 -14.325   0.761  0.00  0.00    -0.030 C 
HETATM    3  C           1      41.673 -13.962   2.043  0.00  0.00     0.056 C 
HETATM    4  C           1      41.178 -12.644   2.559  0.00  0.00     0.056 A 
HETATM    5  C           1      40.990 -11.600   1.755  0.00  0.00     0.012 A 
HETATM    6  S           1      40.496 -10.453   2.523  0.00  0.00    -0.055 SA
HETATM    7  C           1      40.512 -11.175   3.801  0.00  0.00     0.174 A 
HETATM    8  N           1      40.118 -10.526   4.914  0.00  0.00    -0.304 N 
HETATM    9  C           1      40.013 -10.980   6.196  0.00  0.00     0.247 C 
HETATM   10  O           1      40.264 -12.111   6.529  0.00  0.00    -0.271 OA
HETATM   11  N           1      40.889 -12.382   3.755  0.00  0.00    -0.227 NA
HETATM   12  C           1      40.801 -13.308  -1.725  0.00  0.00     0.008 C 
HETATM   13  C           1      40.366 -14.726  -2.139  0.00  0.00     0.128 C 
HETATM   14  C           1      41.605 -15.441   0.005  0.00  0.00     0.013 C 
HETATM   15  H           1      39.883  -9.562   4.728  0.00  0.00     0.171 HD
HETATM   16  C           1      42.256 -13.077  -2.204  0.00  0.00     0.020 C 
HETATM   17  C           1      41.252 -11.757   0.291  0.00  0.00     0.055 C 
HETATM   18  C           1      40.619 -13.088  -0.186  0.00  0.00     0.012 C 
HETATM   19  C           1      40.926 -15.873  -1.298  0.00  0.00     0.033 C 
ENDROOT
BRANCH   3  20
HETATM   20  C           1      41.745 -15.006   3.178  0.00  0.00     0.114 C 
BRANCH  20  21
HETATM   21  C           1      42.848 -16.038   2.951  0.00  0.00     0.222 C 
HETATM   22  O           1      43.967 -15.695   2.666  0.00  0.00    -0.273 OA
HETATM   23  N           1      42.447 -17.331   3.113  0.00  0.00    -0.327 N 
HETATM   24  H           1      41.483 -17.488   3.372  0.00  0.00     0.169 HD
BRANCH  23  25
HETATM   25  C           1      43.085 -18.516   3.026  0.00  0.00     0.034 A 
HETATM   26  C           1      43.835 -18.853   4.093  0.00  0.00     0.029 A 
HETATM   27  C           1      44.526 -20.002   4.130  0.00  0.00     0.002 A 
HETATM   28  C           1      44.475 -20.845   3.089  0.00  0.00     0.000 A 
HETATM   29  C           1      43.729 -20.528   2.020  0.00  0.00     0.002 A 
HETATM   30  C           1      43.041 -19.374   1.991  0.00  0.00     0.029 A 
ENDBRANCH  23  25
ENDBRANCH  20  21
ENDBRANCH   3  20
BRANCH  12  31
HETATM   31  C           1      39.931 -12.273  -2.485  0.00  0.00     0.176 C 
BRANCH  31  32
HETATM   32  O           1      39.812 -12.614  -3.852  0.00  0.00    -0.400 OA
HETATM   33  H           1      40.669 -12.547  -4.277  0.00  0.00     0.209 HD
ENDBRANCH  31  32
ENDBRANCH  12  31
BRANCH  13  34
HETATM   34  O           1      38.958 -14.787  -2.160  0.00  0.00    -0.395 OA
HETATM   35  H           1      38.666 -15.104  -1.300  0.00  0.00     0.210 HD
ENDBRANCH  13  34
BRANCH   9  36
HETATM   36  C           1      39.540  -9.926   7.186  0.00  0.00     0.270 C 
BRANCH  36  37
HETATM   37  O           1      38.777 -10.515   8.223  0.00  0.00    -0.387 OA
HETATM   38  C           1      39.347 -10.298   9.495  0.00  0.00     0.202 C 
ENDBRANCH  36  37
ENDBRANCH   9  36
TORSDOF 8
ENDMDL
MODEL 5
REMARK VINA RESULT:      -8.1      2.145      2.308
REMARK  8 active torsions:
REMARK  status: ('A' for Active; 'I' for Inactive)
REMARK    1  A    between atoms: C_3  and  C_27 
REMARK       I    between atoms: N_12  and  C_13 
REMARK    2  A    between atoms: C_13  and  C_14 
REMARK    3  A    between atoms: C_14  and  O_15 
REMARK    4  A    between atoms: C_18  and  C_36 
REMARK    5  A    between atoms: O_19  and  C_36 
REMARK    6  A    between atoms: C_20  and  O_21 
REMARK    7  A    between atoms: C_27  and  C_28 
REMARK       I    between atoms: C_28  and  N_29 
REMARK    8  A    between atoms: N_29  and  C_30 
ROOT
HETATM    1  C           1      43.761 -14.314   3.217  0.00  0.00     0.016 C 
HETATM    2  C           1      42.308 -14.826   3.398  0.00  0.00    -0.030 C 
HETATM    3  C           1      41.796 -15.312   2.002  0.00  0.00     0.056 C 
HETATM    4  C           1      41.390 -14.110   1.205  0.00  0.00     0.056 A 
HETATM    5  C           1      40.632 -13.145   1.723  0.00  0.00     0.012 A 
HETATM    6  S           1      40.399 -12.095   0.728  0.00  0.00    -0.055 SA
HETATM    7  C           1      41.175 -12.774  -0.316  0.00  0.00     0.174 A 
HETATM    8  N           1      41.286 -12.185  -1.523  0.00  0.00    -0.304 N 
HETATM    9  C           1      41.971 -12.593  -2.630  0.00  0.00     0.247 C 
HETATM   10  O           1      42.629 -13.601  -2.679  0.00  0.00    -0.271 OA
HETATM   11  N           1      41.704 -13.876   0.010  0.00  0.00    -0.227 NA
HETATM   12  C           1      41.071 -13.759   5.531  0.00  0.00     0.008 C 
HETATM   13  C           1      42.225 -14.390   6.332  0.00  0.00     0.128 C 
HETATM   14  C           1      42.343 -16.035   4.353  0.00  0.00     0.013 C 
HETATM   15  H           1      40.764 -11.323  -1.574  0.00  0.00     0.171 HD
HETATM   16  C           1      39.777 -14.562   5.813  0.00  0.00     0.020 C 
HETATM   17  C           1      40.201 -13.253   3.152  0.00  0.00     0.055 C 
HETATM   18  C           1      41.422 -13.674   4.008  0.00  0.00     0.012 C 
HETATM   19  C           1      42.798 -15.693   5.775  0.00  0.00     0.033 C 
ENDROOT
BRANCH   3  20
HETATM   20  C           1      42.715 -16.237   1.175  0.00  0.00     0.114 C 
BRANCH  20  21
HETATM   21  C           1      42.525 -17.711   1.526  0.00  0.00     0.222 C 
HETATM   22  O           1      41.456 -18.248   1.388  0.00  0.00    -0.273 OA
HETATM   23  N           1      43.654 -18.328   1.978  0.00  0.00    -0.327 N 
HETATM   24  H           1      44.496 -17.773   2.032  0.00  0.00     0.169 HD
BRANCH  23  25
HETATM   25  C           1      43.924 -19.590   2.372  0.00  0.00     0.034 A 
HETATM   26  C           1      44.440 -19.715   3.610  0.00  0.00     0.029 A 
HETATM   27  C           1      44.760 -20.914   4.119  0.00  0.00     0.002 A 
HETATM   28  C           1      44.562 -22.022   3.390  0.00  0.00     0.000 A 
HETATM   29  C           1      44.044 -21.916   2.158  0.00  0.00     0.002 A 
HETATM   30  C           1      43.728 -20.711   1.655  0.00  0.00     0.029 A 
ENDBRANCH  23  25
ENDBRANCH  20  21
ENDBRANCH   3  20
BRANCH  12  31
HETATM   31  C           1      40.812 -12.326   6.065  0.00  0.00     0.176 C 
BRANCH  31  32
HETATM   32  O           1      39.939 -12.349   7.177  0.00  0.00    -0.400 OA
HETATM   33  H           1      40.052 -13.169   7.661  0.00  0.00     0.209 HD
ENDBRANCH  31  32
ENDBRANCH  12  31
BRANCH  13  34
HETATM   34  O           1      43.254 -13.437   6.484  0.00  0.00    -0.395 OA
HETATM   35  H           1      42.886 -12.681   6.950  0.00  0.00     0.210 HD
ENDBRANCH  13  34
BRANCH   9  36
HETATM   36  C           1      41.838 -11.650  -3.818  0.00  0.00     0.270 C 
BRANCH  36  37
HETATM   37  O           1      40.514 -11.655  -4.320  0.00  0.00    -0.387 OA
HETATM   38  C           1      40.002 -10.352  -4.488  0.00  0.00     0.202 C 
ENDBRANCH  36  37
ENDBRANCH   9  36
TORSDOF 8
ENDMDL
MODEL 6
REMARK VINA RESULT:      -7.9      4.784      7.910
REMARK  8 active torsions:
REMARK  status: ('A' for Active; 'I' for Inactive)
REMARK    1  A    between atoms: C_3  and  C_27 
REMARK       I    between atoms: N_12  and  C_13 
REMARK    2  A    between atoms: C_13  and  C_14 
REMARK    3  A    between atoms: C_14  and  O_15 
REMARK    4  A    between atoms: C_18  and  C_36 
REMARK    5  A    between atoms: O_19  and  C_36 
REMARK    6  A    between atoms: C_20  and  O_21 
REMARK    7  A    between atoms: C_27  and  C_28 
REMARK       I    between atoms: C_28  and  N_29 
REMARK    8  A    between atoms: N_29  and  C_30 
ROOT
HETATM    1  C           1      39.369 -13.801   6.042  0.00  0.00     0.016 C 
HETATM    2  C           1      40.533 -13.194   5.214  0.00  0.00    -0.030 C 
HETATM    3  C           1      40.439 -11.637   5.331  0.00  0.00     0.056 C 
HETATM    4  C           1      39.375 -11.158   4.390  0.00  0.00     0.056 A 
HETATM    5  C           1      39.304 -11.585   3.131  0.00  0.00     0.012 A 
HETATM    6  S           1      38.168 -10.961   2.448  0.00  0.00    -0.055 SA
HETATM    7  C           1      37.762 -10.180   3.623  0.00  0.00     0.174 A 
HETATM    8  N           1      36.686  -9.376   3.524  0.00  0.00    -0.304 N 
HETATM    9  C           1      36.098  -8.587   4.469  0.00  0.00     0.247 C 
HETATM   10  O           1      36.481  -8.507   5.609  0.00  0.00    -0.271 OA
HETATM   11  N           1      38.461 -10.338   4.666  0.00  0.00    -0.227 NA
HETATM   12  C           1      41.421 -14.835   3.281  0.00  0.00     0.008 C 
HETATM   13  C           1      41.713 -15.805   4.441  0.00  0.00     0.128 C 
HETATM   14  C           1      41.860 -13.652   5.850  0.00  0.00     0.013 C 
HETATM   15  H           1      36.292  -9.382   2.594  0.00  0.00     0.171 HD
HETATM   16  C           1      42.767 -14.290   2.741  0.00  0.00     0.020 C 
HETATM   17  C           1      40.298 -12.595   2.653  0.00  0.00     0.055 C 
HETATM   18  C           1      40.435 -13.704   3.726  0.00  0.00     0.012 C 
HETATM   19  C           1      42.098 -15.163   5.774  0.00  0.00     0.033 C 
ENDROOT
BRANCH   3  20
HETATM   20  C           1      40.250 -11.026   6.735  0.00  0.00     0.114 C 
BRANCH  20  21
HETATM   21  C           1      41.558 -10.499   7.323  0.00  0.00     0.222 C 
HETATM   22  O           1      42.066  -9.493   6.899  0.00  0.00    -0.273 OA
HETATM   23  N           1      42.056 -11.253   8.344  0.00  0.00    -0.327 N 
HETATM   24  H           1      41.525 -12.067   8.621  0.00  0.00     0.169 HD
BRANCH  23  25
HETATM   25  C           1      43.146 -11.142   9.130  0.00  0.00     0.034 A 
HETATM   26  C           1      44.233 -11.822   8.717  0.00  0.00     0.029 A 
HETATM   27  C           1      45.380 -11.800   9.411  0.00  0.00     0.002 A 
HETATM   28  C           1      45.461 -11.086  10.543  0.00  0.00     0.000 A 
HETATM   29  C           1      44.391 -10.399  10.966  0.00  0.00     0.002 A 
HETATM   30  C           1      43.245 -10.426  10.264  0.00  0.00     0.029 A 
ENDBRANCH  23  25
ENDBRANCH  20  21
ENDBRANCH   3  20
BRANCH  12  31
HETATM   31  C           1      40.779 -15.627   2.112  0.00  0.00     0.176 C 
BRANCH  31  32
HETATM   32  O           1      39.400 -15.839   2.339  0.00  0.00    -0.400 OA
HETATM   33  H           1      39.234 -15.911   3.281  0.00  0.00     0.209 HD
ENDBRANCH  31  32
ENDBRANCH  12  31
BRANCH  13  34
HETATM   34  O           1      40.603 -16.656   4.619  0.00  0.00    -0.395 OA
HETATM   35  H           1      39.841 -16.105   4.822  0.00  0.00     0.210 HD
ENDBRANCH  13  34
BRANCH   9  36
HETATM   36  C           1      34.895  -7.807   3.959  0.00  0.00     0.270 C 
BRANCH  36  37
HETATM   37  O           1      33.776  -7.996   4.806  0.00  0.00    -0.387 OA
HETATM   38  C           1      33.172  -9.257   4.619  0.00  0.00     0.202 C 
ENDBRANCH  36  37
ENDBRANCH   9  36
TORSDOF 8
ENDMDL
MODEL 7
REMARK VINA RESULT:      -7.6      3.231      8.812
REMARK  8 active torsions:
REMARK  status: ('A' for Active; 'I' for Inactive)
REMARK    1  A    between atoms: C_3  and  C_27 
REMARK       I    between atoms: N_12  and  C_13 
REMARK    2  A    between atoms: C_13  and  C_14 
REMARK    3  A    between atoms: C_14  and  O_15 
REMARK    4  A    between atoms: C_18  and  C_36 
REMARK    5  A    between atoms: O_19  and  C_36 
REMARK    6  A    between atoms: C_20  and  O_21 
REMARK    7  A    between atoms: C_27  and  C_28 
REMARK       I    between atoms: C_28  and  N_29 
REMARK    8  A    between atoms: N_29  and  C_30 
ROOT
HETATM    1  C           1      41.710 -12.508   2.661  0.00  0.00     0.016 C 
HETATM    2  C           1      40.303 -13.136   2.847  0.00  0.00    -0.030 C 
HETATM    3  C           1      40.327 -13.978   4.164  0.00  0.00     0.056 C 
HETATM    4  C           1      40.993 -15.288   3.873  0.00  0.00     0.056 A 
HETATM    5  C           1      40.678 -16.016   2.804  0.00  0.00     0.012 A 
HETATM    6  S           1      41.486 -17.237   2.766  0.00  0.00    -0.055 SA
HETATM    7  C           1      42.200 -16.922   4.010  0.00  0.00     0.174 A 
HETATM    8  N           1      43.129 -17.789   4.457  0.00  0.00    -0.304 N 
HETATM    9  C           1      43.940 -17.708   5.552  0.00  0.00     0.247 C 
HETATM   10  O           1      43.944 -16.775   6.316  0.00  0.00    -0.271 OA
HETATM   11  N           1      41.890 -15.830   4.569  0.00  0.00    -0.227 NA
HETATM   12  C           1      38.944 -13.380   0.543  0.00  0.00     0.008 C 
HETATM   13  C           1      39.111 -11.851   0.452  0.00  0.00     0.128 C 
HETATM   14  C           1      39.288 -11.988   3.019  0.00  0.00     0.013 C 
HETATM   15  H           1      43.199 -18.608   3.871  0.00  0.00     0.171 HD
HETATM   16  C           1      37.463 -13.698   0.865  0.00  0.00     0.020 C 
HETATM   17  C           1      39.651 -15.492   1.850  0.00  0.00     0.055 C 
HETATM   18  C           1      39.945 -13.996   1.576  0.00  0.00     0.012 C 
HETATM   19  C           1      39.139 -11.098   1.782  0.00  0.00     0.033 C 
ENDROOT
BRANCH   3  20
HETATM   20  C           1      40.922 -13.326   5.431  0.00  0.00     0.114 C 
BRANCH  20  21
HETATM   21  C           1      39.870 -12.589   6.257  0.00  0.00     0.222 C 
HETATM   22  O           1      38.703 -12.873   6.168  0.00  0.00    -0.273 OA
HETATM   23  N           1      40.377 -11.626   7.078  0.00  0.00    -0.327 N 
HETATM   24  H           1      41.379 -11.494   7.075  0.00  0.00     0.169 HD
BRANCH  23  25
HETATM   25  C           1      39.817 -10.775   7.962  0.00  0.00     0.034 A 
HETATM   26  C           1      39.471  -9.570   7.470  0.00  0.00     0.029 A 
HETATM   27  C           1      38.911  -8.629   8.246  0.00  0.00     0.002 A 
HETATM   28  C           1      38.683  -8.884   9.542  0.00  0.00     0.000 A 
HETATM   29  C           1      39.017 -10.080  10.048  0.00  0.00     0.002 A 
HETATM   30  C           1      39.577 -11.016   9.263  0.00  0.00     0.029 A 
ENDBRANCH  23  25
ENDBRANCH  20  21
ENDBRANCH   3  20
BRANCH  12  31
HETATM   31  C           1      39.221 -13.999  -0.852  0.00  0.00     0.176 C 
BRANCH  31  32
HETATM   32  O           1      38.017 -14.378  -1.488  0.00  0.00    -0.400 OA
HETATM   33  H           1      37.360 -13.689  -1.373  0.00  0.00     0.209 HD
ENDBRANCH  31  32
ENDBRANCH  12  31
BRANCH  13  34
HETATM   34  O           1      40.271 -11.559  -0.293  0.00  0.00    -0.395 OA
HETATM   35  H           1      40.333 -12.203  -1.005  0.00  0.00     0.210 HD
ENDBRANCH  13  34
BRANCH   9  36
HETATM   36  C           1      44.857 -18.909   5.730  0.00  0.00     0.270 C 
BRANCH  36  37
HETATM   37  O           1      44.791 -19.765   4.604  0.00  0.00    -0.387 OA
HETATM   38  C           1      44.838 -21.127   4.965  0.00  0.00     0.202 C 
ENDBRANCH  36  37
ENDBRANCH   9  36
TORSDOF 8
ENDMDL
MODEL 8
REMARK VINA RESULT:      -7.5      2.639      7.855
REMARK  8 active torsions:
REMARK  status: ('A' for Active; 'I' for Inactive)
REMARK    1  A    between atoms: C_3  and  C_27 
REMARK       I    between atoms: N_12  and  C_13 
REMARK    2  A    between atoms: C_13  and  C_14 
REMARK    3  A    between atoms: C_14  and  O_15 
REMARK    4  A    between atoms: C_18  and  C_36 
REMARK    5  A    between atoms: O_19  and  C_36 
REMARK    6  A    between atoms: C_20  and  O_21 
REMARK    7  A    between atoms: C_27  and  C_28 
REMARK       I    between atoms: C_28  and  N_29 
REMARK    8  A    between atoms: N_29  and  C_30 
ROOT
HETATM    1  C           1      42.072 -12.925   0.726  0.00  0.00     0.016 C 
HETATM    2  C           1      40.775 -12.982   1.576  0.00  0.00    -0.030 C 
HETATM    3  C           1      41.122 -13.690   2.927  0.00  0.00     0.056 C 
HETATM    4  C           1      41.159 -15.169   2.687  0.00  0.00     0.056 A 
HETATM    5  C           1      40.201 -15.796   2.008  0.00  0.00     0.012 A 
HETATM    6  S           1      40.498 -17.228   1.921  0.00  0.00    -0.055 SA
HETATM    7  C           1      41.744 -17.119   2.688  0.00  0.00     0.174 A 
HETATM    8  N           1      42.464 -18.235   2.911  0.00  0.00    -0.304 N 
HETATM    9  C           1      43.656 -18.387   3.558  0.00  0.00     0.247 C 
HETATM   10  O           1      44.279 -17.475   4.040  0.00  0.00    -0.271 OA
HETATM   11  N           1      42.060 -15.956   3.075  0.00  0.00    -0.227 NA
HETATM   12  C           1      38.537 -12.857   0.096  0.00  0.00     0.008 C 
HETATM   13  C           1      39.100 -11.504  -0.378  0.00  0.00     0.128 C 
HETATM   14  C           1      40.341 -11.535   1.881  0.00  0.00     0.013 C 
HETATM   15  H           1      42.017 -19.058   2.535  0.00  0.00     0.171 HD
HETATM   16  C           1      37.332 -12.590   1.032  0.00  0.00     0.020 C 
HETATM   17  C           1      39.071 -14.995   1.444  0.00  0.00     0.055 C 
HETATM   18  C           1      39.651 -13.730   0.763  0.00  0.00     0.012 C 
HETATM   19  C           1      39.939 -10.731   0.640  0.00  0.00     0.033 C 
ENDROOT
BRANCH   3  20
HETATM   20  C           1      42.380 -13.222   3.689  0.00  0.00     0.114 C 
BRANCH  20  21
HETATM   21  C           1      42.147 -13.122   5.194  0.00  0.00     0.222 C 
HETATM   22  O           1      42.469 -14.018   5.931  0.00  0.00    -0.273 OA
HETATM   23  N           1      41.572 -11.952   5.594  0.00  0.00    -0.327 N 
HETATM   24  H           1      41.366 -11.269   4.880  0.00  0.00     0.169 HD
BRANCH  23  25
HETATM   25  C           1      41.217 -11.460   6.799  0.00  0.00     0.034 A 
HETATM   26  C           1      39.931 -11.651   7.150  0.00  0.00     0.029 A 
HETATM   27  C           1      39.449 -11.205   8.319  0.00  0.00     0.002 A 
HETATM   28  C           1      40.256 -10.555   9.169  0.00  0.00     0.000 A 
HETATM   29  C           1      41.541 -10.361   8.839  0.00  0.00     0.002 A 
HETATM   30  C           1      42.016 -10.811   7.665  0.00  0.00     0.029 A 
ENDBRANCH  23  25
ENDBRANCH  20  21
ENDBRANCH   3  20
BRANCH  12  31
HETATM   31  C           1      37.968 -13.621  -1.128  0.00  0.00     0.176 C 
BRANCH  31  32
HETATM   32  O           1      38.960 -14.432  -1.726  0.00  0.00    -0.400 OA
HETATM   33  H           1      38.701 -14.649  -2.624  0.00  0.00     0.209 HD
ENDBRANCH  31  32
ENDBRANCH  12  31
BRANCH  13  34
HETATM   34  O           1      39.841 -11.703  -1.561  0.00  0.00    -0.395 OA
HETATM   35  H           1      39.963 -12.651  -1.674  0.00  0.00     0.210 HD
ENDBRANCH  13  34
BRANCH   9  36
HETATM   36  C           1      44.146 -19.827   3.616  0.00  0.00     0.270 C 
BRANCH  36  37
HETATM   37  O           1      43.750 -20.542   2.460  0.00  0.00    -0.387 OA
HETATM   38  C           1      44.259 -21.857   2.444  0.00  0.00     0.202 C 
ENDBRANCH  36  37
ENDBRANCH   9  36
TORSDOF 8
ENDMDL
MODEL 9
REMARK VINA RESULT:      -7.5      2.642      8.062
REMARK  8 active torsions:
REMARK  status: ('A' for Active; 'I' for Inactive)
REMARK    1  A    between atoms: C_3  and  C_27 
REMARK       I    between atoms: N_12  and  C_13 
REMARK    2  A    between atoms: C_13  and  C_14 
REMARK    3  A    between atoms: C_14  and  O_15 
REMARK    4  A    between atoms: C_18  and  C_36 
REMARK    5  A    between atoms: O_19  and  C_36 
REMARK    6  A    between atoms: C_20  and  O_21 
REMARK    7  A    between atoms: C_27  and  C_28 
REMARK       I    between atoms: C_28  and  N_29 
REMARK    8  A    between atoms: N_29  and  C_30 
ROOT
HETATM    1  C           1      42.494 -14.366   1.969  0.00  0.00     0.016 C 
HETATM    2  C           1      41.465 -15.527   1.999  0.00  0.00    -0.030 C 
HETATM    3  C           1      40.114 -14.953   2.537  0.00  0.00     0.056 C 
HETATM    4  C           1      40.206 -14.852   4.029  0.00  0.00     0.056 A 
HETATM    5  C           1      40.674 -15.850   4.775  0.00  0.00     0.012 A 
HETATM    6  S           1      40.658 -15.475   6.191  0.00  0.00    -0.055 SA
HETATM    7  C           1      40.092 -14.145   5.935  0.00  0.00     0.174 A 
HETATM    8  N           1      39.863 -13.328   6.982  0.00  0.00    -0.304 N 
HETATM    9  C           1      39.382 -12.052   7.002  0.00  0.00     0.247 C 
HETATM   10  O           1      39.088 -11.430   6.012  0.00  0.00    -0.271 OA
HETATM   11  N           1      39.873 -13.856   4.723  0.00  0.00    -0.227 NA
HETATM   12  C           1      42.615 -17.951   2.151  0.00  0.00     0.008 C 
HETATM   13  C           1      43.298 -17.548   0.831  0.00  0.00     0.128 C 
HETATM   14  C           1      41.249 -16.010   0.552  0.00  0.00     0.013 C 
HETATM   15  H           1      40.086 -13.768   7.863  0.00  0.00     0.171 HD
HETATM   16  C           1      41.548 -19.031   1.846  0.00  0.00     0.020 C 
HETATM   17  C           1      41.149 -17.097   4.099  0.00  0.00     0.055 C 
HETATM   18  C           1      42.030 -16.700   2.888  0.00  0.00     0.012 C 
HETATM   19  C           1      42.493 -16.630  -0.090  0.00  0.00     0.033 C 
ENDROOT
BRANCH   3  20
HETATM   20  C           1      39.591 -13.636   1.925  0.00  0.00     0.114 C 
BRANCH  20  21
HETATM   21  C           1      38.529 -13.871   0.853  0.00  0.00     0.222 C 
HETATM   22  O           1      37.496 -14.431   1.117  0.00  0.00    -0.273 OA
HETATM   23  N           1      38.862 -13.388  -0.378  0.00  0.00    -0.327 N 
HETATM   24  H           1      39.752 -12.921  -0.468  0.00  0.00     0.169 HD
BRANCH  23  25
HETATM   25  C           1      38.225 -13.370  -1.567  0.00  0.00     0.034 A 
HETATM   26  C           1      37.577 -12.226  -1.863  0.00  0.00     0.029 A 
HETATM   27  C           1      36.900 -12.080  -3.011  0.00  0.00     0.002 A 
HETATM   28  C           1      36.861 -13.087  -3.895  0.00  0.00     0.000 A 
HETATM   29  C           1      37.505 -14.231  -3.620  0.00  0.00     0.002 A 
HETATM   30  C           1      38.181 -14.368  -2.467  0.00  0.00     0.029 A 
ENDBRANCH  23  25
ENDBRANCH  20  21
ENDBRANCH   3  20
BRANCH  12  31
HETATM   31  C           1      43.661 -18.630   3.072  0.00  0.00     0.176 C 
BRANCH  31  32
HETATM   32  O           1      44.273 -17.686   3.929  0.00  0.00    -0.400 OA
HETATM   33  H           1      45.195 -17.918   4.060  0.00  0.00     0.209 HD
ENDBRANCH  31  32
ENDBRANCH  12  31
BRANCH  13  34
HETATM   34  O           1      44.548 -16.965   1.120  0.00  0.00    -0.395 OA
HETATM   35  H           1      44.424 -16.353   1.852  0.00  0.00     0.210 HD
ENDBRANCH  13  34
BRANCH   9  36
HETATM   36  C           1      39.250 -11.465   8.399  0.00  0.00     0.270 C 
BRANCH  36  37
HETATM   37  O           1      38.568 -10.225   8.363  0.00  0.00    -0.387 OA
HETATM   38  C           1      38.664  -9.525   9.584  0.00  0.00     0.202 C 
ENDBRANCH  36  37
ENDBRANCH   9  36
TORSDOF 8
ENDMDL
MODEL 10
REMARK VINA RESULT:      -7.5      3.629      7.480
REMARK  8 active torsions:
REMARK  status: ('A' for Active; 'I' for Inactive)
REMARK    1  A    between atoms: C_3  and  C_27 
REMARK       I    between atoms: N_12  and  C_13 
REMARK    2  A    between atoms: C_13  and  C_14 
REMARK    3  A    between atoms: C_14  and  O_15 
REMARK    4  A    between atoms: C_18  and  C_36 
REMARK    5  A    between atoms: O_19  and  C_36 
REMARK    6  A    between atoms: C_20  and  O_21 
REMARK    7  A    between atoms: C_27  and  C_28 
REMARK       I    between atoms: C_28  and  N_29 
REMARK    8  A    between atoms: N_29  and  C_30 
ROOT
HETATM    1  C           1      43.795 -13.984   3.609  0.00  0.00     0.016 C 
HETATM    2  C           1      42.546 -14.339   4.459  0.00  0.00    -0.030 C 
HETATM    3  C           1      42.810 -15.721   5.141  0.00  0.00     0.056 C 
HETATM    4  C           1      42.565 -16.800   4.131  0.00  0.00     0.056 A 
HETATM    5  C           1      41.481 -16.807   3.359  0.00  0.00     0.012 A 
HETATM    6  S           1      41.504 -17.967   2.464  0.00  0.00    -0.055 SA
HETATM    7  C           1      42.780 -18.470   2.987  0.00  0.00     0.174 A 
HETATM    8  N           1      43.291 -19.601   2.464  0.00  0.00    -0.304 N 
HETATM    9  C           1      44.460 -20.243   2.752  0.00  0.00     0.247 C 
HETATM   10  O           1      45.260 -19.849   3.563  0.00  0.00    -0.271 OA
HETATM   11  N           1      43.320 -17.778   3.899  0.00  0.00    -0.227 NA
HETATM   12  C           1      40.310 -13.115   3.610  0.00  0.00     0.008 C 
HETATM   13  C           1      41.093 -11.817   3.880  0.00  0.00     0.128 C 
HETATM   14  C           1      42.398 -13.270   5.560  0.00  0.00     0.013 C 
HETATM   15  H           1      42.684 -20.005   1.765  0.00  0.00     0.171 HD
HETATM   16  C           1      39.214 -13.266   4.694  0.00  0.00     0.020 C 
HETATM   17  C           1      40.496 -15.688   3.484  0.00  0.00     0.055 C 
HETATM   18  C           1      41.271 -14.347   3.532  0.00  0.00     0.012 C 
HETATM   19  C           1      42.101 -11.865   5.028  0.00  0.00     0.033 C 
ENDROOT
BRANCH   3  20
HETATM   20  C           1      44.164 -15.930   5.854  0.00  0.00     0.114 C 
BRANCH  20  21
HETATM   21  C           1      44.236 -15.202   7.195  0.00  0.00     0.222 C 
HETATM   22  O           1      43.825 -15.719   8.202  0.00  0.00    -0.273 OA
HETATM   23  N           1      44.803 -13.964   7.129  0.00  0.00    -0.327 N 
HETATM   24  H           1      45.127 -13.649   6.226  0.00  0.00     0.169 HD
BRANCH  23  25
HETATM   25  C           1      45.069 -13.018   8.054  0.00  0.00     0.034 A 
HETATM   26  C           1      46.255 -12.395   7.924  0.00  0.00     0.029 A 
HETATM   27  C           1      46.644 -11.439   8.782  0.00  0.00     0.002 A 
HETATM   28  C           1      45.839 -11.084   9.793  0.00  0.00     0.000 A 
HETATM   29  C           1      44.652 -11.691   9.935  0.00  0.00     0.002 A 
HETATM   30  C           1      44.271 -12.647   9.071  0.00  0.00     0.029 A 
ENDBRANCH  23  25
ENDBRANCH  20  21
ENDBRANCH   3  20
BRANCH  12  31
HETATM   31  C           1      39.560 -12.979   2.259  0.00  0.00     0.176 C 
BRANCH  31  32
HETATM   32  O           1      38.415 -12.161   2.394  0.00  0.00    -0.400 OA
HETATM   33  H           1      38.223 -11.733   1.557  0.00  0.00     0.209 HD
ENDBRANCH  31  32
ENDBRANCH  12  31
BRANCH  13  34
HETATM   34  O           1      41.735 -11.412   2.692  0.00  0.00    -0.395 OA
HETATM   35  H           1      41.189 -10.736   2.280  0.00  0.00     0.210 HD
ENDBRANCH  13  34
BRANCH   9  36
HETATM   36  C           1      44.678 -21.516   1.947  0.00  0.00     0.270 C 
BRANCH  36  37
HETATM   37  O           1      44.190 -22.646   2.647  0.00  0.00    -0.387 OA
HETATM   38  C           1      44.649 -22.687   3.981  0.00  0.00     0.202 C 
ENDBRANCH  36  37
ENDBRANCH   9  36
TORSDOF 8
ENDMDL
