MODEL 1
REMARK VINA RESULT:      -8.6      0.000      0.000
REMARK  7 active torsions:
REMARK  status: ('A' for Active; 'I' for Inactive)
REMARK    1  A    between atoms: O_2  and  C_3 
REMARK    2  A    between atoms: C_7  and  C_8 
REMARK    3  A    between atoms: C_8  and  N_9 
REMARK       I    between atoms: N_9  and  C_10 
REMARK    4  A    between atoms: C_10  and  C_12 
REMARK    5  A    between atoms: C_17  and  C_26 
REMARK    6  A    between atoms: C_21  and  C_22 
REMARK    7  A    between atoms: C_22  and  N_23 
ROOT
HETATM    1  C   UNL     1      42.007 -15.703   1.193  1.00  0.00     0.110 A 
HETATM    2  N   UNL     1      42.262 -17.015   0.860  1.00  0.00    -0.351 N 
HETATM    3  H   UNL     1      42.018 -17.415  -0.036  1.00  0.00     0.166 HD
HETATM    4  C   UNL     1      42.858 -17.687   1.895  1.00  0.00     0.044 A 
HETATM    5  C   UNL     1      43.258 -19.028   1.989  1.00  0.00     0.042 A 
HETATM    6  C   UNL     1      43.866 -19.462   3.178  1.00  0.00    -0.021 A 
HETATM    7  C   UNL     1      44.056 -18.553   4.225  1.00  0.00     0.013 A 
HETATM    8  C   UNL     1      43.652 -17.213   4.112  1.00  0.00     0.015 A 
HETATM    9  C   UNL     1      43.035 -16.769   2.926  1.00  0.00     0.001 A 
HETATM   10  C   UNL     1      42.511 -15.505   2.479  1.00  0.00     0.015 A 
ENDROOT
BRANCH   1  11
HETATM   11  C   UNL     1      41.359 -14.823   0.243  1.00  0.00     0.269 C 
HETATM   12  N   UNL     1      41.939 -14.773  -0.996  1.00  0.00    -0.351 N 
HETATM   13  H   UNL     1      42.841 -15.234  -1.111  1.00  0.00     0.163 HD
HETATM   14  O   UNL     1      40.384 -14.144   0.553  1.00  0.00    -0.266 OA
BRANCH  12  15
HETATM   15  C   UNL     1      41.478 -13.893  -2.037  1.00  0.00     0.161 C 
BRANCH  15  16
HETATM   16  C   UNL     1      40.269 -14.439  -2.752  1.00  0.00    -0.038 A 
HETATM   17  C   UNL     1      40.284 -15.737  -3.277  1.00  0.00     0.009 A 
HETATM   18  C   UNL     1      39.169 -16.243  -3.943  1.00  0.00     0.003 A 
HETATM   19  C   UNL     1      38.022 -15.461  -4.087  1.00  0.00     0.037 A 
HETATM   20  C   UNL     1      37.982 -14.170  -3.557  1.00  0.00     0.068 A 
HETATM   21  C   UNL     1      39.105 -13.670  -2.887  1.00  0.00     0.045 A 
BRANCH  20  22
HETATM   22  O   UNL     1      36.922 -13.307  -3.625  1.00  0.00    -0.356 OA
HETATM   23  C   UNL     1      36.071 -13.427  -4.758  1.00  0.00     0.210 C 
ENDBRANCH  20  22
ENDBRANCH  15  16
ENDBRANCH  12  15
ENDBRANCH   1  11
BRANCH  10  24
HETATM   24  C   UNL     1      42.570 -14.221   3.257  1.00  0.00     0.313 C 
BRANCH  24  25
HETATM   25  N   UNL     1      41.681 -14.278   4.436  1.00  0.00     0.084 N 
HETATM   26  C   UNL     1      42.226 -13.487   5.549  1.00  0.00     0.309 C 
HETATM   27  C   UNL     1      40.360 -13.749   4.071  1.00  0.00     0.309 C 
ENDBRANCH  24  25
ENDBRANCH  10  24
BRANCH   6  28
HETATM   28  C   UNL     1      44.291 -20.843   3.334  1.00  0.00     0.010 A 
HETATM   29  C   UNL     1      44.325 -21.911   2.407  1.00  0.00     0.152 A 
HETATM   30  N   UNL     1      44.771 -23.050   2.942  1.00  0.00    -0.187 NA
HETATM   31  N   UNL     1      45.024 -22.718   4.217  1.00  0.00    -0.289 N 
HETATM   32  H   UNL     1      45.378 -23.436   4.840  1.00  0.00     0.188 HD
HETATM   33  C   UNL     1      44.753 -21.411   4.504  1.00  0.00     0.123 A 
ENDBRANCH   6  28
TORSDOF 7
ENDMDL
MODEL 2
REMARK VINA RESULT:      -8.5      1.867      3.245
REMARK  7 active torsions:
REMARK  status: ('A' for Active; 'I' for Inactive)
REMARK    1  A    between atoms: O_2  and  C_3 
REMARK    2  A    between atoms: C_7  and  C_8 
REMARK    3  A    between atoms: C_8  and  N_9 
REMARK       I    between atoms: N_9  and  C_10 
REMARK    4  A    between atoms: C_10  and  C_12 
REMARK    5  A    between atoms: C_17  and  C_26 
REMARK    6  A    between atoms: C_21  and  C_22 
REMARK    7  A    between atoms: C_22  and  N_23 
ROOT
HETATM    1  C   UNL     1      41.791 -15.946   0.850  1.00  0.00     0.110 A 
HETATM    2  N   UNL     1      42.024 -17.290   0.661  1.00  0.00    -0.351 N 
HETATM    3  H   UNL     1      41.700 -17.798  -0.151  1.00  0.00     0.166 HD
HETATM    4  C   UNL     1      42.719 -17.830   1.711  1.00  0.00     0.044 A 
HETATM    5  C   UNL     1      43.136 -19.150   1.934  1.00  0.00     0.042 A 
HETATM    6  C   UNL     1      43.855 -19.434   3.106  1.00  0.00    -0.021 A 
HETATM    7  C   UNL     1      44.136 -18.403   4.009  1.00  0.00     0.013 A 
HETATM    8  C   UNL     1      43.713 -17.086   3.767  1.00  0.00     0.015 A 
HETATM    9  C   UNL     1      42.984 -16.791   2.598  1.00  0.00     0.001 A 
HETATM   10  C   UNL     1      42.412 -15.591   2.049  1.00  0.00     0.015 A 
ENDROOT
BRANCH   1  11
HETATM   11  C   UNL     1      41.051 -15.189  -0.138  1.00  0.00     0.269 C 
HETATM   12  N   UNL     1      41.645 -15.097  -1.368  1.00  0.00    -0.351 N 
HETATM   13  H   UNL     1      42.602 -15.435  -1.454  1.00  0.00     0.163 HD
HETATM   14  O   UNL     1      39.987 -14.638   0.135  1.00  0.00    -0.266 OA
BRANCH  12  15
HETATM   15  C   UNL     1      41.091 -14.318  -2.444  1.00  0.00     0.161 C 
BRANCH  15  16
HETATM   16  C   UNL     1      41.739 -12.962  -2.559  1.00  0.00    -0.038 A 
HETATM   17  C   UNL     1      41.803 -12.312  -3.797  1.00  0.00     0.009 A 
HETATM   18  C   UNL     1      42.405 -11.060  -3.908  1.00  0.00     0.003 A 
HETATM   19  C   UNL     1      42.946 -10.437  -2.782  1.00  0.00     0.037 A 
HETATM   20  C   UNL     1      42.878 -11.063  -1.536  1.00  0.00     0.068 A 
HETATM   21  C   UNL     1      42.269 -12.319  -1.431  1.00  0.00     0.045 A 
BRANCH  20  22
HETATM   22  O   UNL     1      43.362 -10.560  -0.359  1.00  0.00    -0.356 OA
HETATM   23  C   UNL     1      43.400  -9.144  -0.235  1.00  0.00     0.210 C 
ENDBRANCH  20  22
ENDBRANCH  15  16
ENDBRANCH  12  15
ENDBRANCH   1  11
BRANCH  10  24
HETATM   24  C   UNL     1      42.533 -14.219   2.651  1.00  0.00     0.313 C 
BRANCH  24  25
HETATM   25  N   UNL     1      41.780 -14.133   3.919  1.00  0.00     0.084 N 
HETATM   26  C   UNL     1      42.234 -12.992   4.728  1.00  0.00     0.309 C 
HETATM   27  C   UNL     1      40.350 -13.974   3.622  1.00  0.00     0.309 C 
ENDBRANCH  24  25
ENDBRANCH  10  24
BRANCH   6  28
HETATM   28  C   UNL     1      44.304 -20.788   3.393  1.00  0.00     0.010 A 
HETATM   29  C   UNL     1      44.310 -21.950   2.587  1.00  0.00     0.152 A 
HETATM   30  N   UNL     1      44.793 -23.021   3.223  1.00  0.00    -0.187 NA
HETATM   31  N   UNL     1      45.098 -22.549   4.441  1.00  0.00    -0.289 N 
HETATM   32  H   UNL     1      45.486 -23.192   5.123  1.00  0.00     0.188 HD
HETATM   33  C   UNL     1      44.824 -21.220   4.595  1.00  0.00     0.123 A 
ENDBRANCH   6  28
TORSDOF 7
ENDMDL
MODEL 3
REMARK VINA RESULT:      -8.5      1.716      2.540
REMARK  7 active torsions:
REMARK  status: ('A' for Active; 'I' for Inactive)
REMARK    1  A    between atoms: O_2  and  C_3 
REMARK    2  A    between atoms: C_7  and  C_8 
REMARK    3  A    between atoms: C_8  and  N_9 
REMARK       I    between atoms: N_9  and  C_10 
REMARK    4  A    between atoms: C_10  and  C_12 
REMARK    5  A    between atoms: C_17  and  C_26 
REMARK    6  A    between atoms: C_21  and  C_22 
REMARK    7  A    between atoms: C_22  and  N_23 
ROOT
HETATM    1  C   UNL     1      42.691 -15.190   2.863  1.00  0.00     0.110 A 
HETATM    2  N   UNL     1      42.941 -16.377   2.211  1.00  0.00    -0.351 N 
HETATM    3  H   UNL     1      42.820 -16.496   1.214  1.00  0.00     0.166 HD
HETATM    4  C   UNL     1      43.348 -17.352   3.084  1.00  0.00     0.044 A 
HETATM    5  C   UNL     1      43.676 -18.695   2.848  1.00  0.00     0.042 A 
HETATM    6  C   UNL     1      44.080 -19.484   3.937  1.00  0.00    -0.021 A 
HETATM    7  C   UNL     1      44.146 -18.915   5.214  1.00  0.00     0.013 A 
HETATM    8  C   UNL     1      43.817 -17.567   5.430  1.00  0.00     0.015 A 
HETATM    9  C   UNL     1      43.403 -16.767   4.346  1.00  0.00     0.001 A 
HETATM   10  C   UNL     1      43.003 -15.393   4.208  1.00  0.00     0.015 A 
ENDROOT
BRANCH   1  11
HETATM   11  C   UNL     1      42.229 -14.035   2.122  1.00  0.00     0.269 C 
HETATM   12  N   UNL     1      41.106 -14.237   1.366  1.00  0.00    -0.351 N 
HETATM   13  H   UNL     1      40.772 -15.195   1.269  1.00  0.00     0.163 HD
HETATM   14  O   UNL     1      42.836 -12.967   2.148  1.00  0.00    -0.266 OA
BRANCH  12  15
HETATM   15  C   UNL     1      40.555 -13.225   0.505  1.00  0.00     0.161 C 
BRANCH  15  16
HETATM   16  C   UNL     1      41.160 -13.256  -0.874  1.00  0.00    -0.038 A 
HETATM   17  C   UNL     1      42.191 -12.371  -1.215  1.00  0.00     0.009 A 
HETATM   18  C   UNL     1      42.750 -12.395  -2.491  1.00  0.00     0.003 A 
HETATM   19  C   UNL     1      42.292 -13.308  -3.443  1.00  0.00     0.037 A 
HETATM   20  C   UNL     1      41.277 -14.208  -3.118  1.00  0.00     0.068 A 
HETATM   21  C   UNL     1      40.721 -14.181  -1.833  1.00  0.00     0.045 A 
BRANCH  20  22
HETATM   22  O   UNL     1      40.744 -15.152  -3.953  1.00  0.00    -0.356 OA
HETATM   23  C   UNL     1      39.419 -15.583  -3.670  1.00  0.00     0.210 C 
ENDBRANCH  20  22
ENDBRANCH  15  16
ENDBRANCH  12  15
ENDBRANCH   1  11
BRANCH  10  24
HETATM   24  C   UNL     1      42.995 -14.378   5.317  1.00  0.00     0.313 C 
BRANCH  24  25
HETATM   25  N   UNL     1      41.717 -13.636   5.342  1.00  0.00     0.084 N 
HETATM   26  C   UNL     1      40.634 -14.464   5.891  1.00  0.00     0.309 C 
HETATM   27  C   UNL     1      41.873 -12.435   6.173  1.00  0.00     0.309 C 
ENDBRANCH  24  25
ENDBRANCH  10  24
BRANCH   6  28
HETATM   28  C   UNL     1      44.422 -20.886   3.753  1.00  0.00     0.010 A 
HETATM   29  C   UNL     1      44.419 -21.693   2.591  1.00  0.00     0.152 A 
HETATM   30  N   UNL     1      44.786 -22.954   2.833  1.00  0.00    -0.187 NA
HETATM   31  N   UNL     1      45.026 -22.960   4.154  1.00  0.00    -0.289 N 
HETATM   32  H   UNL     1      45.322 -23.830   4.585  1.00  0.00     0.188 HD
HETATM   33  C   UNL     1      44.822 -21.750   4.751  1.00  0.00     0.123 A 
ENDBRANCH   6  28
TORSDOF 7
ENDMDL
MODEL 4
REMARK VINA RESULT:      -8.4      2.426      3.324
REMARK  7 active torsions:
REMARK  status: ('A' for Active; 'I' for Inactive)
REMARK    1  A    between atoms: O_2  and  C_3 
REMARK    2  A    between atoms: C_7  and  C_8 
REMARK    3  A    between atoms: C_8  and  N_9 
REMARK       I    between atoms: N_9  and  C_10 
REMARK    4  A    between atoms: C_10  and  C_12 
REMARK    5  A    between atoms: C_17  and  C_26 
REMARK    6  A    between atoms: C_21  and  C_22 
REMARK    7  A    between atoms: C_22  and  N_23 
ROOT
HETATM    1  C   UNL     1      41.941 -15.393   0.494  1.00  0.00     0.110 A 
HETATM    2  N   UNL     1      42.194 -16.724   0.247  1.00  0.00    -0.351 N 
HETATM    3  H   UNL     1      41.967 -17.177  -0.628  1.00  0.00     0.166 HD
HETATM    4  C   UNL     1      42.763 -17.335   1.334  1.00  0.00     0.044 A 
HETATM    5  C   UNL     1      43.152 -18.670   1.518  1.00  0.00     0.042 A 
HETATM    6  C   UNL     1      43.732 -19.033   2.744  1.00  0.00    -0.021 A 
HETATM    7  C   UNL     1      43.906 -18.063   3.738  1.00  0.00     0.013 A 
HETATM    8  C   UNL     1      43.513 -16.731   3.534  1.00  0.00     0.015 A 
HETATM    9  C   UNL     1      42.924 -16.356   2.310  1.00  0.00     0.001 A 
HETATM   10  C   UNL     1      42.419 -15.119   1.776  1.00  0.00     0.015 A 
ENDROOT
BRANCH   1  11
HETATM   11  C   UNL     1      41.320 -14.569  -0.522  1.00  0.00     0.269 C 
HETATM   12  N   UNL     1      42.124 -14.239  -1.579  1.00  0.00    -0.351 N 
HETATM   13  H   UNL     1      43.114 -14.469  -1.505  1.00  0.00     0.163 HD
HETATM   14  O   UNL     1      40.164 -14.167  -0.410  1.00  0.00    -0.266 OA
BRANCH  12  15
HETATM   15  C   UNL     1      41.699 -13.362  -2.638  1.00  0.00     0.161 C 
BRANCH  15  16
HETATM   16  C   UNL     1      42.242 -11.966  -2.477  1.00  0.00    -0.038 A 
HETATM   17  C   UNL     1      42.974 -11.619  -1.334  1.00  0.00     0.009 A 
HETATM   18  C   UNL     1      43.474 -10.328  -1.180  1.00  0.00     0.003 A 
HETATM   19  C   UNL     1      43.255  -9.367  -2.168  1.00  0.00     0.037 A 
HETATM   20  C   UNL     1      42.542  -9.697  -3.321  1.00  0.00     0.068 A 
HETATM   21  C   UNL     1      42.045 -10.997  -3.471  1.00  0.00     0.045 A 
BRANCH  20  22
HETATM   22  O   UNL     1      42.264  -8.854  -4.362  1.00  0.00    -0.356 OA
HETATM   23  C   UNL     1      41.351  -9.327  -5.344  1.00  0.00     0.210 C 
ENDBRANCH  20  22
ENDBRANCH  15  16
ENDBRANCH  12  15
ENDBRANCH   1  11
BRANCH  10  24
HETATM   24  C   UNL     1      42.470 -13.790   2.475  1.00  0.00     0.313 C 
BRANCH  24  25
HETATM   25  N   UNL     1      41.613 -13.795   3.679  1.00  0.00     0.084 N 
HETATM   26  C   UNL     1      41.935 -12.666   4.563  1.00  0.00     0.309 C 
HETATM   27  C   UNL     1      40.205 -13.701   3.271  1.00  0.00     0.309 C 
ENDBRANCH  24  25
ENDBRANCH  10  24
BRANCH   6  28
HETATM   28  C   UNL     1      44.145 -20.405   2.993  1.00  0.00     0.010 A 
HETATM   29  C   UNL     1      44.132 -21.541   2.151  1.00  0.00     0.152 A 
HETATM   30  N   UNL     1      44.582 -22.643   2.758  1.00  0.00    -0.187 NA
HETATM   31  N   UNL     1      44.884 -22.216   3.995  1.00  0.00    -0.289 N 
HETATM   32  H   UNL     1      45.250 -22.889   4.660  1.00  0.00     0.188 HD
HETATM   33  C   UNL     1      44.640 -20.887   4.187  1.00  0.00     0.123 A 
ENDBRANCH   6  28
TORSDOF 7
ENDMDL
MODEL 5
REMARK VINA RESULT:      -8.2      5.517      8.883
REMARK  7 active torsions:
REMARK  status: ('A' for Active; 'I' for Inactive)
REMARK    1  A    between atoms: O_2  and  C_3 
REMARK    2  A    between atoms: C_7  and  C_8 
REMARK    3  A    between atoms: C_8  and  N_9 
REMARK       I    between atoms: N_9  and  C_10 
REMARK    4  A    between atoms: C_10  and  C_12 
REMARK    5  A    between atoms: C_17  and  C_26 
REMARK    6  A    between atoms: C_21  and  C_22 
REMARK    7  A    between atoms: C_22  and  N_23 
ROOT
HETATM    1  C   UNL     1      44.466 -15.034   6.526  1.00  0.00     0.110 A 
HETATM    2  N   UNL     1      45.123 -16.243   6.591  1.00  0.00    -0.351 N 
HETATM    3  H   UNL     1      45.965 -16.386   7.133  1.00  0.00     0.166 HD
HETATM    4  C   UNL     1      44.502 -17.192   5.822  1.00  0.00     0.044 A 
HETATM    5  C   UNL     1      44.848 -18.530   5.585  1.00  0.00     0.042 A 
HETATM    6  C   UNL     1      44.018 -19.297   4.752  1.00  0.00    -0.021 A 
HETATM    7  C   UNL     1      42.879 -18.712   4.188  1.00  0.00     0.013 A 
HETATM    8  C   UNL     1      42.547 -17.371   4.438  1.00  0.00     0.015 A 
HETATM    9  C   UNL     1      43.376 -16.590   5.267  1.00  0.00     0.001 A 
HETATM   10  C   UNL     1      43.341 -15.226   5.724  1.00  0.00     0.015 A 
ENDROOT
BRANCH   1  11
HETATM   11  C   UNL     1      44.974 -13.889   7.253  1.00  0.00     0.269 C 
HETATM   12  N   UNL     1      44.322 -13.604   8.422  1.00  0.00    -0.351 N 
HETATM   13  H   UNL     1      43.462 -14.115   8.617  1.00  0.00     0.163 HD
HETATM   14  O   UNL     1      45.898 -13.206   6.818  1.00  0.00    -0.266 OA
BRANCH  12  15
HETATM   15  C   UNL     1      44.639 -12.457   9.231  1.00  0.00     0.161 C 
BRANCH  15  16
HETATM   16  C   UNL     1      43.433 -11.594   9.495  1.00  0.00    -0.038 A 
HETATM   17  C   UNL     1      42.739 -11.003   8.432  1.00  0.00     0.009 A 
HETATM   18  C   UNL     1      41.625 -10.200   8.673  1.00  0.00     0.003 A 
HETATM   19  C   UNL     1      41.186  -9.982   9.980  1.00  0.00     0.037 A 
HETATM   20  C   UNL     1      41.855 -10.574  11.052  1.00  0.00     0.068 A 
HETATM   21  C   UNL     1      42.971 -11.381  10.802  1.00  0.00     0.045 A 
BRANCH  20  22
HETATM   22  O   UNL     1      41.525 -10.444  12.373  1.00  0.00    -0.356 OA
HETATM   23  C   UNL     1      40.624 -11.408  12.905  1.00  0.00     0.210 C 
ENDBRANCH  20  22
ENDBRANCH  15  16
ENDBRANCH  12  15
ENDBRANCH   1  11
BRANCH  10  24
HETATM   24  C   UNL     1      42.247 -14.241   5.422  1.00  0.00     0.313 C 
BRANCH  24  25
HETATM   25  N   UNL     1      42.751 -13.136   4.581  1.00  0.00     0.084 N 
HETATM   26  C   UNL     1      43.154 -13.622   3.253  1.00  0.00     0.309 C 
HETATM   27  C   UNL     1      41.694 -12.128   4.424  1.00  0.00     0.309 C 
ENDBRANCH  24  25
ENDBRANCH  10  24
BRANCH   6  28
HETATM   28  C   UNL     1      44.334 -20.687   4.465  1.00  0.00     0.010 A 
HETATM   29  C   UNL     1      44.368 -21.394   3.240  1.00  0.00     0.152 A 
HETATM   30  N   UNL     1      44.691 -22.681   3.391  1.00  0.00    -0.187 NA
HETATM   31  N   UNL     1      44.864 -22.805   4.716  1.00  0.00    -0.289 N 
HETATM   32  H   UNL     1      45.117 -23.716   5.085  1.00  0.00     0.188 HD
HETATM   33  C   UNL     1      44.662 -21.643   5.404  1.00  0.00     0.123 A 
ENDBRANCH   6  28
TORSDOF 7
ENDMDL
MODEL 6
REMARK VINA RESULT:      -8.1      5.984      9.083
REMARK  7 active torsions:
REMARK  status: ('A' for Active; 'I' for Inactive)
REMARK    1  A    between atoms: O_2  and  C_3 
REMARK    2  A    between atoms: C_7  and  C_8 
REMARK    3  A    between atoms: C_8  and  N_9 
REMARK       I    between atoms: N_9  and  C_10 
REMARK    4  A    between atoms: C_10  and  C_12 
REMARK    5  A    between atoms: C_17  and  C_26 
REMARK    6  A    between atoms: C_21  and  C_22 
REMARK    7  A    between atoms: C_22  and  N_23 
ROOT
HETATM    1  C   UNL     1      44.439 -14.296   6.874  1.00  0.00     0.110 A 
HETATM    2  N   UNL     1      44.921 -15.559   7.140  1.00  0.00    -0.351 N 
HETATM    3  H   UNL     1      45.558 -15.759   7.899  1.00  0.00     0.166 HD
HETATM    4  C   UNL     1      44.444 -16.475   6.240  1.00  0.00     0.044 A 
HETATM    5  C   UNL     1      44.700 -17.850   6.131  1.00  0.00     0.042 A 
HETATM    6  C   UNL     1      44.060 -18.569   5.108  1.00  0.00    -0.021 A 
HETATM    7  C   UNL     1      43.193 -17.901   4.236  1.00  0.00     0.013 A 
HETATM    8  C   UNL     1      42.947 -16.525   4.363  1.00  0.00     0.015 A 
HETATM    9  C   UNL     1      43.588 -15.792   5.381  1.00  0.00     0.001 A 
HETATM   10  C   UNL     1      43.569 -14.413   5.789  1.00  0.00     0.015 A 
ENDROOT
BRANCH   1  11
HETATM   11  C   UNL     1      44.840 -13.175   7.698  1.00  0.00     0.269 C 
HETATM   12  N   UNL     1      43.829 -12.572   8.396  1.00  0.00    -0.351 N 
HETATM   13  H   UNL     1      42.874 -12.855   8.179  1.00  0.00     0.163 HD
HETATM   14  O   UNL     1      46.003 -12.778   7.728  1.00  0.00    -0.266 OA
BRANCH  12  15
HETATM   15  C   UNL     1      44.031 -11.396   9.200  1.00  0.00     0.161 C 
BRANCH  15  16
HETATM   16  C   UNL     1      43.001 -11.267  10.293  1.00  0.00    -0.038 A 
HETATM   17  C   UNL     1      43.349 -11.521  11.626  1.00  0.00     0.009 A 
HETATM   18  C   UNL     1      42.398 -11.408  12.638  1.00  0.00     0.003 A 
HETATM   19  C   UNL     1      41.088 -11.032  12.334  1.00  0.00     0.037 A 
HETATM   20  C   UNL     1      40.727 -10.760  11.014  1.00  0.00     0.068 A 
HETATM   21  C   UNL     1      41.687 -10.874  10.002  1.00  0.00     0.045 A 
BRANCH  20  22
HETATM   22  O   UNL     1      39.484 -10.380  10.585  1.00  0.00    -0.356 OA
HETATM   23  C   UNL     1      39.213 -10.529   9.197  1.00  0.00     0.210 C 
ENDBRANCH  20  22
ENDBRANCH  15  16
ENDBRANCH  12  15
ENDBRANCH   1  11
BRANCH  10  24
HETATM   24  C   UNL     1      42.713 -13.340   5.176  1.00  0.00     0.313 C 
BRANCH  24  25
HETATM   25  N   UNL     1      41.423 -13.227   5.887  1.00  0.00     0.084 N 
HETATM   26  C   UNL     1      41.080 -11.820   6.140  1.00  0.00     0.309 C 
HETATM   27  C   UNL     1      40.367 -13.841   5.071  1.00  0.00     0.309 C 
ENDBRANCH  24  25
ENDBRANCH  10  24
BRANCH   6  28
HETATM   28  C   UNL     1      44.296 -19.994   4.942  1.00  0.00     0.010 A 
HETATM   29  C   UNL     1      44.308 -21.045   5.888  1.00  0.00     0.152 A 
HETATM   30  N   UNL     1      44.584 -22.233   5.342  1.00  0.00    -0.187 NA
HETATM   31  N   UNL     1      44.752 -21.946   4.042  1.00  0.00    -0.289 N 
HETATM   32  H   UNL     1      44.979 -22.705   3.408  1.00  0.00     0.188 HD
HETATM   33  C   UNL     1      44.591 -20.622   3.750  1.00  0.00     0.123 A 
ENDBRANCH   6  28
TORSDOF 7
ENDMDL
MODEL 7
REMARK VINA RESULT:      -8.0      4.311      9.130
REMARK  7 active torsions:
REMARK  status: ('A' for Active; 'I' for Inactive)
REMARK    1  A    between atoms: O_2  and  C_3 
REMARK    2  A    between atoms: C_7  and  C_8 
REMARK    3  A    between atoms: C_8  and  N_9 
REMARK       I    between atoms: N_9  and  C_10 
REMARK    4  A    between atoms: C_10  and  C_12 
REMARK    5  A    between atoms: C_17  and  C_26 
REMARK    6  A    between atoms: C_21  and  C_22 
REMARK    7  A    between atoms: C_22  and  N_23 
ROOT
HETATM    1  C   UNL     1      42.162 -13.834   5.448  1.00  0.00     0.110 A 
HETATM    2  N   UNL     1      42.350 -14.991   6.172  1.00  0.00    -0.351 N 
HETATM    3  H   UNL     1      42.146 -15.064   7.160  1.00  0.00     0.166 HD
HETATM    4  C   UNL     1      42.859 -15.994   5.389  1.00  0.00     0.044 A 
HETATM    5  C   UNL     1      43.219 -17.307   5.726  1.00  0.00     0.042 A 
HETATM    6  C   UNL     1      43.711 -18.144   4.712  1.00  0.00    -0.021 A 
HETATM    7  C   UNL     1      43.825 -17.652   3.407  1.00  0.00     0.013 A 
HETATM    8  C   UNL     1      43.456 -16.336   3.088  1.00  0.00     0.015 A 
HETATM    9  C   UNL     1      42.968 -15.484   4.099  1.00  0.00     0.001 A 
HETATM   10  C   UNL     1      42.512 -14.120   4.128  1.00  0.00     0.015 A 
ENDROOT
BRANCH   1  11
HETATM   11  C   UNL     1      41.650 -12.645   6.096  1.00  0.00     0.269 C 
HETATM   12  N   UNL     1      42.464 -12.105   7.055  1.00  0.00    -0.351 N 
HETATM   13  H   UNL     1      43.281 -12.646   7.335  1.00  0.00     0.163 HD
HETATM   14  O   UNL     1      40.542 -12.187   5.824  1.00  0.00    -0.266 OA
BRANCH  12  15
HETATM   15  C   UNL     1      42.082 -10.972   7.854  1.00  0.00     0.161 C 
BRANCH  15  16
HETATM   16  C   UNL     1      42.924 -10.838   9.096  1.00  0.00    -0.038 A 
HETATM   17  C   UNL     1      44.156 -11.498   9.189  1.00  0.00     0.009 A 
HETATM   18  C   UNL     1      44.936 -11.380  10.339  1.00  0.00     0.003 A 
HETATM   19  C   UNL     1      44.498 -10.597  11.408  1.00  0.00     0.037 A 
HETATM   20  C   UNL     1      43.281  -9.919  11.328  1.00  0.00     0.068 A 
HETATM   21  C   UNL     1      42.504 -10.040  10.170  1.00  0.00     0.045 A 
BRANCH  20  22
HETATM   22  O   UNL     1      42.743  -9.119  12.299  1.00  0.00    -0.356 OA
HETATM   23  C   UNL     1      43.215  -9.317  13.625  1.00  0.00     0.210 C 
ENDBRANCH  20  22
ENDBRANCH  15  16
ENDBRANCH  12  15
ENDBRANCH   1  11
BRANCH  10  24
HETATM   24  C   UNL     1      42.392 -13.221   2.929  1.00  0.00     0.313 C 
BRANCH  24  25
HETATM   25  N   UNL     1      41.102 -13.434   2.240  1.00  0.00     0.084 N 
HETATM   26  C   UNL     1      40.287 -12.211   2.254  1.00  0.00     0.309 C 
HETATM   27  C   UNL     1      41.359 -13.826   0.848  1.00  0.00     0.309 C 
ENDBRANCH  24  25
ENDBRANCH  10  24
BRANCH   6  28
HETATM   28  C   UNL     1      44.109 -19.512   5.006  1.00  0.00     0.010 A 
HETATM   29  C   UNL     1      44.792 -20.466   4.216  1.00  0.00     0.152 A 
HETATM   30  N   UNL     1      44.959 -21.635   4.842  1.00  0.00    -0.187 NA
HETATM   31  N   UNL     1      44.381 -21.434   6.036  1.00  0.00    -0.289 N 
HETATM   32  H   UNL     1      44.377 -22.199   6.703  1.00  0.00     0.188 HD
HETATM   33  C   UNL     1      43.857 -20.183   6.184  1.00  0.00     0.123 A 
ENDBRANCH   6  28
TORSDOF 7
ENDMDL
MODEL 8
REMARK VINA RESULT:      -7.9      4.610      9.917
REMARK  7 active torsions:
REMARK  status: ('A' for Active; 'I' for Inactive)
REMARK    1  A    between atoms: O_2  and  C_3 
REMARK    2  A    between atoms: C_7  and  C_8 
REMARK    3  A    between atoms: C_8  and  N_9 
REMARK       I    between atoms: N_9  and  C_10 
REMARK    4  A    between atoms: C_10  and  C_12 
REMARK    5  A    between atoms: C_17  and  C_26 
REMARK    6  A    between atoms: C_21  and  C_22 
REMARK    7  A    between atoms: C_22  and  N_23 
ROOT
HETATM    1  C   UNL     1      43.884 -14.310   6.095  1.00  0.00     0.110 A 
HETATM    2  N   UNL     1      43.545 -13.684   4.916  1.00  0.00    -0.351 N 
HETATM    3  H   UNL     1      43.926 -12.791   4.635  1.00  0.00     0.166 HD
HETATM    4  C   UNL     1      42.628 -14.416   4.208  1.00  0.00     0.044 A 
HETATM    5  C   UNL     1      42.003 -14.137   2.983  1.00  0.00     0.042 A 
HETATM    6  C   UNL     1      41.098 -15.078   2.466  1.00  0.00    -0.021 A 
HETATM    7  C   UNL     1      40.849 -16.257   3.178  1.00  0.00     0.013 A 
HETATM    8  C   UNL     1      41.487 -16.520   4.400  1.00  0.00     0.015 A 
HETATM    9  C   UNL     1      42.392 -15.580   4.932  1.00  0.00     0.001 A 
HETATM   10  C   UNL     1      43.198 -15.525   6.122  1.00  0.00     0.015 A 
ENDROOT
BRANCH   1  11
HETATM   11  C   UNL     1      44.827 -13.691   7.004  1.00  0.00     0.269 C 
HETATM   12  N   UNL     1      44.283 -13.185   8.154  1.00  0.00    -0.351 N 
HETATM   13  H   UNL     1      43.266 -13.153   8.217  1.00  0.00     0.163 HD
HETATM   14  O   UNL     1      46.021 -13.597   6.730  1.00  0.00    -0.266 OA
BRANCH  12  15
HETATM   15  C   UNL     1      45.057 -12.466   9.130  1.00  0.00     0.161 C 
BRANCH  15  16
HETATM   16  C   UNL     1      44.228 -11.461   9.888  1.00  0.00    -0.038 A 
HETATM   17  C   UNL     1      44.628 -11.029  11.159  1.00  0.00     0.009 A 
HETATM   18  C   UNL     1      43.862 -10.103  11.865  1.00  0.00     0.003 A 
HETATM   19  C   UNL     1      42.690  -9.591  11.307  1.00  0.00     0.037 A 
HETATM   20  C   UNL     1      42.283  -9.997  10.036  1.00  0.00     0.068 A 
HETATM   21  C   UNL     1      43.058 -10.925   9.331  1.00  0.00     0.045 A 
BRANCH  20  22
HETATM   22  O   UNL     1      41.162  -9.569   9.377  1.00  0.00    -0.356 OA
HETATM   23  C   UNL     1      40.248 -10.571   8.951  1.00  0.00     0.210 C 
ENDBRANCH  20  22
ENDBRANCH  15  16
ENDBRANCH  12  15
ENDBRANCH   1  11
BRANCH  10  24
HETATM   24  C   UNL     1      43.302 -16.618   7.148  1.00  0.00     0.313 C 
BRANCH  24  25
HETATM   25  N   UNL     1      43.883 -17.841   6.557  1.00  0.00     0.084 N 
HETATM   26  C   UNL     1      45.350 -17.756   6.498  1.00  0.00     0.309 C 
HETATM   27  C   UNL     1      43.501 -19.001   7.373  1.00  0.00     0.309 C 
ENDBRANCH  24  25
ENDBRANCH  10  24
BRANCH   6  28
HETATM   28  C   UNL     1      40.413 -14.836   1.206  1.00  0.00     0.010 A 
HETATM   29  C   UNL     1      40.903 -14.808  -0.121  1.00  0.00     0.152 A 
HETATM   30  N   UNL     1      39.953 -14.531  -1.019  1.00  0.00    -0.187 NA
HETATM   31  N   UNL     1      38.850 -14.379  -0.269  1.00  0.00    -0.289 N 
HETATM   32  H   UNL     1      37.978 -14.154  -0.737  1.00  0.00     0.188 HD
HETATM   33  C   UNL     1      39.071 -14.550   1.067  1.00  0.00     0.123 A 
ENDBRANCH   6  28
TORSDOF 7
ENDMDL
MODEL 9
REMARK VINA RESULT:      -7.9      3.473      8.498
REMARK  7 active torsions:
REMARK  status: ('A' for Active; 'I' for Inactive)
REMARK    1  A    between atoms: O_2  and  C_3 
REMARK    2  A    between atoms: C_7  and  C_8 
REMARK    3  A    between atoms: C_8  and  N_9 
REMARK       I    between atoms: N_9  and  C_10 
REMARK    4  A    between atoms: C_10  and  C_12 
REMARK    5  A    between atoms: C_17  and  C_26 
REMARK    6  A    between atoms: C_21  and  C_22 
REMARK    7  A    between atoms: C_22  and  N_23 
ROOT
HETATM    1  C   UNL     1      42.193 -15.534   4.147  1.00  0.00     0.110 A 
HETATM    2  N   UNL     1      41.976 -16.058   2.892  1.00  0.00    -0.351 N 
HETATM    3  H   UNL     1      41.884 -17.049   2.715  1.00  0.00     0.166 HD
HETATM    4  C   UNL     1      41.923 -15.073   1.941  1.00  0.00     0.044 A 
HETATM    5  C   UNL     1      41.748 -15.167   0.553  1.00  0.00     0.042 A 
HETATM    6  C   UNL     1      41.719 -13.980  -0.198  1.00  0.00    -0.021 A 
HETATM    7  C   UNL     1      41.863 -12.750   0.452  1.00  0.00     0.013 A 
HETATM    8  C   UNL     1      42.034 -12.675   1.844  1.00  0.00     0.015 A 
HETATM    9  C   UNL     1      42.071 -13.860   2.607  1.00  0.00     0.001 A 
HETATM   10  C   UNL     1      42.227 -14.146   4.008  1.00  0.00     0.015 A 
ENDROOT
BRANCH   1  11
HETATM   11  C   UNL     1      42.303 -16.412   5.293  1.00  0.00     0.269 C 
HETATM   12  N   UNL     1      43.410 -17.218   5.308  1.00  0.00    -0.351 N 
HETATM   13  H   UNL     1      43.983 -17.244   4.465  1.00  0.00     0.163 HD
HETATM   14  O   UNL     1      41.437 -16.450   6.164  1.00  0.00    -0.266 OA
BRANCH  12  15
HETATM   15  C   UNL     1      43.640 -18.207   6.327  1.00  0.00     0.161 C 
BRANCH  15  16
HETATM   16  C   UNL     1      44.015 -19.546   5.749  1.00  0.00    -0.038 A 
HETATM   17  C   UNL     1      44.063 -20.682   6.567  1.00  0.00     0.009 A 
HETATM   18  C   UNL     1      44.414 -21.922   6.036  1.00  0.00     0.003 A 
HETATM   19  C   UNL     1      44.715 -22.046   4.679  1.00  0.00     0.037 A 
HETATM   20  C   UNL     1      44.658 -20.929   3.844  1.00  0.00     0.068 A 
HETATM   21  C   UNL     1      44.302 -19.687   4.383  1.00  0.00     0.045 A 
BRANCH  20  22
HETATM   22  O   UNL     1      44.923 -20.916   2.502  1.00  0.00    -0.356 OA
HETATM   23  C   UNL     1      44.216 -21.855   1.701  1.00  0.00     0.210 C 
ENDBRANCH  20  22
ENDBRANCH  15  16
ENDBRANCH  12  15
ENDBRANCH   1  11
BRANCH  10  24
HETATM   24  C   UNL     1      42.340 -13.115   5.095  1.00  0.00     0.313 C 
BRANCH  24  25
HETATM   25  N   UNL     1      41.072 -12.372   5.250  1.00  0.00     0.084 N 
HETATM   26  C   UNL     1      40.047 -13.204   5.895  1.00  0.00     0.309 C 
HETATM   27  C   UNL     1      41.309 -11.178   6.071  1.00  0.00     0.309 C 
ENDBRANCH  24  25
ENDBRANCH  10  24
BRANCH   6  28
HETATM   28  C   UNL     1      41.550 -14.019  -1.642  1.00  0.00     0.010 A 
HETATM   29  C   UNL     1      41.014 -15.022  -2.484  1.00  0.00     0.152 A 
HETATM   30  N   UNL     1      41.047 -14.687  -3.776  1.00  0.00    -0.187 NA
HETATM   31  N   UNL     1      41.605 -13.467  -3.769  1.00  0.00    -0.289 N 
HETATM   32  H   UNL     1      41.743 -12.996  -4.656  1.00  0.00     0.188 HD
HETATM   33  C   UNL     1      41.926 -13.022  -2.518  1.00  0.00     0.123 A 
ENDBRANCH   6  28
TORSDOF 7
ENDMDL
MODEL 10
REMARK VINA RESULT:      -7.7      3.822      8.743
REMARK  7 active torsions:
REMARK  status: ('A' for Active; 'I' for Inactive)
REMARK    1  A    between atoms: O_2  and  C_3 
REMARK    2  A    between atoms: C_7  and  C_8 
REMARK    3  A    between atoms: C_8  and  N_9 
REMARK       I    between atoms: N_9  and  C_10 
REMARK    4  A    between atoms: C_10  and  C_12 
REMARK    5  A    between atoms: C_17  and  C_26 
REMARK    6  A    between atoms: C_21  and  C_22 
REMARK    7  A    between atoms: C_22  and  N_23 
ROOT
HETATM    1  C   UNL     1      41.711 -13.446   4.993  1.00  0.00     0.110 A 
HETATM    2  N   UNL     1      42.723 -14.330   5.296  1.00  0.00    -0.351 N 
HETATM    3  H   UNL     1      43.474 -14.112   5.936  1.00  0.00     0.166 HD
HETATM    4  C   UNL     1      42.580 -15.508   4.609  1.00  0.00     0.044 A 
HETATM    5  C   UNL     1      43.390 -16.652   4.603  1.00  0.00     0.042 A 
HETATM    6  C   UNL     1      43.001 -17.741   3.806  1.00  0.00    -0.021 A 
HETATM    7  C   UNL     1      41.826 -17.656   3.050  1.00  0.00     0.013 A 
HETATM    8  C   UNL     1      41.026 -16.503   3.072  1.00  0.00     0.015 A 
HETATM    9  C   UNL     1      41.410 -15.402   3.863  1.00  0.00     0.001 A 
HETATM   10  C   UNL     1      40.847 -14.102   4.115  1.00  0.00     0.015 A 
ENDROOT
BRANCH   1  11
HETATM   11  C   UNL     1      41.688 -12.131   5.598  1.00  0.00     0.269 C 
HETATM   12  N   UNL     1      41.636 -12.118   6.966  1.00  0.00    -0.351 N 
HETATM   13  H   UNL     1      41.476 -13.007   7.438  1.00  0.00     0.163 HD
HETATM   14  O   UNL     1      41.674 -11.107   4.918  1.00  0.00    -0.266 OA
BRANCH  12  15
HETATM   15  C   UNL     1      41.526 -10.904   7.730  1.00  0.00     0.161 C 
BRANCH  15  16
HETATM   16  C   UNL     1      42.538 -10.836   8.844  1.00  0.00    -0.038 A 
HETATM   17  C   UNL     1      42.318 -10.007   9.951  1.00  0.00     0.009 A 
HETATM   18  C   UNL     1      43.254  -9.938  10.981  1.00  0.00     0.003 A 
HETATM   19  C   UNL     1      44.420 -10.703  10.923  1.00  0.00     0.037 A 
HETATM   20  C   UNL     1      44.650 -11.548   9.836  1.00  0.00     0.068 A 
HETATM   21  C   UNL     1      43.705 -11.613   8.806  1.00  0.00     0.045 A 
BRANCH  20  22
HETATM   22  O   UNL     1      45.745 -12.350   9.662  1.00  0.00    -0.356 OA
HETATM   23  C   UNL     1      46.290 -12.413   8.350  1.00  0.00     0.210 C 
ENDBRANCH  20  22
ENDBRANCH  15  16
ENDBRANCH  12  15
ENDBRANCH   1  11
BRANCH  10  24
HETATM   24  C   UNL     1      39.540 -13.604   3.566  1.00  0.00     0.313 C 
BRANCH  24  25
HETATM   25  N   UNL     1      39.763 -12.670   2.442  1.00  0.00     0.084 N 
HETATM   26  C   UNL     1      39.571 -13.342   1.149  1.00  0.00     0.309 C 
HETATM   27  C   UNL     1      38.817 -11.552   2.549  1.00  0.00     0.309 C 
ENDBRANCH  24  25
ENDBRANCH  10  24
BRANCH   6  28
HETATM   28  C   UNL     1      43.808 -18.950   3.753  1.00  0.00     0.010 A 
HETATM   29  C   UNL     1      44.571 -19.596   4.754  1.00  0.00     0.152 A 
HETATM   30  N   UNL     1      45.195 -20.689   4.306  1.00  0.00    -0.187 NA
HETATM   31  N   UNL     1      44.835 -20.747   3.014  1.00  0.00    -0.289 N 
HETATM   32  H   UNL     1      45.196 -21.507   2.448  1.00  0.00     0.188 HD
HETATM   33  C   UNL     1      44.008 -19.730   2.633  1.00  0.00     0.123 A 
ENDBRANCH   6  28
TORSDOF 7
ENDMDL
