MODEL 1
REMARK VINA RESULT:      -9.6      0.000      0.000
REMARK  8 active torsions:
REMARK  status: ('A' for Active; 'I' for Inactive)
REMARK    1  A    between atoms: C_2  and  O_3 
REMARK    2  A    between atoms: O_3  and  C_4 
REMARK    3  A    between atoms: C_7  and  N_8 
REMARK       I    between atoms: N_8  and  C_9 
REMARK       I    between atoms: C_9  and  N_10 
REMARK    4  A    between atoms: N_10  and  C_11 
REMARK    5  A    between atoms: C_12  and  N_13 
REMARK    6  A    between atoms: C_29  and  C_30 
REMARK       I    between atoms: C_30  and  N_31 
REMARK    7  A    between atoms: N_31  and  C_32 
REMARK    8  A    between atoms: C_32  and  C_33 
ROOT
HETATM    1  C   UNL     1      41.645 -13.134   5.450  1.00  0.00     0.043 A 
HETATM    2  C   UNL     1      40.866 -13.244   4.275  1.00  0.00     0.052 A 
HETATM    3  C   UNL     1      39.620 -12.584   4.319  1.00  0.00     0.032 A 
HETATM    4  C   UNL     1      39.197 -11.822   5.424  1.00  0.00     0.019 A 
HETATM    5  C   UNL     1      40.009 -11.699   6.545  1.00  0.00     0.033 A 
HETATM    6  C   UNL     1      41.219 -12.381   6.564  1.00  0.00     0.043 A 
ENDROOT
BRANCH   1   7
HETATM    7  N   UNL     1      42.906 -13.776   5.609  1.00  0.00    -0.213 NA
HETATM    8  C   UNL     1      42.834 -15.140   5.862  1.00  0.00     0.281 C 
HETATM    9  N   UNL     1      43.935 -15.830   5.369  1.00  0.00    -0.215 NA
HETATM   10  O   UNL     1      41.845 -15.662   6.375  1.00  0.00    -0.260 OA
HETATM   11  H   UNL     1      44.364 -15.325   4.605  1.00  0.00     0.138 HD
HETATM   12  H   UNL     1      43.529 -13.296   6.246  1.00  0.00     0.138 HD
BRANCH   9  13
HETATM   13  C   UNL     1      43.740 -17.220   5.156  1.00  0.00     0.016 C 
HETATM   14  C   UNL     1      44.367 -18.120   6.019  1.00  0.00     0.026 C 
HETATM   15  C   UNL     1      44.597 -19.428   5.586  1.00  0.00     0.038 C 
HETATM   16  C   UNL     1      44.175 -19.812   4.314  1.00  0.00     0.068 C 
HETATM   17  C   UNL     1      43.371 -18.978   3.541  1.00  0.00     0.038 C 
HETATM   18  C   UNL     1      43.153 -17.673   3.967  1.00  0.00     0.026 C 
BRANCH  16  19
HETATM   19  O   UNL     1      44.669 -20.983   3.798  1.00  0.00    -0.352 OA
BRANCH  19  20
HETATM   20  C   UNL     1      44.817 -20.843   2.371  1.00  0.00     0.171 C 
HETATM   21  C   UNL     1      44.039 -21.946   1.682  1.00  0.00     0.034 C 
ENDBRANCH  19  20
ENDBRANCH  16  19
ENDBRANCH   9  13
ENDBRANCH   1   7
BRANCH   2  22
HETATM   22  N   UNL     1      41.297 -13.922   3.129  1.00  0.00    -0.378 N 
HETATM   23  C   UNL     1      40.394 -14.839   2.408  1.00  0.00     0.133 C 
HETATM   24  C   UNL     1      40.022 -14.343   0.990  1.00  0.00     0.054 C 
HETATM   25  C   UNL     1      41.300 -14.080   0.201  1.00  0.00     0.020 C 
HETATM   26  C   UNL     1      39.151 -13.097   0.995  1.00  0.00     0.020 A 
HETATM   27  C   UNL     1      42.041 -12.963   0.916  1.00  0.00     0.023 C 
HETATM   28  C   UNL     1      41.206 -11.679   0.905  1.00  0.00     0.138 C 
HETATM   29  C   UNL     1      42.421 -13.380   2.343  1.00  0.00     0.129 C 
HETATM   30  N   UNL     1      39.757 -11.838   0.995  1.00  0.00    -0.317 N 
HETATM   31  C   UNL     1      39.018 -10.648   0.990  1.00  0.00     0.247 A 
HETATM   32  O   UNL     1      39.503  -9.520   0.948  1.00  0.00    -0.268 OA
HETATM   33  C   UNL     1      37.542 -10.792   1.006  1.00  0.00     0.074 A 
HETATM   34  C   UNL     1      36.986 -12.008   0.989  1.00  0.00     0.007 A 
HETATM   35  C   UNL     1      37.808 -13.189   0.973  1.00  0.00     0.026 A 
ENDBRANCH   2  22
BRANCH   5  36
HETATM   36  C   UNL     1      39.559 -10.881   7.708  1.00  0.00     0.251 C 
HETATM   37  N   UNL     1      40.019 -11.279   8.945  1.00  0.00    -0.353 N 
HETATM   38  H   UNL     1      40.811 -11.905   9.000  1.00  0.00     0.163 HD
HETATM   39  O   UNL     1      38.827  -9.913   7.535  1.00  0.00    -0.268 OA
BRANCH  37  40
HETATM   40  C   UNL     1      39.674 -10.562  10.151  1.00  0.00     0.161 C 
BRANCH  40  41
HETATM   41  C   UNL     1      40.776 -10.678  11.175  1.00  0.00    -0.041 A 
HETATM   42  C   UNL     1      40.506 -10.557  12.545  1.00  0.00     0.009 A 
HETATM   43  C   UNL     1      41.534 -10.680  13.483  1.00  0.00     0.001 A 
HETATM   44  C   UNL     1      42.841 -10.922  13.062  1.00  0.00     0.000 A 
HETATM   45  C   UNL     1      43.122 -11.041  11.703  1.00  0.00     0.001 A 
HETATM   46  C   UNL     1      42.096 -10.920  10.765  1.00  0.00     0.009 A 
ENDBRANCH  40  41
ENDBRANCH  37  40
ENDBRANCH   5  36
TORSDOF 8
ENDMDL
MODEL 2
REMARK VINA RESULT:      -9.4      2.521      8.415
REMARK  8 active torsions:
REMARK  status: ('A' for Active; 'I' for Inactive)
REMARK    1  A    between atoms: C_2  and  O_3 
REMARK    2  A    between atoms: O_3  and  C_4 
REMARK    3  A    between atoms: C_7  and  N_8 
REMARK       I    between atoms: N_8  and  C_9 
REMARK       I    between atoms: C_9  and  N_10 
REMARK    4  A    between atoms: N_10  and  C_11 
REMARK    5  A    between atoms: C_12  and  N_13 
REMARK    6  A    between atoms: C_29  and  C_30 
REMARK       I    between atoms: C_30  and  N_31 
REMARK    7  A    between atoms: N_31  and  C_32 
REMARK    8  A    between atoms: C_32  and  C_33 
ROOT
HETATM    1  C   UNL     1      40.625 -15.538   2.559  1.00  0.00     0.043 A 
HETATM    2  C   UNL     1      40.383 -14.757   1.406  1.00  0.00     0.052 A 
HETATM    3  C   UNL     1      41.244 -15.012   0.318  1.00  0.00     0.032 A 
HETATM    4  C   UNL     1      42.239 -16.006   0.348  1.00  0.00     0.019 A 
HETATM    5  C   UNL     1      42.420 -16.787   1.484  1.00  0.00     0.033 A 
HETATM    6  C   UNL     1      41.629 -16.529   2.596  1.00  0.00     0.043 A 
ENDROOT
BRANCH   1   7
HETATM    7  N   UNL     1      39.892 -15.385   3.769  1.00  0.00    -0.213 NA
HETATM    8  C   UNL     1      40.390 -14.415   4.631  1.00  0.00     0.281 C 
HETATM    9  N   UNL     1      39.394 -13.826   5.401  1.00  0.00    -0.215 NA
HETATM   10  O   UNL     1      41.570 -14.067   4.615  1.00  0.00    -0.260 OA
HETATM   11  H   UNL     1      38.495 -13.900   4.944  1.00  0.00     0.138 HD
HETATM   12  H   UNL     1      39.698 -16.259   4.241  1.00  0.00     0.138 HD
BRANCH   9  13
HETATM   13  C   UNL     1      39.710 -12.550   5.936  1.00  0.00     0.016 C 
HETATM   14  C   UNL     1      40.505 -11.689   5.178  1.00  0.00     0.026 C 
HETATM   15  C   UNL     1      41.215 -10.675   5.823  1.00  0.00     0.038 C 
HETATM   16  C   UNL     1      41.097 -10.529   7.205  1.00  0.00     0.068 C 
HETATM   17  C   UNL     1      40.150 -11.252   7.925  1.00  0.00     0.038 C 
HETATM   18  C   UNL     1      39.452 -12.270   7.285  1.00  0.00     0.026 C 
BRANCH  16  19
HETATM   19  O   UNL     1      42.016  -9.742   7.850  1.00  0.00    -0.352 OA
BRANCH  19  20
HETATM   20  C   UNL     1      42.187 -10.226   9.197  1.00  0.00     0.171 C 
HETATM   21  C   UNL     1      43.510 -10.957   9.297  1.00  0.00     0.034 C 
ENDBRANCH  19  20
ENDBRANCH  16  19
ENDBRANCH   9  13
ENDBRANCH   1   7
BRANCH   2  22
HETATM   22  N   UNL     1      39.347 -13.820   1.317  1.00  0.00    -0.378 N 
HETATM   23  C   UNL     1      39.633 -12.373   1.313  1.00  0.00     0.133 C 
HETATM   24  C   UNL     1      39.283 -11.684  -0.028  1.00  0.00     0.054 C 
HETATM   25  C   UNL     1      37.824 -11.967  -0.370  1.00  0.00     0.020 C 
HETATM   26  C   UNL     1      40.177 -12.112  -1.180  1.00  0.00     0.020 A 
HETATM   27  C   UNL     1      37.697 -13.468  -0.560  1.00  0.00     0.023 C 
HETATM   28  C   UNL     1      38.557 -13.930  -1.741  1.00  0.00     0.138 C 
HETATM   29  C   UNL     1      38.054 -14.220   0.729  1.00  0.00     0.129 C 
HETATM   30  N   UNL     1      39.815 -13.218  -1.953  1.00  0.00    -0.317 N 
HETATM   31  C   UNL     1      40.585 -13.664  -3.034  1.00  0.00     0.247 A 
HETATM   32  O   UNL     1      40.289 -14.605  -3.767  1.00  0.00    -0.268 OA
HETATM   33  C   UNL     1      41.831 -12.907  -3.309  1.00  0.00     0.074 A 
HETATM   34  C   UNL     1      42.146 -11.842  -2.567  1.00  0.00     0.007 A 
HETATM   35  C   UNL     1      41.296 -11.427  -1.482  1.00  0.00     0.026 A 
ENDBRANCH   2  22
BRANCH   5  36
HETATM   36  C   UNL     1      43.468 -17.847   1.504  1.00  0.00     0.251 C 
HETATM   37  N   UNL     1      43.034 -19.126   1.776  1.00  0.00    -0.353 N 
HETATM   38  H   UNL     1      42.049 -19.342   1.692  1.00  0.00     0.163 HD
HETATM   39  O   UNL     1      44.639 -17.560   1.279  1.00  0.00    -0.268 OA
BRANCH  37  40
HETATM   40  C   UNL     1      43.944 -20.248   1.806  1.00  0.00     0.161 C 
BRANCH  40  41
HETATM   41  C   UNL     1      44.184 -20.704   3.224  1.00  0.00    -0.041 A 
HETATM   42  C   UNL     1      44.096 -19.807   4.298  1.00  0.00     0.009 A 
HETATM   43  C   UNL     1      44.307 -20.246   5.607  1.00  0.00     0.001 A 
HETATM   44  C   UNL     1      44.611 -21.583   5.857  1.00  0.00     0.000 A 
HETATM   45  C   UNL     1      44.705 -22.484   4.798  1.00  0.00     0.001 A 
HETATM   46  C   UNL     1      44.492 -22.048   3.489  1.00  0.00     0.009 A 
ENDBRANCH  40  41
ENDBRANCH  37  40
ENDBRANCH   5  36
TORSDOF 8
ENDMDL
MODEL 3
REMARK VINA RESULT:      -9.3      2.072      8.557
REMARK  8 active torsions:
REMARK  status: ('A' for Active; 'I' for Inactive)
REMARK    1  A    between atoms: C_2  and  O_3 
REMARK    2  A    between atoms: O_3  and  C_4 
REMARK    3  A    between atoms: C_7  and  N_8 
REMARK       I    between atoms: N_8  and  C_9 
REMARK       I    between atoms: C_9  and  N_10 
REMARK    4  A    between atoms: N_10  and  C_11 
REMARK    5  A    between atoms: C_12  and  N_13 
REMARK    6  A    between atoms: C_29  and  C_30 
REMARK       I    between atoms: C_30  and  N_31 
REMARK    7  A    between atoms: N_31  and  C_32 
REMARK    8  A    between atoms: C_32  and  C_33 
ROOT
HETATM    1  C   UNL     1      41.632 -12.259   4.643  1.00  0.00     0.043 A 
HETATM    2  C   UNL     1      40.764 -12.492   3.550  1.00  0.00     0.052 A 
HETATM    3  C   UNL     1      40.805 -13.799   3.023  1.00  0.00     0.032 A 
HETATM    4  C   UNL     1      41.603 -14.820   3.569  1.00  0.00     0.019 A 
HETATM    5  C   UNL     1      42.410 -14.567   4.673  1.00  0.00     0.033 A 
HETATM    6  C   UNL     1      42.442 -13.277   5.186  1.00  0.00     0.043 A 
ENDROOT
BRANCH   1   7
HETATM    7  N   UNL     1      41.765 -10.988   5.271  1.00  0.00    -0.213 NA
HETATM    8  C   UNL     1      41.386 -10.959   6.607  1.00  0.00     0.281 C 
HETATM    9  N   UNL     1      42.096 -10.017   7.341  1.00  0.00    -0.215 NA
HETATM   10  O   UNL     1      40.581 -11.762   7.078  1.00  0.00    -0.260 OA
HETATM   11  H   UNL     1      42.989  -9.822   6.908  1.00  0.00     0.138 HD
HETATM   12  H   UNL     1      41.366 -10.227   4.738  1.00  0.00     0.138 HD
BRANCH   9  13
HETATM   13  C   UNL     1      42.127 -10.233   8.744  1.00  0.00     0.016 C 
HETATM   14  C   UNL     1      41.308  -9.447   9.556  1.00  0.00     0.026 C 
HETATM   15  C   UNL     1      41.640  -9.286  10.902  1.00  0.00     0.038 C 
HETATM   16  C   UNL     1      42.767  -9.930  11.412  1.00  0.00     0.068 C 
HETATM   17  C   UNL     1      43.459 -10.873  10.655  1.00  0.00     0.038 C 
HETATM   18  C   UNL     1      43.136 -11.023   9.312  1.00  0.00     0.026 C 
BRANCH  16  19
HETATM   19  O   UNL     1      43.243  -9.527  12.633  1.00  0.00    -0.352 OA
BRANCH  19  20
HETATM   20  C   UNL     1      42.710 -10.392  13.655  1.00  0.00     0.171 C 
HETATM   21  C   UNL     1      42.461  -9.581  14.911  1.00  0.00     0.034 C 
ENDBRANCH  19  20
ENDBRANCH  16  19
ENDBRANCH   9  13
ENDBRANCH   1   7
BRANCH   2  22
HETATM   22  N   UNL     1      39.896 -11.520   3.039  1.00  0.00    -0.378 N 
HETATM   23  C   UNL     1      40.419 -10.314   2.371  1.00  0.00     0.133 C 
HETATM   24  C   UNL     1      40.077 -10.253   0.862  1.00  0.00     0.054 C 
HETATM   25  C   UNL     1      38.567 -10.380   0.686  1.00  0.00     0.020 C 
HETATM   26  C   UNL     1      40.786 -11.315   0.038  1.00  0.00     0.020 A 
HETATM   27  C   UNL     1      38.175 -11.752   1.208  1.00  0.00     0.023 C 
HETATM   28  C   UNL     1      38.842 -12.849   0.372  1.00  0.00     0.138 C 
HETATM   29  C   UNL     1      38.510 -11.892   2.698  1.00  0.00     0.129 C 
HETATM   30  N   UNL     1      40.179 -12.561  -0.141  1.00  0.00    -0.317 N 
HETATM   31  C   UNL     1      40.769 -13.583  -0.895  1.00  0.00     0.247 A 
HETATM   32  O   UNL     1      40.258 -14.679  -1.114  1.00  0.00    -0.268 OA
HETATM   33  C   UNL     1      42.096 -13.281  -1.485  1.00  0.00     0.074 A 
HETATM   34  C   UNL     1      42.648 -12.076  -1.315  1.00  0.00     0.007 A 
HETATM   35  C   UNL     1      41.974 -11.065  -0.543  1.00  0.00     0.026 A 
ENDBRANCH   2  22
BRANCH   5  36
HETATM   36  C   UNL     1      43.245 -15.657   5.254  1.00  0.00     0.251 C 
HETATM   37  N   UNL     1      43.217 -16.864   4.590  1.00  0.00    -0.353 N 
HETATM   38  H   UNL     1      42.870 -16.898   3.640  1.00  0.00     0.163 HD
HETATM   39  O   UNL     1      43.913 -15.452   6.263  1.00  0.00    -0.268 OA
BRANCH  37  40
HETATM   40  C   UNL     1      43.996 -17.996   5.036  1.00  0.00     0.161 C 
BRANCH  40  41
HETATM   41  C   UNL     1      43.974 -19.099   4.007  1.00  0.00    -0.041 A 
HETATM   42  C   UNL     1      43.225 -18.976   2.830  1.00  0.00     0.009 A 
HETATM   43  C   UNL     1      43.225 -20.000   1.879  1.00  0.00     0.001 A 
HETATM   44  C   UNL     1      43.970 -21.157   2.096  1.00  0.00     0.000 A 
HETATM   45  C   UNL     1      44.718 -21.293   3.265  1.00  0.00     0.001 A 
HETATM   46  C   UNL     1      44.720 -20.271   4.214  1.00  0.00     0.009 A 
ENDBRANCH  40  41
ENDBRANCH  37  40
ENDBRANCH   5  36
TORSDOF 8
ENDMDL
MODEL 4
REMARK VINA RESULT:      -9.0      2.130      8.658
REMARK  8 active torsions:
REMARK  status: ('A' for Active; 'I' for Inactive)
REMARK    1  A    between atoms: C_2  and  O_3 
REMARK    2  A    between atoms: O_3  and  C_4 
REMARK    3  A    between atoms: C_7  and  N_8 
REMARK       I    between atoms: N_8  and  C_9 
REMARK       I    between atoms: C_9  and  N_10 
REMARK    4  A    between atoms: N_10  and  C_11 
REMARK    5  A    between atoms: C_12  and  N_13 
REMARK    6  A    between atoms: C_29  and  C_30 
REMARK       I    between atoms: C_30  and  N_31 
REMARK    7  A    between atoms: N_31  and  C_32 
REMARK    8  A    between atoms: C_32  and  C_33 
ROOT
HETATM    1  C   UNL     1      40.133 -12.881   3.207  1.00  0.00     0.043 A 
HETATM    2  C   UNL     1      39.370 -13.208   2.062  1.00  0.00     0.052 A 
HETATM    3  C   UNL     1      39.384 -14.572   1.703  1.00  0.00     0.032 A 
HETATM    4  C   UNL     1      40.058 -15.554   2.453  1.00  0.00     0.019 A 
HETATM    5  C   UNL     1      40.761 -15.203   3.599  1.00  0.00     0.033 A 
HETATM    6  C   UNL     1      40.819 -13.861   3.955  1.00  0.00     0.043 A 
ENDROOT
BRANCH   1   7
HETATM    7  N   UNL     1      40.279 -11.550   3.689  1.00  0.00    -0.213 NA
HETATM    8  C   UNL     1      39.462 -11.230   4.766  1.00  0.00     0.281 C 
HETATM    9  N   UNL     1      40.033 -10.279   5.603  1.00  0.00    -0.215 NA
HETATM   10  O   UNL     1      38.402 -11.816   4.982  1.00  0.00    -0.260 OA
HETATM   11  H   UNL     1      41.042 -10.290   5.524  1.00  0.00     0.138 HD
HETATM   12  H   UNL     1      40.253 -10.849   2.960  1.00  0.00     0.138 HD
BRANCH   9  13
HETATM   13  C   UNL     1      39.520 -10.242   6.926  1.00  0.00     0.016 C 
HETATM   14  C   UNL     1      38.919  -9.065   7.373  1.00  0.00     0.026 C 
HETATM   15  C   UNL     1      38.842  -8.821   8.746  1.00  0.00     0.038 C 
HETATM   16  C   UNL     1      39.344  -9.767   9.639  1.00  0.00     0.068 C 
HETATM   17  C   UNL     1      39.752 -11.024   9.199  1.00  0.00     0.038 C 
HETATM   18  C   UNL     1      39.840 -11.261   7.833  1.00  0.00     0.026 C 
BRANCH  16  19
HETATM   19  O   UNL     1      39.535  -9.385  10.942  1.00  0.00    -0.352 OA
BRANCH  19  20
HETATM   20  C   UNL     1      40.146 -10.471  11.666  1.00  0.00     0.171 C 
HETATM   21  C   UNL     1      40.651  -9.957  12.999  1.00  0.00     0.034 C 
ENDBRANCH  19  20
ENDBRANCH  16  19
ENDBRANCH   9  13
ENDBRANCH   1   7
BRANCH   2  22
HETATM   22  N   UNL     1      38.620 -12.268   1.345  1.00  0.00    -0.378 N 
HETATM   23  C   UNL     1      39.243 -11.031   0.839  1.00  0.00     0.133 C 
HETATM   24  C   UNL     1      39.301 -10.963  -0.706  1.00  0.00     0.054 C 
HETATM   25  C   UNL     1      37.895 -11.152  -1.268  1.00  0.00     0.020 C 
HETATM   26  C   UNL     1      40.246 -11.981  -1.322  1.00  0.00     0.020 A 
HETATM   27  C   UNL     1      37.444 -12.547  -0.870  1.00  0.00     0.023 C 
HETATM   28  C   UNL     1      38.354 -13.603  -1.507  1.00  0.00     0.138 C 
HETATM   29  C   UNL     1      37.388 -12.695   0.656  1.00  0.00     0.129 C 
HETATM   30  N   UNL     1      39.764 -13.250  -1.655  1.00  0.00    -0.317 N 
HETATM   31  C   UNL     1      40.575 -14.234  -2.233  1.00  0.00     0.247 A 
HETATM   32  O   UNL     1      40.189 -15.347  -2.580  1.00  0.00    -0.268 OA
HETATM   33  C   UNL     1      41.994 -13.867  -2.458  1.00  0.00     0.074 A 
HETATM   34  C   UNL     1      42.428 -12.641  -2.147  1.00  0.00     0.007 A 
HETATM   35  C   UNL     1      41.531 -11.671  -1.574  1.00  0.00     0.026 A 
ENDBRANCH   2  22
BRANCH   5  36
HETATM   36  C   UNL     1      41.463 -16.249   4.395  1.00  0.00     0.251 C 
HETATM   37  N   UNL     1      42.708 -16.626   3.939  1.00  0.00    -0.353 N 
HETATM   38  H   UNL     1      43.194 -16.032   3.281  1.00  0.00     0.163 HD
HETATM   39  O   UNL     1      40.935 -16.721   5.397  1.00  0.00    -0.268 OA
BRANCH  37  40
HETATM   40  C   UNL     1      43.503 -17.616   4.629  1.00  0.00     0.161 C 
BRANCH  40  41
HETATM   41  C   UNL     1      43.692 -18.843   3.771  1.00  0.00    -0.041 A 
HETATM   42  C   UNL     1      43.050 -18.965   2.532  1.00  0.00     0.009 A 
HETATM   43  C   UNL     1      43.245 -20.101   1.742  1.00  0.00     0.001 A 
HETATM   44  C   UNL     1      44.079 -21.126   2.183  1.00  0.00     0.000 A 
HETATM   45  C   UNL     1      44.721 -21.018   3.415  1.00  0.00     0.001 A 
HETATM   46  C   UNL     1      44.529 -19.883   4.204  1.00  0.00     0.009 A 
ENDBRANCH  40  41
ENDBRANCH  37  40
ENDBRANCH   5  36
TORSDOF 8
ENDMDL
MODEL 5
REMARK VINA RESULT:      -8.7      3.467      8.173
REMARK  8 active torsions:
REMARK  status: ('A' for Active; 'I' for Inactive)
REMARK    1  A    between atoms: C_2  and  O_3 
REMARK    2  A    between atoms: O_3  and  C_4 
REMARK    3  A    between atoms: C_7  and  N_8 
REMARK       I    between atoms: N_8  and  C_9 
REMARK       I    between atoms: C_9  and  N_10 
REMARK    4  A    between atoms: N_10  and  C_11 
REMARK    5  A    between atoms: C_12  and  N_13 
REMARK    6  A    between atoms: C_29  and  C_30 
REMARK       I    between atoms: C_30  and  N_31 
REMARK    7  A    between atoms: N_31  and  C_32 
REMARK    8  A    between atoms: C_32  and  C_33 
ROOT
HETATM    1  C   UNL     1      42.007 -12.987   1.768  1.00  0.00     0.043 A 
HETATM    2  C   UNL     1      41.147 -11.995   2.292  1.00  0.00     0.052 A 
HETATM    3  C   UNL     1      41.009 -12.004   3.695  1.00  0.00     0.032 A 
HETATM    4  C   UNL     1      41.712 -12.893   4.528  1.00  0.00     0.019 A 
HETATM    5  C   UNL     1      42.585 -13.827   3.981  1.00  0.00     0.033 A 
HETATM    6  C   UNL     1      42.706 -13.888   2.599  1.00  0.00     0.043 A 
ENDROOT
BRANCH   1   7
HETATM    7  N   UNL     1      42.230 -13.165   0.373  1.00  0.00    -0.213 NA
HETATM    8  C   UNL     1      41.425 -14.128  -0.224  1.00  0.00     0.281 C 
HETATM    9  N   UNL     1      41.161 -13.846  -1.559  1.00  0.00    -0.215 NA
HETATM   10  O   UNL     1      40.934 -15.059   0.412  1.00  0.00    -0.260 OA
HETATM   11  H   UNL     1      41.243 -12.854  -1.740  1.00  0.00     0.138 HD
HETATM   12  H   UNL     1      43.206 -13.268   0.127  1.00  0.00     0.138 HD
BRANCH   9  13
HETATM   13  C   UNL     1      40.010 -14.477  -2.100  1.00  0.00     0.016 C 
HETATM   14  C   UNL     1      40.182 -15.407  -3.127  1.00  0.00     0.026 C 
HETATM   15  C   UNL     1      39.114 -15.678  -3.984  1.00  0.00     0.038 C 
HETATM   16  C   UNL     1      37.894 -15.034  -3.782  1.00  0.00     0.068 C 
HETATM   17  C   UNL     1      37.665 -14.270  -2.641  1.00  0.00     0.038 C 
HETATM   18  C   UNL     1      38.732 -13.990  -1.795  1.00  0.00     0.026 C 
BRANCH  16  19
HETATM   19  O   UNL     1      36.967 -15.078  -4.793  1.00  0.00    -0.352 OA
BRANCH  19  20
HETATM   20  C   UNL     1      36.281 -13.813  -4.857  1.00  0.00     0.171 C 
HETATM   21  C   UNL     1      34.786 -14.061  -4.898  1.00  0.00     0.034 C 
ENDBRANCH  19  20
ENDBRANCH  16  19
ENDBRANCH   9  13
ENDBRANCH   1   7
BRANCH   2  22
HETATM   22  N   UNL     1      40.500 -11.042   1.497  1.00  0.00    -0.378 N 
HETATM   23  C   UNL     1      39.070 -10.738   1.693  1.00  0.00     0.133 C 
HETATM   24  C   UNL     1      38.815  -9.300   2.205  1.00  0.00     0.054 C 
HETATM   25  C   UNL     1      39.474  -8.306   1.255  1.00  0.00     0.020 C 
HETATM   26  C   UNL     1      39.310  -9.066   3.623  1.00  0.00     0.020 A 
HETATM   27  C   UNL     1      40.969  -8.569   1.304  1.00  0.00     0.023 C 
HETATM   28  C   UNL     1      41.510  -8.305   2.713  1.00  0.00     0.138 C 
HETATM   29  C   UNL     1      41.294  -9.992   0.830  1.00  0.00     0.129 C 
HETATM   30  N   UNL     1      40.621  -8.628   3.827  1.00  0.00    -0.317 N 
HETATM   31  C   UNL     1      41.142  -8.384   5.104  1.00  0.00     0.247 A 
HETATM   32  O   UNL     1      42.272  -7.960   5.332  1.00  0.00    -0.268 OA
HETATM   33  C   UNL     1      40.229  -8.637   6.245  1.00  0.00     0.074 A 
HETATM   34  C   UNL     1      38.973  -9.039   6.023  1.00  0.00     0.007 A 
HETATM   35  C   UNL     1      38.499  -9.250   4.681  1.00  0.00     0.026 A 
ENDBRANCH   2  22
BRANCH   5  36
HETATM   36  C   UNL     1      43.336 -14.759   4.870  1.00  0.00     0.251 C 
HETATM   37  N   UNL     1      43.115 -16.103   4.665  1.00  0.00    -0.353 N 
HETATM   38  H   UNL     1      42.688 -16.409   3.800  1.00  0.00     0.163 HD
HETATM   39  O   UNL     1      44.104 -14.318   5.719  1.00  0.00    -0.268 OA
BRANCH  37  40
HETATM   40  C   UNL     1      43.794 -17.113   5.445  1.00  0.00     0.161 C 
BRANCH  40  41
HETATM   41  C   UNL     1      44.073 -18.337   4.608  1.00  0.00    -0.041 A 
HETATM   42  C   UNL     1      44.829 -19.403   5.113  1.00  0.00     0.009 A 
HETATM   43  C   UNL     1      45.068 -20.536   4.332  1.00  0.00     0.001 A 
HETATM   44  C   UNL     1      44.557 -20.615   3.038  1.00  0.00     0.000 A 
HETATM   45  C   UNL     1      43.805 -19.561   2.522  1.00  0.00     0.001 A 
HETATM   46  C   UNL     1      43.564 -18.429   3.302  1.00  0.00     0.009 A 
ENDBRANCH  40  41
ENDBRANCH  37  40
ENDBRANCH   5  36
TORSDOF 8
ENDMDL
MODEL 6
REMARK VINA RESULT:      -8.7      4.563      6.199
REMARK  8 active torsions:
REMARK  status: ('A' for Active; 'I' for Inactive)
REMARK    1  A    between atoms: C_2  and  O_3 
REMARK    2  A    between atoms: O_3  and  C_4 
REMARK    3  A    between atoms: C_7  and  N_8 
REMARK       I    between atoms: N_8  and  C_9 
REMARK       I    between atoms: C_9  and  N_10 
REMARK    4  A    between atoms: N_10  and  C_11 
REMARK    5  A    between atoms: C_12  and  N_13 
REMARK    6  A    between atoms: C_29  and  C_30 
REMARK       I    between atoms: C_30  and  N_31 
REMARK    7  A    between atoms: N_31  and  C_32 
REMARK    8  A    between atoms: C_32  and  C_33 
ROOT
HETATM    1  C   UNL     1      40.499 -12.424   1.748  1.00  0.00     0.043 A 
HETATM    2  C   UNL     1      40.164 -12.788   0.423  1.00  0.00     0.052 A 
HETATM    3  C   UNL     1      38.911 -12.323  -0.026  1.00  0.00     0.032 A 
HETATM    4  C   UNL     1      38.071 -11.510   0.758  1.00  0.00     0.019 A 
HETATM    5  C   UNL     1      38.453 -11.134   2.040  1.00  0.00     0.033 A 
HETATM    6  C   UNL     1      39.655 -11.619   2.541  1.00  0.00     0.043 A 
ENDROOT
BRANCH   1   7
HETATM    7  N   UNL     1      41.699 -12.845   2.389  1.00  0.00    -0.213 NA
HETATM    8  C   UNL     1      41.714 -14.181   2.771  1.00  0.00     0.281 C 
HETATM    9  N   UNL     1      42.994 -14.723   2.756  1.00  0.00    -0.215 NA
HETATM   10  O   UNL     1      40.682 -14.812   2.992  1.00  0.00    -0.260 OA
HETATM   11  H   UNL     1      43.592 -14.215   2.118  1.00  0.00     0.138 HD
HETATM   12  H   UNL     1      42.002 -12.226   3.130  1.00  0.00     0.138 HD
BRANCH   9  13
HETATM   13  C   UNL     1      43.056 -16.138   2.664  1.00  0.00     0.016 C 
HETATM   14  C   UNL     1      43.253 -16.873   3.835  1.00  0.00     0.026 C 
HETATM   15  C   UNL     1      43.784 -18.161   3.746  1.00  0.00     0.038 C 
HETATM   16  C   UNL     1      44.084 -18.694   2.493  1.00  0.00     0.068 C 
HETATM   17  C   UNL     1      43.696 -18.044   1.325  1.00  0.00     0.038 C 
HETATM   18  C   UNL     1      43.179 -16.757   1.413  1.00  0.00     0.026 C 
BRANCH  16  19
HETATM   19  O   UNL     1      44.872 -19.816   2.442  1.00  0.00    -0.352 OA
BRANCH  19  20
HETATM   20  C   UNL     1      44.065 -20.972   2.741  1.00  0.00     0.171 C 
HETATM   21  C   UNL     1      44.030 -21.878   1.528  1.00  0.00     0.034 C 
ENDBRANCH  19  20
ENDBRANCH  16  19
ENDBRANCH   9  13
ENDBRANCH   1   7
BRANCH   2  22
HETATM   22  N   UNL     1      41.015 -13.523  -0.410  1.00  0.00    -0.378 N 
HETATM   23  C   UNL     1      40.586 -14.815  -0.979  1.00  0.00     0.133 C 
HETATM   24  C   UNL     1      40.432 -14.783  -2.519  1.00  0.00     0.054 C 
HETATM   25  C   UNL     1      41.738 -14.302  -3.143  1.00  0.00     0.020 C 
HETATM   26  C   UNL     1      39.280 -13.912  -2.994  1.00  0.00     0.020 A 
HETATM   27  C   UNL     1      41.963 -12.879  -2.658  1.00  0.00     0.023 C 
HETATM   28  C   UNL     1      40.838 -11.965  -3.153  1.00  0.00     0.138 C 
HETATM   29  C   UNL     1      42.101 -12.833  -1.131  1.00  0.00     0.129 C 
HETATM   30  N   UNL     1      39.506 -12.557  -3.248  1.00  0.00    -0.317 N 
HETATM   31  C   UNL     1      38.495 -11.698  -3.696  1.00  0.00     0.247 A 
HETATM   32  O   UNL     1      38.652 -10.511  -3.972  1.00  0.00    -0.268 OA
HETATM   33  C   UNL     1      37.150 -12.300  -3.869  1.00  0.00     0.074 A 
HETATM   34  C   UNL     1      36.963 -13.603  -3.636  1.00  0.00     0.007 A 
HETATM   35  C   UNL     1      38.056 -14.432  -3.197  1.00  0.00     0.026 A 
ENDBRANCH   2  22
BRANCH   5  36
HETATM   36  C   UNL     1      37.564 -10.264   2.861  1.00  0.00     0.251 C 
HETATM   37  N   UNL     1      36.436  -9.783   2.231  1.00  0.00    -0.353 N 
HETATM   38  H   UNL     1      36.121 -10.223   1.377  1.00  0.00     0.163 HD
HETATM   39  O   UNL     1      37.848 -10.016   4.028  1.00  0.00    -0.268 OA
BRANCH  37  40
HETATM   40  C   UNL     1      35.480  -8.945   2.919  1.00  0.00     0.161 C 
BRANCH  40  41
HETATM   41  C   UNL     1      34.103  -9.560   2.877  1.00  0.00    -0.041 A 
HETATM   42  C   UNL     1      33.216  -9.423   3.954  1.00  0.00     0.009 A 
HETATM   43  C   UNL     1      31.939  -9.985   3.896  1.00  0.00     0.001 A 
HETATM   44  C   UNL     1      31.535 -10.692   2.764  1.00  0.00     0.000 A 
HETATM   45  C   UNL     1      32.408 -10.837   1.688  1.00  0.00     0.001 A 
HETATM   46  C   UNL     1      33.684 -10.274   1.743  1.00  0.00     0.009 A 
ENDBRANCH  40  41
ENDBRANCH  37  40
ENDBRANCH   5  36
TORSDOF 8
ENDMDL
MODEL 7
REMARK VINA RESULT:      -8.7      1.478      1.966
REMARK  8 active torsions:
REMARK  status: ('A' for Active; 'I' for Inactive)
REMARK    1  A    between atoms: C_2  and  O_3 
REMARK    2  A    between atoms: O_3  and  C_4 
REMARK    3  A    between atoms: C_7  and  N_8 
REMARK       I    between atoms: N_8  and  C_9 
REMARK       I    between atoms: C_9  and  N_10 
REMARK    4  A    between atoms: N_10  and  C_11 
REMARK    5  A    between atoms: C_12  and  N_13 
REMARK    6  A    between atoms: C_29  and  C_30 
REMARK       I    between atoms: C_30  and  N_31 
REMARK    7  A    between atoms: N_31  and  C_32 
REMARK    8  A    between atoms: C_32  and  C_33 
ROOT
HETATM    1  C   UNL     1      41.576 -12.944   3.872  1.00  0.00     0.043 A 
HETATM    2  C   UNL     1      40.447 -13.070   3.029  1.00  0.00     0.052 A 
HETATM    3  C   UNL     1      39.279 -12.429   3.493  1.00  0.00     0.032 A 
HETATM    4  C   UNL     1      39.242 -11.671   4.678  1.00  0.00     0.019 A 
HETATM    5  C   UNL     1      40.383 -11.532   5.460  1.00  0.00     0.033 A 
HETATM    6  C   UNL     1      41.538 -12.194   5.067  1.00  0.00     0.043 A 
ENDROOT
BRANCH   1   7
HETATM    7  N   UNL     1      42.826 -13.565   3.595  1.00  0.00    -0.213 NA
HETATM    8  C   UNL     1      42.923 -14.886   4.015  1.00  0.00     0.281 C 
HETATM    9  N   UNL     1      43.774 -15.637   3.213  1.00  0.00    -0.215 NA
HETATM   10  O   UNL     1      42.241 -15.333   4.935  1.00  0.00    -0.260 OA
HETATM   11  H   UNL     1      43.844 -15.235   2.287  1.00  0.00     0.138 HD
HETATM   12  H   UNL     1      43.626 -13.010   3.871  1.00  0.00     0.138 HD
BRANCH   9  13
HETATM   13  C   UNL     1      43.575 -17.042   3.261  1.00  0.00     0.016 C 
HETATM   14  C   UNL     1      43.732 -17.695   4.485  1.00  0.00     0.026 C 
HETATM   15  C   UNL     1      44.017 -19.061   4.493  1.00  0.00     0.038 C 
HETATM   16  C   UNL     1      44.114 -19.749   3.284  1.00  0.00     0.068 C 
HETATM   17  C   UNL     1      43.755 -19.143   2.083  1.00  0.00     0.038 C 
HETATM   18  C   UNL     1      43.484 -17.780   2.073  1.00  0.00     0.026 C 
BRANCH  16  19
HETATM   19  O   UNL     1      44.683 -20.997   3.297  1.00  0.00    -0.352 OA
BRANCH  19  20
HETATM   20  C   UNL     1      44.274 -21.688   4.494  1.00  0.00     0.171 C 
HETATM   21  C   UNL     1      45.434 -22.516   5.009  1.00  0.00     0.034 C 
ENDBRANCH  19  20
ENDBRANCH  16  19
ENDBRANCH   9  13
ENDBRANCH   1   7
BRANCH   2  22
HETATM   22  N   UNL     1      40.477 -13.744   1.803  1.00  0.00    -0.378 N 
HETATM   23  C   UNL     1      39.292 -14.473   1.312  1.00  0.00     0.133 C 
HETATM   24  C   UNL     1      38.676 -13.851   0.035  1.00  0.00     0.054 C 
HETATM   25  C   UNL     1      39.754 -13.745  -1.039  1.00  0.00     0.020 C 
HETATM   26  C   UNL     1      38.045 -12.489   0.270  1.00  0.00     0.020 A 
HETATM   27  C   UNL     1      40.815 -12.794  -0.511  1.00  0.00     0.023 C 
HETATM   28  C   UNL     1      40.220 -11.398  -0.299  1.00  0.00     0.138 C 
HETATM   29  C   UNL     1      41.453 -13.339   0.774  1.00  0.00     0.129 C 
HETATM   30  N   UNL     1      38.828 -11.339   0.140  1.00  0.00    -0.317 N 
HETATM   31  C   UNL     1      38.311 -10.052   0.332  1.00  0.00     0.247 A 
HETATM   32  O   UNL     1      38.947  -9.011   0.190  1.00  0.00    -0.268 OA
HETATM   33  C   UNL     1      36.878  -9.969   0.707  1.00  0.00     0.074 A 
HETATM   34  C   UNL     1      36.145 -11.082   0.809  1.00  0.00     0.007 A 
HETATM   35  C   UNL     1      36.739 -12.373   0.576  1.00  0.00     0.026 A 
ENDBRANCH   2  22
BRANCH   5  36
HETATM   36  C   UNL     1      40.338 -10.718   6.708  1.00  0.00     0.251 C 
HETATM   37  N   UNL     1      41.109 -11.172   7.757  1.00  0.00    -0.353 N 
HETATM   38  H   UNL     1      41.843 -11.844   7.576  1.00  0.00     0.163 HD
HETATM   39  O   UNL     1      39.649  -9.705   6.761  1.00  0.00    -0.268 OA
BRANCH  37  40
HETATM   40  C   UNL     1      41.172 -10.466   9.016  1.00  0.00     0.161 C 
BRANCH  40  41
HETATM   41  C   UNL     1      42.517 -10.661   9.672  1.00  0.00    -0.041 A 
HETATM   42  C   UNL     1      43.599 -11.193   8.959  1.00  0.00     0.009 A 
HETATM   43  C   UNL     1      44.843 -11.355   9.575  1.00  0.00     0.001 A 
HETATM   44  C   UNL     1      45.016 -10.991  10.909  1.00  0.00     0.000 A 
HETATM   45  C   UNL     1      43.947 -10.463  11.629  1.00  0.00     0.001 A 
HETATM   46  C   UNL     1      42.705 -10.298  11.015  1.00  0.00     0.009 A 
ENDBRANCH  40  41
ENDBRANCH  37  40
ENDBRANCH   5  36
TORSDOF 8
ENDMDL
MODEL 8
REMARK VINA RESULT:      -8.6      2.217      8.230
REMARK  8 active torsions:
REMARK  status: ('A' for Active; 'I' for Inactive)
REMARK    1  A    between atoms: C_2  and  O_3 
REMARK    2  A    between atoms: O_3  and  C_4 
REMARK    3  A    between atoms: C_7  and  N_8 
REMARK       I    between atoms: N_8  and  C_9 
REMARK       I    between atoms: C_9  and  N_10 
REMARK    4  A    between atoms: N_10  and  C_11 
REMARK    5  A    between atoms: C_12  and  N_13 
REMARK    6  A    between atoms: C_29  and  C_30 
REMARK       I    between atoms: C_30  and  N_31 
REMARK    7  A    between atoms: N_31  and  C_32 
REMARK    8  A    between atoms: C_32  and  C_33 
ROOT
HETATM    1  C   UNL     1      40.234 -14.349   3.369  1.00  0.00     0.043 A 
HETATM    2  C   UNL     1      40.539 -13.263   2.516  1.00  0.00     0.052 A 
HETATM    3  C   UNL     1      41.457 -13.551   1.485  1.00  0.00     0.032 A 
HETATM    4  C   UNL     1      41.995 -14.834   1.277  1.00  0.00     0.019 A 
HETATM    5  C   UNL     1      41.638 -15.890   2.108  1.00  0.00     0.033 A 
HETATM    6  C   UNL     1      40.780 -15.634   3.170  1.00  0.00     0.043 A 
ENDROOT
BRANCH   1   7
HETATM    7  N   UNL     1      39.369 -14.234   4.494  1.00  0.00    -0.213 NA
HETATM    8  C   UNL     1      39.893 -13.508   5.557  1.00  0.00     0.281 C 
HETATM    9  N   UNL     1      38.909 -12.858   6.292  1.00  0.00    -0.215 NA
HETATM   10  O   UNL     1      41.104 -13.390   5.737  1.00  0.00    -0.260 OA
HETATM   11  H   UNL     1      38.086 -12.695   5.727  1.00  0.00     0.138 HD
HETATM   12  H   UNL     1      38.965 -15.114   4.788  1.00  0.00     0.138 HD
BRANCH   9  13
HETATM   13  C   UNL     1      39.353 -11.754   7.065  1.00  0.00     0.016 C 
HETATM   14  C   UNL     1      40.062 -10.736   6.425  1.00  0.00     0.026 C 
HETATM   15  C   UNL     1      40.902  -9.914   7.180  1.00  0.00     0.038 C 
HETATM   16  C   UNL     1      40.996 -10.111   8.557  1.00  0.00     0.068 C 
HETATM   17  C   UNL     1      40.136 -10.986   9.218  1.00  0.00     0.038 C 
HETATM   18  C   UNL     1      39.310 -11.812   8.465  1.00  0.00     0.026 C 
BRANCH  16  19
HETATM   19  O   UNL     1      42.032  -9.510   9.224  1.00  0.00    -0.352 OA
BRANCH  19  20
HETATM   20  C   UNL     1      42.397 -10.324  10.357  1.00  0.00     0.171 C 
HETATM   21  C   UNL     1      43.892 -10.566  10.332  1.00  0.00     0.034 C 
ENDBRANCH  19  20
ENDBRANCH  16  19
ENDBRANCH   9  13
ENDBRANCH   1   7
BRANCH   2  22
HETATM   22  N   UNL     1      39.954 -11.997   2.646  1.00  0.00    -0.378 N 
HETATM   23  C   UNL     1      40.789 -10.790   2.789  1.00  0.00     0.133 C 
HETATM   24  C   UNL     1      40.681  -9.825   1.584  1.00  0.00     0.054 C 
HETATM   25  C   UNL     1      39.216  -9.469   1.358  1.00  0.00     0.020 C 
HETATM   26  C   UNL     1      41.281 -10.385   0.305  1.00  0.00     0.020 A 
HETATM   27  C   UNL     1      38.497 -10.758   1.000  1.00  0.00     0.023 C 
HETATM   28  C   UNL     1      39.051 -11.331  -0.308  1.00  0.00     0.138 C 
HETATM   29  C   UNL     1      38.584 -11.775   2.146  1.00  0.00     0.129 C 
HETATM   30  N   UNL     1      40.477 -11.136  -0.557  1.00  0.00    -0.317 N 
HETATM   31  C   UNL     1      40.959 -11.675  -1.756  1.00  0.00     0.247 A 
HETATM   32  O   UNL     1      40.283 -12.307  -2.564  1.00  0.00    -0.268 OA
HETATM   33  C   UNL     1      42.390 -11.425  -2.060  1.00  0.00     0.074 A 
HETATM   34  C   UNL     1      43.133 -10.688  -1.229  1.00  0.00     0.007 A 
HETATM   35  C   UNL     1      42.565 -10.147  -0.022  1.00  0.00     0.026 A 
ENDBRANCH   2  22
BRANCH   5  36
HETATM   36  C   UNL     1      42.203 -17.249   1.875  1.00  0.00     0.251 C 
HETATM   37  N   UNL     1      43.547 -17.402   2.138  1.00  0.00    -0.353 N 
HETATM   38  H   UNL     1      44.023 -16.709   2.701  1.00  0.00     0.163 HD
HETATM   39  O   UNL     1      41.481 -18.158   1.478  1.00  0.00    -0.268 OA
BRANCH  37  40
HETATM   40  C   UNL     1      44.215 -18.672   1.972  1.00  0.00     0.161 C 
BRANCH  40  41
HETATM   41  C   UNL     1      44.271 -19.422   3.281  1.00  0.00    -0.041 A 
HETATM   42  C   UNL     1      44.655 -20.768   3.328  1.00  0.00     0.009 A 
HETATM   43  C   UNL     1      44.716 -21.445   4.548  1.00  0.00     0.001 A 
HETATM   44  C   UNL     1      44.389 -20.786   5.732  1.00  0.00     0.000 A 
HETATM   45  C   UNL     1      44.003 -19.448   5.698  1.00  0.00     0.001 A 
HETATM   46  C   UNL     1      43.944 -18.769   4.480  1.00  0.00     0.009 A 
ENDBRANCH  40  41
ENDBRANCH  37  40
ENDBRANCH   5  36
TORSDOF 8
ENDMDL
MODEL 9
REMARK VINA RESULT:      -8.5      2.686     10.118
REMARK  8 active torsions:
REMARK  status: ('A' for Active; 'I' for Inactive)
REMARK    1  A    between atoms: C_2  and  O_3 
REMARK    2  A    between atoms: O_3  and  C_4 
REMARK    3  A    between atoms: C_7  and  N_8 
REMARK       I    between atoms: N_8  and  C_9 
REMARK       I    between atoms: C_9  and  N_10 
REMARK    4  A    between atoms: N_10  and  C_11 
REMARK    5  A    between atoms: C_12  and  N_13 
REMARK    6  A    between atoms: C_29  and  C_30 
REMARK       I    between atoms: C_30  and  N_31 
REMARK    7  A    between atoms: N_31  and  C_32 
REMARK    8  A    between atoms: C_32  and  C_33 
ROOT
HETATM    1  C   UNL     1      40.067 -12.496   3.622  1.00  0.00     0.043 A 
HETATM    2  C   UNL     1      40.482 -13.741   4.148  1.00  0.00     0.052 A 
HETATM    3  C   UNL     1      40.036 -14.872   3.432  1.00  0.00     0.032 A 
HETATM    4  C   UNL     1      39.281 -14.779   2.249  1.00  0.00     0.019 A 
HETATM    5  C   UNL     1      38.929 -13.536   1.735  1.00  0.00     0.033 A 
HETATM    6  C   UNL     1      39.300 -12.400   2.442  1.00  0.00     0.043 A 
ENDROOT
BRANCH   1   7
HETATM    7  N   UNL     1      40.376 -11.251   4.238  1.00  0.00    -0.213 NA
HETATM    8  C   UNL     1      39.531 -10.894   5.282  1.00  0.00     0.281 C 
HETATM    9  N   UNL     1      40.171 -10.121   6.243  1.00  0.00    -0.215 NA
HETATM   10  O   UNL     1      38.379 -11.318   5.367  1.00  0.00    -0.260 OA
HETATM   11  H   UNL     1      41.168 -10.287   6.233  1.00  0.00     0.138 HD
HETATM   12  H   UNL     1      40.518 -10.496   3.579  1.00  0.00     0.138 HD
BRANCH   9  13
HETATM   13  C   UNL     1      39.561 -10.113   7.525  1.00  0.00     0.016 C 
HETATM   14  C   UNL     1      38.928  -8.945   7.953  1.00  0.00     0.026 C 
HETATM   15  C   UNL     1      38.750  -8.732   9.321  1.00  0.00     0.038 C 
HETATM   16  C   UNL     1      39.185  -9.698  10.228  1.00  0.00     0.068 C 
HETATM   17  C   UNL     1      39.625 -10.945   9.792  1.00  0.00     0.038 C 
HETATM   18  C   UNL     1      39.814 -11.152   8.430  1.00  0.00     0.026 C 
BRANCH  16  19
HETATM   19  O   UNL     1      39.279  -9.345  11.550  1.00  0.00    -0.352 OA
BRANCH  19  20
HETATM   20  C   UNL     1      37.978  -8.941  12.022  1.00  0.00     0.171 C 
HETATM   21  C   UNL     1      38.124  -7.693  12.869  1.00  0.00     0.034 C 
ENDBRANCH  19  20
ENDBRANCH  16  19
ENDBRANCH   9  13
ENDBRANCH   1   7
BRANCH   2  22
HETATM   22  N   UNL     1      41.304 -13.863   5.275  1.00  0.00    -0.378 N 
HETATM   23  C   UNL     1      41.195 -15.031   6.168  1.00  0.00     0.133 C 
HETATM   24  C   UNL     1      42.454 -15.932   6.153  1.00  0.00     0.054 C 
HETATM   25  C   UNL     1      43.679 -15.086   6.485  1.00  0.00     0.020 C 
HETATM   26  C   UNL     1      42.665 -16.654   4.833  1.00  0.00     0.020 A 
HETATM   27  C   UNL     1      43.818 -14.056   5.377  1.00  0.00     0.023 C 
HETATM   28  C   UNL     1      44.072 -14.750   4.034  1.00  0.00     0.138 C 
HETATM   29  C   UNL     1      42.589 -13.140   5.317  1.00  0.00     0.129 C 
HETATM   30  N   UNL     1      43.413 -16.037   3.827  1.00  0.00    -0.317 N 
HETATM   31  C   UNL     1      43.656 -16.646   2.589  1.00  0.00     0.247 A 
HETATM   32  O   UNL     1      44.340 -16.162   1.691  1.00  0.00    -0.268 OA
HETATM   33  C   UNL     1      43.055 -17.987   2.388  1.00  0.00     0.074 A 
HETATM   34  C   UNL     1      42.358 -18.564   3.372  1.00  0.00     0.007 A 
HETATM   35  C   UNL     1      42.166 -17.887   4.628  1.00  0.00     0.026 A 
ENDBRANCH   2  22
BRANCH   5  36
HETATM   36  C   UNL     1      38.139 -13.445   0.474  1.00  0.00     0.251 C 
HETATM   37  N   UNL     1      38.751 -12.806  -0.582  1.00  0.00    -0.353 N 
HETATM   38  H   UNL     1      39.753 -12.666  -0.562  1.00  0.00     0.163 HD
HETATM   39  O   UNL     1      37.013 -13.929   0.415  1.00  0.00    -0.268 OA
BRANCH  37  40
HETATM   40  C   UNL     1      38.103 -12.667  -1.866  1.00  0.00     0.161 C 
BRANCH  40  41
HETATM   41  C   UNL     1      38.391 -13.861  -2.743  1.00  0.00    -0.041 A 
HETATM   42  C   UNL     1      37.404 -14.400  -3.579  1.00  0.00     0.009 A 
HETATM   43  C   UNL     1      37.689 -15.497  -4.396  1.00  0.00     0.001 A 
HETATM   44  C   UNL     1      38.960 -16.068  -4.383  1.00  0.00     0.000 A 
HETATM   45  C   UNL     1      39.949 -15.543  -3.554  1.00  0.00     0.001 A 
HETATM   46  C   UNL     1      39.667 -14.446  -2.739  1.00  0.00     0.009 A 
ENDBRANCH  40  41
ENDBRANCH  37  40
ENDBRANCH   5  36
TORSDOF 8
ENDMDL
MODEL 10
REMARK VINA RESULT:      -8.4      2.306      7.684
REMARK  8 active torsions:
REMARK  status: ('A' for Active; 'I' for Inactive)
REMARK    1  A    between atoms: C_2  and  O_3 
REMARK    2  A    between atoms: O_3  and  C_4 
REMARK    3  A    between atoms: C_7  and  N_8 
REMARK       I    between atoms: N_8  and  C_9 
REMARK       I    between atoms: C_9  and  N_10 
REMARK    4  A    between atoms: N_10  and  C_11 
REMARK    5  A    between atoms: C_12  and  N_13 
REMARK    6  A    between atoms: C_29  and  C_30 
REMARK       I    between atoms: C_30  and  N_31 
REMARK    7  A    between atoms: N_31  and  C_32 
REMARK    8  A    between atoms: C_32  and  C_33 
ROOT
HETATM    1  C   UNL     1      41.510 -12.506   3.518  1.00  0.00     0.043 A 
HETATM    2  C   UNL     1      42.233 -13.683   3.822  1.00  0.00     0.052 A 
HETATM    3  C   UNL     1      42.764 -13.738   5.127  1.00  0.00     0.032 A 
HETATM    4  C   UNL     1      42.550 -12.729   6.084  1.00  0.00     0.019 A 
HETATM    5  C   UNL     1      41.795 -11.606   5.764  1.00  0.00     0.033 A 
HETATM    6  C   UNL     1      41.303 -11.487   4.471  1.00  0.00     0.043 A 
ENDROOT
BRANCH   1   7
HETATM    7  N   UNL     1      40.946 -12.250   2.236  1.00  0.00    -0.213 NA
HETATM    8  C   UNL     1      39.564 -12.384   2.173  1.00  0.00     0.281 C 
HETATM    9  N   UNL     1      38.991 -11.545   1.225  1.00  0.00    -0.215 NA
HETATM   10  O   UNL     1      38.938 -13.100   2.954  1.00  0.00    -0.260 OA
HETATM   11  H   UNL     1      39.582 -10.742   1.052  1.00  0.00     0.138 HD
HETATM   12  H   UNL     1      41.417 -12.731   1.481  1.00  0.00     0.138 HD
BRANCH   9  13
HETATM   13  C   UNL     1      37.612 -11.266   1.411  1.00  0.00     0.016 C 
HETATM   14  C   UNL     1      36.686 -11.913   0.590  1.00  0.00     0.026 C 
HETATM   15  C   UNL     1      35.426 -11.341   0.407  1.00  0.00     0.038 C 
HETATM   16  C   UNL     1      35.110 -10.153   1.064  1.00  0.00     0.068 C 
HETATM   17  C   UNL     1      35.954  -9.624   2.037  1.00  0.00     0.038 C 
HETATM   18  C   UNL     1      37.214 -10.186   2.210  1.00  0.00     0.026 C 
BRANCH  16  19
HETATM   19  O   UNL     1      34.004  -9.458   0.644  1.00  0.00    -0.352 OA
BRANCH  19  20
HETATM   20  C   UNL     1      33.142  -9.220   1.773  1.00  0.00     0.171 C 
HETATM   21  C   UNL     1      32.364 -10.485   2.078  1.00  0.00     0.034 C 
ENDBRANCH  19  20
ENDBRANCH  16  19
ENDBRANCH   9  13
ENDBRANCH   1   7
BRANCH   2  22
HETATM   22  N   UNL     1      42.389 -14.741   2.920  1.00  0.00    -0.378 N 
HETATM   23  C   UNL     1      43.662 -15.483   2.837  1.00  0.00     0.133 C 
HETATM   24  C   UNL     1      43.543 -16.956   3.296  1.00  0.00     0.054 C 
HETATM   25  C   UNL     1      42.442 -17.642   2.493  1.00  0.00     0.020 C 
HETATM   26  C   UNL     1      43.270 -17.106   4.783  1.00  0.00     0.020 A 
HETATM   27  C   UNL     1      41.142 -16.933   2.830  1.00  0.00     0.023 C 
HETATM   28  C   UNL     1      40.815 -17.098   4.317  1.00  0.00     0.138 C 
HETATM   29  C   UNL     1      41.198 -15.455   2.423  1.00  0.00     0.129 C 
HETATM   30  N   UNL     1      41.949 -17.130   5.238  1.00  0.00    -0.317 N 
HETATM   31  C   UNL     1      41.623 -17.274   6.592  1.00  0.00     0.247 A 
HETATM   32  O   UNL     1      40.479 -17.341   7.036  1.00  0.00    -0.268 OA
HETATM   33  C   UNL     1      42.763 -17.381   7.535  1.00  0.00     0.074 A 
HETATM   34  C   UNL     1      44.018 -17.374   7.073  1.00  0.00     0.007 A 
HETATM   35  C   UNL     1      44.279 -17.243   5.663  1.00  0.00     0.026 A 
ENDBRANCH   2  22
BRANCH   5  36
HETATM   36  C   UNL     1      41.564 -10.546   6.786  1.00  0.00     0.251 C 
HETATM   37  N   UNL     1      41.133 -10.977   8.022  1.00  0.00    -0.353 N 
HETATM   38  H   UNL     1      41.240 -11.952   8.270  1.00  0.00     0.163 HD
HETATM   39  O   UNL     1      41.762  -9.367   6.508  1.00  0.00    -0.268 OA
BRANCH  37  40
HETATM   40  C   UNL     1      40.890 -10.054   9.107  1.00  0.00     0.161 C 
BRANCH  40  41
HETATM   41  C   UNL     1      42.000 -10.124  10.127  1.00  0.00    -0.041 A 
HETATM   42  C   UNL     1      41.879  -9.494  11.373  1.00  0.00     0.009 A 
HETATM   43  C   UNL     1      42.909  -9.579  12.313  1.00  0.00     0.001 A 
HETATM   44  C   UNL     1      44.070 -10.291  12.018  1.00  0.00     0.000 A 
HETATM   45  C   UNL     1      44.203 -10.920  10.781  1.00  0.00     0.001 A 
HETATM   46  C   UNL     1      43.175 -10.838   9.842  1.00  0.00     0.009 A 
ENDBRANCH  40  41
ENDBRANCH  37  40
ENDBRANCH   5  36
TORSDOF 8
ENDMDL
