MODEL 1
REMARK VINA RESULT:      -8.1      0.000      0.000
REMARK  3 active torsions:
REMARK  status: ('A' for Active; 'I' for Inactive)
REMARK    1  A    between atoms: C_7  and  C_8 
REMARK       I    between atoms: C_8  and  N_9 
REMARK    2  A    between atoms: C_19  and  C_20 
REMARK    3  A    between atoms: C_22  and  O_23 
ROOT
HETATM    1  C   UNL     1      40.879 -15.144   0.334  1.00  0.00     0.258 C 
HETATM    2  N   UNL     1      41.010 -15.474   1.684  1.00  0.00    -0.340 N 
HETATM    3  C   UNL     1      40.966 -14.581   2.836  1.00  0.00     0.123 C 
HETATM    4  C   UNL     1      40.994 -15.526   4.072  1.00  0.00     0.221 C 
HETATM    5  N   UNL     1      42.135 -15.107   5.008  1.00  0.00    -0.064 N 
HETATM    6  H   UNL     1      42.158 -15.740   5.820  1.00  0.00     0.280 HD
HETATM    7  C   UNL     1      43.526 -15.098   4.390  1.00  0.00     0.236 C 
HETATM    8  C   UNL     1      43.469 -14.325   3.080  1.00  0.00     0.034 C 
HETATM    9  C   UNL     1      42.133 -13.572   2.964  1.00  0.00     0.014 C 
HETATM   10  C   UNL     1      41.927 -12.760   4.265  1.00  0.00     0.034 C 
HETATM   11  C   UNL     1      41.852 -13.686   5.489  1.00  0.00     0.236 C 
HETATM   12  C   UNL     1      40.971 -16.987   3.539  1.00  0.00     0.070 C 
HETATM   13  C   UNL     1      40.583 -16.811   2.065  1.00  0.00     0.138 C 
HETATM   14  O   UNL     1      41.028 -15.986  -0.544  1.00  0.00    -0.267 OA
ENDROOT
BRANCH   1  15
HETATM   15  C   UNL     1      40.426 -13.814   0.028  1.00  0.00     0.089 C 
HETATM   16  C   UNL     1      39.107 -13.305   0.167  1.00  0.00     0.076 C 
HETATM   17  C   UNL     1      37.891 -14.026   0.615  1.00  0.00     0.074 C 
HETATM   18  N   UNL     1      39.046 -12.017  -0.184  1.00  0.00    -0.132 NA
HETATM   19  O   UNL     1      40.300 -11.704  -0.675  1.00  0.00    -0.217 OA
HETATM   20  C   UNL     1      41.112 -12.791  -0.584  1.00  0.00     0.092 C 
HETATM   21  C   UNL     1      42.471 -12.621  -1.129  1.00  0.00     0.080 C 
ENDBRANCH   1  15
BRANCH  12  22
HETATM   22  C   UNL     1      42.165 -17.883   3.791  1.00  0.00    -0.048 A 
HETATM   23  C   UNL     1      42.487 -18.389   5.065  1.00  0.00     0.044 A 
HETATM   24  C   UNL     1      43.596 -19.215   5.230  1.00  0.00     0.066 A 
HETATM   25  C   UNL     1      44.401 -19.555   4.151  1.00  0.00     0.036 A 
HETATM   26  C   UNL     1      44.109 -19.045   2.890  1.00  0.00     0.003 A 
HETATM   27  C   UNL     1      43.004 -18.212   2.709  1.00  0.00     0.008 A 
BRANCH  24  28
HETATM   28  O   UNL     1      43.919 -19.728   6.449  1.00  0.00    -0.361 OA
HETATM   29  H   UNL     1      44.149 -19.007   7.059  1.00  0.00     0.217 HD
ENDBRANCH  24  28
ENDBRANCH  12  22
TORSDOF 3
ENDMDL
MODEL 2
REMARK VINA RESULT:      -8.0      0.516      1.595
REMARK  3 active torsions:
REMARK  status: ('A' for Active; 'I' for Inactive)
REMARK    1  A    between atoms: C_7  and  C_8 
REMARK       I    between atoms: C_8  and  N_9 
REMARK    2  A    between atoms: C_19  and  C_20 
REMARK    3  A    between atoms: C_22  and  O_23 
ROOT
HETATM    1  C   UNL     1      40.742 -15.151   0.097  1.00  0.00     0.258 C 
HETATM    2  N   UNL     1      40.891 -15.536   1.430  1.00  0.00    -0.340 N 
HETATM    3  C   UNL     1      40.759 -14.710   2.625  1.00  0.00     0.123 C 
HETATM    4  C   UNL     1      40.861 -15.711   3.813  1.00  0.00     0.221 C 
HETATM    5  N   UNL     1      41.952 -15.240   4.782  1.00  0.00    -0.064 N 
HETATM    6  H   UNL     1      42.025 -15.909   5.561  1.00  0.00     0.280 HD
HETATM    7  C   UNL     1      43.342 -15.078   4.182  1.00  0.00     0.236 C 
HETATM    8  C   UNL     1      43.227 -14.248   2.911  1.00  0.00     0.034 C 
HETATM    9  C   UNL     1      41.831 -13.610   2.817  1.00  0.00     0.014 C 
HETATM   10  C   UNL     1      41.544 -12.886   4.154  1.00  0.00     0.034 C 
HETATM   11  C   UNL     1      41.542 -13.876   5.329  1.00  0.00     0.236 C 
HETATM   12  C   UNL     1      40.971 -17.139   3.208  1.00  0.00     0.070 C 
HETATM   13  C   UNL     1      40.580 -16.923   1.739  1.00  0.00     0.138 C 
HETATM   14  O   UNL     1      40.971 -15.931  -0.820  1.00  0.00    -0.267 OA
ENDROOT
BRANCH   1  15
HETATM   15  C   UNL     1      40.175 -13.852  -0.149  1.00  0.00     0.089 C 
HETATM   16  C   UNL     1      40.865 -12.680  -0.557  1.00  0.00     0.076 C 
HETATM   17  C   UNL     1      42.320 -12.507  -0.785  1.00  0.00     0.074 C 
HETATM   18  N   UNL     1      40.023 -11.655  -0.719  1.00  0.00    -0.132 NA
HETATM   19  O   UNL     1      38.789 -12.115  -0.298  1.00  0.00    -0.217 OA
HETATM   20  C   UNL     1      38.891 -13.417   0.081  1.00  0.00     0.092 C 
HETATM   21  C   UNL     1      37.659 -14.026   0.614  1.00  0.00     0.080 C 
ENDBRANCH   1  15
BRANCH  12  22
HETATM   22  C   UNL     1      42.237 -17.938   3.429  1.00  0.00    -0.048 A 
HETATM   23  C   UNL     1      42.601 -18.463   4.683  1.00  0.00     0.044 A 
HETATM   24  C   UNL     1      43.778 -19.196   4.820  1.00  0.00     0.066 A 
HETATM   25  C   UNL     1      44.608 -19.424   3.733  1.00  0.00     0.036 A 
HETATM   26  C   UNL     1      44.275 -18.893   2.490  1.00  0.00     0.003 A 
HETATM   27  C   UNL     1      43.101 -18.152   2.338  1.00  0.00     0.008 A 
BRANCH  24  28
HETATM   28  O   UNL     1      44.144 -19.725   6.020  1.00  0.00    -0.361 OA
HETATM   29  H   UNL     1      43.431 -19.597   6.668  1.00  0.00     0.217 HD
ENDBRANCH  24  28
ENDBRANCH  12  22
TORSDOF 3
ENDMDL
MODEL 3
REMARK VINA RESULT:      -7.7      2.326      6.500
REMARK  3 active torsions:
REMARK  status: ('A' for Active; 'I' for Inactive)
REMARK    1  A    between atoms: C_7  and  C_8 
REMARK       I    between atoms: C_8  and  N_9 
REMARK    2  A    between atoms: C_19  and  C_20 
REMARK    3  A    between atoms: C_22  and  O_23 
ROOT
HETATM    1  C   UNL     1      42.101 -14.914   4.858  1.00  0.00     0.258 C 
HETATM    2  N   UNL     1      41.777 -15.665   3.727  1.00  0.00    -0.340 N 
HETATM    3  C   UNL     1      42.051 -17.076   3.475  1.00  0.00     0.123 C 
HETATM    4  C   UNL     1      41.312 -17.392   2.143  1.00  0.00     0.221 C 
HETATM    5  N   UNL     1      42.298 -18.017   1.149  1.00  0.00    -0.064 N 
HETATM    6  H   UNL     1      41.809 -18.216   0.265  1.00  0.00     0.280 HD
HETATM    7  C   UNL     1      43.523 -17.175   0.818  1.00  0.00     0.236 C 
HETATM    8  C   UNL     1      44.154 -16.706   2.122  1.00  0.00     0.034 C 
HETATM    9  C   UNL     1      43.541 -17.463   3.313  1.00  0.00     0.014 C 
HETATM   10  C   UNL     1      43.614 -18.978   3.005  1.00  0.00     0.034 C 
HETATM   11  C   UNL     1      42.805 -19.326   1.747  1.00  0.00     0.236 C 
HETATM   12  C   UNL     1      40.546 -16.106   1.720  1.00  0.00     0.070 C 
HETATM   13  C   UNL     1      40.599 -15.241   2.987  1.00  0.00     0.138 C 
HETATM   14  O   UNL     1      41.890 -13.708   4.902  1.00  0.00    -0.267 OA
ENDROOT
BRANCH   1  15
HETATM   15  C   UNL     1      42.558 -15.637   6.013  1.00  0.00     0.089 C 
HETATM   16  C   UNL     1      41.849 -16.634   6.737  1.00  0.00     0.076 C 
HETATM   17  C   UNL     1      40.471 -17.128   6.501  1.00  0.00     0.074 C 
HETATM   18  N   UNL     1      42.585 -17.118   7.742  1.00  0.00    -0.132 NA
HETATM   19  O   UNL     1      43.738 -16.355   7.762  1.00  0.00    -0.217 OA
HETATM   20  C   UNL     1      43.701 -15.443   6.753  1.00  0.00     0.092 C 
HETATM   21  C   UNL     1      44.844 -14.515   6.688  1.00  0.00     0.080 C 
ENDBRANCH   1  15
BRANCH  12  22
HETATM   22  C   UNL     1      40.940 -15.401   0.439  1.00  0.00    -0.048 A 
HETATM   23  C   UNL     1      40.768 -15.976  -0.834  1.00  0.00     0.044 A 
HETATM   24  C   UNL     1      41.145 -15.273  -1.976  1.00  0.00     0.066 A 
HETATM   25  C   UNL     1      41.691 -14.001  -1.884  1.00  0.00     0.036 A 
HETATM   26  C   UNL     1      41.888 -13.426  -0.632  1.00  0.00     0.003 A 
HETATM   27  C   UNL     1      41.520 -14.121   0.523  1.00  0.00     0.008 A 
BRANCH  24  28
HETATM   28  O   UNL     1      40.976 -15.803  -3.219  1.00  0.00    -0.361 OA
HETATM   29  H   UNL     1      40.516 -16.656  -3.154  1.00  0.00     0.217 HD
ENDBRANCH  24  28
ENDBRANCH  12  22
TORSDOF 3
ENDMDL
MODEL 4
REMARK VINA RESULT:      -7.4      2.953      5.414
REMARK  3 active torsions:
REMARK  status: ('A' for Active; 'I' for Inactive)
REMARK    1  A    between atoms: C_7  and  C_8 
REMARK       I    between atoms: C_8  and  N_9 
REMARK    2  A    between atoms: C_19  and  C_20 
REMARK    3  A    between atoms: C_22  and  O_23 
ROOT
HETATM    1  C   UNL     1      40.311 -12.620  -0.884  1.00  0.00     0.258 C 
HETATM    2  N   UNL     1      40.938 -13.029   0.294  1.00  0.00    -0.340 N 
HETATM    3  C   UNL     1      41.529 -14.328   0.593  1.00  0.00     0.123 C 
HETATM    4  C   UNL     1      42.222 -14.139   1.975  1.00  0.00     0.221 C 
HETATM    5  N   UNL     1      41.728 -15.220   2.944  1.00  0.00    -0.064 N 
HETATM    6  H   UNL     1      42.179 -15.087   3.859  1.00  0.00     0.280 HD
HETATM    7  C   UNL     1      40.223 -15.263   3.174  1.00  0.00     0.236 C 
HETATM    8  C   UNL     1      39.527 -15.263   1.820  1.00  0.00     0.034 C 
HETATM    9  C   UNL     1      40.546 -15.519   0.697  1.00  0.00     0.014 C 
HETATM   10  C   UNL     1      41.359 -16.783   1.066  1.00  0.00     0.034 C 
HETATM   11  C   UNL     1      42.130 -16.580   2.379  1.00  0.00     0.236 C 
HETATM   12  C   UNL     1      42.053 -12.647   2.379  1.00  0.00     0.070 C 
HETATM   13  C   UNL     1      41.587 -11.987   1.074  1.00  0.00     0.138 C 
HETATM   14  O   UNL     1      39.773 -11.522  -0.971  1.00  0.00    -0.267 OA
ENDROOT
BRANCH   1  15
HETATM   15  C   UNL     1      40.446 -13.480  -2.028  1.00  0.00     0.089 C 
HETATM   16  C   UNL     1      41.602 -13.659  -2.834  1.00  0.00     0.076 C 
HETATM   17  C   UNL     1      42.915 -12.979  -2.714  1.00  0.00     0.074 C 
HETATM   18  N   UNL     1      41.385 -14.556  -3.800  1.00  0.00    -0.132 NA
HETATM   19  O   UNL     1      40.044 -14.883  -3.712  1.00  0.00    -0.217 OA
HETATM   20  C   UNL     1      39.475 -14.207  -2.678  1.00  0.00     0.092 C 
HETATM   21  C   UNL     1      38.026 -14.411  -2.500  1.00  0.00     0.080 C 
ENDBRANCH   1  15
BRANCH  12  22
HETATM   22  C   UNL     1      41.235 -12.303   3.605  1.00  0.00    -0.048 A 
HETATM   23  C   UNL     1      39.897 -11.871   3.536  1.00  0.00     0.044 A 
HETATM   24  C   UNL     1      39.196 -11.576   4.703  1.00  0.00     0.066 A 
HETATM   25  C   UNL     1      39.795 -11.702   5.948  1.00  0.00     0.036 A 
HETATM   26  C   UNL     1      41.124 -12.107   6.033  1.00  0.00     0.003 A 
HETATM   27  C   UNL     1      41.842 -12.401   4.872  1.00  0.00     0.008 A 
BRANCH  24  28
HETATM   28  O   UNL     1      37.897 -11.170   4.662  1.00  0.00    -0.361 OA
HETATM   29  H   UNL     1      37.476 -11.493   3.849  1.00  0.00     0.217 HD
ENDBRANCH  24  28
ENDBRANCH  12  22
TORSDOF 3
ENDMDL
MODEL 5
REMARK VINA RESULT:      -7.2      1.913      3.607
REMARK  3 active torsions:
REMARK  status: ('A' for Active; 'I' for Inactive)
REMARK    1  A    between atoms: C_7  and  C_8 
REMARK       I    between atoms: C_8  and  N_9 
REMARK    2  A    between atoms: C_19  and  C_20 
REMARK    3  A    between atoms: C_22  and  O_23 
ROOT
HETATM    1  C   UNL     1      40.156 -13.211   2.795  1.00  0.00     0.258 C 
HETATM    2  N   UNL     1      41.258 -14.052   2.950  1.00  0.00    -0.340 N 
HETATM    3  C   UNL     1      41.948 -14.827   1.926  1.00  0.00     0.123 C 
HETATM    4  C   UNL     1      43.189 -15.426   2.650  1.00  0.00     0.221 C 
HETATM    5  N   UNL     1      43.213 -16.946   2.448  1.00  0.00    -0.064 N 
HETATM    6  H   UNL     1      44.028 -17.341   2.936  1.00  0.00     0.280 HD
HETATM    7  C   UNL     1      41.979 -17.695   2.931  1.00  0.00     0.236 C 
HETATM    8  C   UNL     1      40.743 -17.004   2.372  1.00  0.00     0.034 C 
HETATM    9  C   UNL     1      41.145 -15.987   1.290  1.00  0.00     0.014 C 
HETATM   10  C   UNL     1      42.063 -16.708   0.274  1.00  0.00     0.034 C 
HETATM   11  C   UNL     1      43.343 -17.221   0.952  1.00  0.00     0.236 C 
HETATM   12  C   UNL     1      43.191 -14.871   4.103  1.00  0.00     0.070 C 
HETATM   13  C   UNL     1      42.169 -13.728   4.037  1.00  0.00     0.138 C 
HETATM   14  O   UNL     1      39.614 -12.686   3.762  1.00  0.00    -0.267 OA
ENDROOT
BRANCH   1  15
HETATM   15  C   UNL     1      39.774 -12.875   1.450  1.00  0.00     0.089 C 
HETATM   16  C   UNL     1      40.351 -11.879   0.619  1.00  0.00     0.076 C 
HETATM   17  C   UNL     1      41.443 -10.931   0.950  1.00  0.00     0.074 C 
HETATM   18  N   UNL     1      39.769 -11.855  -0.584  1.00  0.00    -0.132 NA
HETATM   19  O   UNL     1      38.720 -12.753  -0.509  1.00  0.00    -0.217 OA
HETATM   20  C   UNL     1      38.700 -13.332   0.722  1.00  0.00     0.092 C 
HETATM   21  C   UNL     1      37.592 -14.272   0.968  1.00  0.00     0.080 C 
ENDBRANCH   1  15
BRANCH  12  22
HETATM   22  C   UNL     1      43.013 -15.832   5.260  1.00  0.00    -0.048 A 
HETATM   23  C   UNL     1      44.059 -16.631   5.758  1.00  0.00     0.044 A 
HETATM   24  C   UNL     1      43.833 -17.491   6.830  1.00  0.00     0.066 A 
HETATM   25  C   UNL     1      42.582 -17.577   7.426  1.00  0.00     0.036 A 
HETATM   26  C   UNL     1      41.532 -16.810   6.931  1.00  0.00     0.003 A 
HETATM   27  C   UNL     1      41.742 -15.948   5.853  1.00  0.00     0.008 A 
BRANCH  24  28
HETATM   28  O   UNL     1      44.832 -18.263   7.339  1.00  0.00    -0.361 OA
HETATM   29  H   UNL     1      45.581 -17.702   7.601  1.00  0.00     0.217 HD
ENDBRANCH  24  28
ENDBRANCH  12  22
TORSDOF 3
ENDMDL
MODEL 6
REMARK VINA RESULT:      -7.1      2.092      3.393
REMARK  3 active torsions:
REMARK  status: ('A' for Active; 'I' for Inactive)
REMARK    1  A    between atoms: C_7  and  C_8 
REMARK       I    between atoms: C_8  and  N_9 
REMARK    2  A    between atoms: C_19  and  C_20 
REMARK    3  A    between atoms: C_22  and  O_23 
ROOT
HETATM    1  C   UNL     1      40.173 -12.863   2.350  1.00  0.00     0.258 C 
HETATM    2  N   UNL     1      41.195 -13.783   2.588  1.00  0.00    -0.340 N 
HETATM    3  C   UNL     1      41.867 -14.649   1.625  1.00  0.00     0.123 C 
HETATM    4  C   UNL     1      43.020 -15.316   2.430  1.00  0.00     0.221 C 
HETATM    5  N   UNL     1      42.930 -16.840   2.281  1.00  0.00    -0.064 N 
HETATM    6  H   UNL     1      43.687 -17.280   2.822  1.00  0.00     0.280 HD
HETATM    7  C   UNL     1      41.618 -17.470   2.729  1.00  0.00     0.236 C 
HETATM    8  C   UNL     1      40.469 -16.704   2.087  1.00  0.00     0.034 C 
HETATM    9  C   UNL     1      41.002 -15.765   0.991  1.00  0.00     0.014 C 
HETATM   10  C   UNL     1      41.904 -16.595   0.047  1.00  0.00     0.034 C 
HETATM   11  C   UNL     1      43.106 -17.181   0.803  1.00  0.00     0.236 C 
HETATM   12  C   UNL     1      43.000 -14.708   3.861  1.00  0.00     0.070 C 
HETATM   13  C   UNL     1      42.078 -13.491   3.706  1.00  0.00     0.138 C 
HETATM   14  O   UNL     1      39.632 -12.261   3.271  1.00  0.00    -0.267 OA
ENDROOT
BRANCH   1  15
HETATM   15  C   UNL     1      39.881 -12.550   0.978  1.00  0.00     0.089 C 
HETATM   16  C   UNL     1      38.792 -13.029   0.202  1.00  0.00     0.076 C 
HETATM   17  C   UNL     1      37.732 -13.985   0.605  1.00  0.00     0.074 C 
HETATM   18  N   UNL     1      38.811 -12.512  -1.030  1.00  0.00    -0.132 NA
HETATM   19  O   UNL     1      39.985 -11.786  -1.113  1.00  0.00    -0.217 OA
HETATM   20  C   UNL     1      40.643 -11.843   0.076  1.00  0.00     0.092 C 
HETATM   21  C   UNL     1      41.949 -11.160   0.117  1.00  0.00     0.080 C 
ENDBRANCH   1  15
BRANCH  12  22
HETATM   22  C   UNL     1      42.692 -15.607   5.040  1.00  0.00    -0.048 A 
HETATM   23  C   UNL     1      41.380 -15.889   5.465  1.00  0.00     0.044 A 
HETATM   24  C   UNL     1      41.163 -16.729   6.554  1.00  0.00     0.066 A 
HETATM   25  C   UNL     1      42.226 -17.303   7.237  1.00  0.00     0.036 A 
HETATM   26  C   UNL     1      43.530 -17.017   6.844  1.00  0.00     0.003 A 
HETATM   27  C   UNL     1      43.764 -16.172   5.757  1.00  0.00     0.008 A 
BRANCH  24  28
HETATM   28  O   UNL     1      39.903 -17.028   6.974  1.00  0.00    -0.361 OA
HETATM   29  H   UNL     1      39.944 -17.617   7.746  1.00  0.00     0.217 HD
ENDBRANCH  24  28
ENDBRANCH  12  22
TORSDOF 3
ENDMDL
MODEL 7
REMARK VINA RESULT:      -7.1      2.268      6.780
REMARK  3 active torsions:
REMARK  status: ('A' for Active; 'I' for Inactive)
REMARK    1  A    between atoms: C_7  and  C_8 
REMARK       I    between atoms: C_8  and  N_9 
REMARK    2  A    between atoms: C_19  and  C_20 
REMARK    3  A    between atoms: C_22  and  O_23 
ROOT
HETATM    1  C   UNL     1      41.881 -14.720   5.441  1.00  0.00     0.258 C 
HETATM    2  N   UNL     1      41.458 -15.182   4.193  1.00  0.00    -0.340 N 
HETATM    3  C   UNL     1      41.573 -16.531   3.649  1.00  0.00     0.123 C 
HETATM    4  C   UNL     1      40.782 -16.485   2.309  1.00  0.00     0.221 C 
HETATM    5  N   UNL     1      41.678 -16.990   1.171  1.00  0.00    -0.064 N 
HETATM    6  H   UNL     1      41.156 -16.950   0.285  1.00  0.00     0.280 HD
HETATM    7  C   UNL     1      42.983 -16.231   0.973  1.00  0.00     0.236 C 
HETATM    8  C   UNL     1      43.682 -16.110   2.321  1.00  0.00     0.034 C 
HETATM    9  C   UNL     1      43.008 -17.029   3.354  1.00  0.00     0.014 C 
HETATM   10  C   UNL     1      42.909 -18.447   2.742  1.00  0.00     0.034 C 
HETATM   11  C   UNL     1      42.047 -18.441   1.470  1.00  0.00     0.236 C 
HETATM   12  C   UNL     1      40.156 -15.067   2.187  1.00  0.00     0.070 C 
HETATM   13  C   UNL     1      40.323 -14.493   3.601  1.00  0.00     0.138 C 
HETATM   14  O   UNL     1      41.805 -13.533   5.738  1.00  0.00    -0.267 OA
ENDROOT
BRANCH   1  15
HETATM   15  C   UNL     1      42.273 -15.710   6.406  1.00  0.00     0.089 C 
HETATM   16  C   UNL     1      43.547 -15.852   7.019  1.00  0.00     0.076 C 
HETATM   17  C   UNL     1      44.771 -15.048   6.782  1.00  0.00     0.074 C 
HETATM   18  N   UNL     1      43.555 -16.864   7.891  1.00  0.00    -0.132 NA
HETATM   19  O   UNL     1      42.320 -17.475   7.766  1.00  0.00    -0.217 OA
HETATM   20  C   UNL     1      41.571 -16.807   6.848  1.00  0.00     0.092 C 
HETATM   21  C   UNL     1      40.244 -17.384   6.564  1.00  0.00     0.080 C 
ENDBRANCH   1  15
BRANCH  12  22
HETATM   22  C   UNL     1      40.605 -14.157   1.063  1.00  0.00    -0.048 A 
HETATM   23  C   UNL     1      41.539 -13.120   1.245  1.00  0.00     0.044 A 
HETATM   24  C   UNL     1      41.916 -12.321   0.168  1.00  0.00     0.066 A 
HETATM   25  C   UNL     1      41.384 -12.529  -1.097  1.00  0.00     0.036 A 
HETATM   26  C   UNL     1      40.442 -13.536  -1.289  1.00  0.00     0.003 A 
HETATM   27  C   UNL     1      40.050 -14.341  -0.218  1.00  0.00     0.008 A 
BRANCH  24  28
HETATM   28  O   UNL     1      42.827 -11.321   0.316  1.00  0.00    -0.361 OA
HETATM   29  H   UNL     1      43.689 -11.607  -0.030  1.00  0.00     0.217 HD
ENDBRANCH  24  28
ENDBRANCH  12  22
TORSDOF 3
ENDMDL
MODEL 8
REMARK VINA RESULT:      -6.9      1.819      6.674
REMARK  3 active torsions:
REMARK  status: ('A' for Active; 'I' for Inactive)
REMARK    1  A    between atoms: C_7  and  C_8 
REMARK       I    between atoms: C_8  and  N_9 
REMARK    2  A    between atoms: C_19  and  C_20 
REMARK    3  A    between atoms: C_22  and  O_23 
ROOT
HETATM    1  C   UNL     1      41.301 -16.920   2.220  1.00  0.00     0.258 C 
HETATM    2  N   UNL     1      41.250 -15.527   2.141  1.00  0.00    -0.340 N 
HETATM    3  C   UNL     1      41.868 -14.553   3.034  1.00  0.00     0.123 C 
HETATM    4  C   UNL     1      41.616 -13.176   2.354  1.00  0.00     0.221 C 
HETATM    5  N   UNL     1      40.944 -12.229   3.355  1.00  0.00    -0.064 N 
HETATM    6  H   UNL     1      40.769 -11.322   2.900  1.00  0.00     0.280 HD
HETATM    7  C   UNL     1      39.623 -12.714   3.938  1.00  0.00     0.236 C 
HETATM    8  C   UNL     1      39.812 -14.137   4.445  1.00  0.00     0.034 C 
HETATM    9  C   UNL     1      41.307 -14.497   4.476  1.00  0.00     0.014 C 
HETATM   10  C   UNL     1      42.054 -13.377   5.239  1.00  0.00     0.034 C 
HETATM   11  C   UNL     1      41.900 -12.025   4.527  1.00  0.00     0.236 C 
HETATM   12  C   UNL     1      40.903 -13.451   0.999  1.00  0.00     0.070 C 
HETATM   13  C   UNL     1      41.092 -14.962   0.810  1.00  0.00     0.138 C 
HETATM   14  O   UNL     1      40.657 -17.624   1.451  1.00  0.00    -0.267 OA
ENDROOT
BRANCH   1  15
HETATM   15  C   UNL     1      42.244 -17.488   3.145  1.00  0.00     0.089 C 
HETATM   16  C   UNL     1      43.589 -17.859   2.878  1.00  0.00     0.076 C 
HETATM   17  C   UNL     1      44.318 -17.789   1.588  1.00  0.00     0.074 C 
HETATM   18  N   UNL     1      44.188 -18.331   3.975  1.00  0.00    -0.132 NA
HETATM   19  O   UNL     1      43.202 -18.388   4.943  1.00  0.00    -0.217 OA
HETATM   20  C   UNL     1      42.031 -17.922   4.432  1.00  0.00     0.092 C 
HETATM   21  C   UNL     1      40.870 -17.980   5.339  1.00  0.00     0.080 C 
ENDBRANCH   1  15
BRANCH  12  22
HETATM   22  C   UNL     1      39.491 -12.945   0.792  1.00  0.00    -0.048 A 
HETATM   23  C   UNL     1      39.193 -11.596   0.524  1.00  0.00     0.044 A 
HETATM   24  C   UNL     1      37.873 -11.194   0.337  1.00  0.00     0.066 A 
HETATM   25  C   UNL     1      36.831 -12.108   0.409  1.00  0.00     0.036 A 
HETATM   26  C   UNL     1      37.106 -13.442   0.696  1.00  0.00     0.003 A 
HETATM   27  C   UNL     1      38.425 -13.859   0.891  1.00  0.00     0.008 A 
BRANCH  24  28
HETATM   28  O   UNL     1      37.562  -9.898   0.063  1.00  0.00    -0.361 OA
HETATM   29  H   UNL     1      38.273  -9.491  -0.459  1.00  0.00     0.217 HD
ENDBRANCH  24  28
ENDBRANCH  12  22
TORSDOF 3
ENDMDL
MODEL 9
REMARK VINA RESULT:      -6.8      2.227      6.945
REMARK  3 active torsions:
REMARK  status: ('A' for Active; 'I' for Inactive)
REMARK    1  A    between atoms: C_7  and  C_8 
REMARK       I    between atoms: C_8  and  N_9 
REMARK    2  A    between atoms: C_19  and  C_20 
REMARK    3  A    between atoms: C_22  and  O_23 
ROOT
HETATM    1  C   UNL     1      42.320 -14.000   2.913  1.00  0.00     0.258 C 
HETATM    2  N   UNL     1      41.489 -13.274   2.060  1.00  0.00    -0.340 N 
HETATM    3  C   UNL     1      40.035 -13.331   1.957  1.00  0.00     0.123 C 
HETATM    4  C   UNL     1      39.662 -12.186   0.971  1.00  0.00     0.221 C 
HETATM    5  N   UNL     1      38.799 -12.752  -0.164  1.00  0.00    -0.064 N 
HETATM    6  H   UNL     1      38.562 -11.996  -0.820  1.00  0.00     0.280 HD
HETATM    7  C   UNL     1      39.427 -13.881  -0.969  1.00  0.00     0.236 C 
HETATM    8  C   UNL     1      39.962 -14.927  -0.001  1.00  0.00     0.034 C 
HETATM    9  C   UNL     1      39.439 -14.654   1.420  1.00  0.00     0.014 C 
HETATM   10  C   UNL     1      37.902 -14.494   1.341  1.00  0.00     0.034 C 
HETATM   11  C   UNL     1      37.515 -13.304   0.450  1.00  0.00     0.236 C 
HETATM   12  C   UNL     1      40.977 -11.443   0.603  1.00  0.00     0.070 C 
HETATM   13  C   UNL     1      41.972 -11.965   1.648  1.00  0.00     0.138 C 
HETATM   14  O   UNL     1      43.541 -13.921   2.832  1.00  0.00    -0.267 OA
ENDROOT
BRANCH   1  15
HETATM   15  C   UNL     1      41.686 -14.731   3.977  1.00  0.00     0.089 C 
HETATM   16  C   UNL     1      41.278 -14.225   5.240  1.00  0.00     0.076 C 
HETATM   17  C   UNL     1      41.444 -12.850   5.771  1.00  0.00     0.074 C 
HETATM   18  N   UNL     1      40.696 -15.175   5.977  1.00  0.00    -0.132 NA
HETATM   19  O   UNL     1      40.829 -16.345   5.251  1.00  0.00    -0.217 OA
HETATM   20  C   UNL     1      41.457 -16.084   4.073  1.00  0.00     0.092 C 
HETATM   21  C   UNL     1      41.723 -17.254   3.218  1.00  0.00     0.080 C 
ENDBRANCH   1  15
BRANCH  12  22
HETATM   22  C   UNL     1      41.467 -11.475  -0.829  1.00  0.00    -0.048 A 
HETATM   23  C   UNL     1      42.267 -12.514  -1.341  1.00  0.00     0.044 A 
HETATM   24  C   UNL     1      42.680 -12.489  -2.671  1.00  0.00     0.066 A 
HETATM   25  C   UNL     1      42.314 -11.449  -3.513  1.00  0.00     0.036 A 
HETATM   26  C   UNL     1      41.542 -10.403  -3.018  1.00  0.00     0.003 A 
HETATM   27  C   UNL     1      41.125 -10.411  -1.685  1.00  0.00     0.008 A 
BRANCH  24  28
HETATM   28  O   UNL     1      43.442 -13.490  -3.192  1.00  0.00    -0.361 OA
HETATM   29  H   UNL     1      43.024 -14.349  -3.015  1.00  0.00     0.217 HD
ENDBRANCH  24  28
ENDBRANCH  12  22
TORSDOF 3
ENDMDL
MODEL 10
REMARK VINA RESULT:      -6.5      1.938      2.915
REMARK  3 active torsions:
REMARK  status: ('A' for Active; 'I' for Inactive)
REMARK    1  A    between atoms: C_7  and  C_8 
REMARK       I    between atoms: C_8  and  N_9 
REMARK    2  A    between atoms: C_19  and  C_20 
REMARK    3  A    between atoms: C_22  and  O_23 
ROOT
HETATM    1  C   UNL     1      39.664 -13.323  -0.152  1.00  0.00     0.258 C 
HETATM    2  N   UNL     1      39.895 -13.870   1.111  1.00  0.00    -0.340 N 
HETATM    3  C   UNL     1      39.953 -13.177   2.394  1.00  0.00     0.123 C 
HETATM    4  C   UNL     1      40.064 -14.313   3.453  1.00  0.00     0.221 C 
HETATM    5  N   UNL     1      41.279 -14.054   4.352  1.00  0.00    -0.064 N 
HETATM    6  H   UNL     1      41.356 -14.811   5.045  1.00  0.00     0.280 HD
HETATM    7  C   UNL     1      42.618 -13.947   3.635  1.00  0.00     0.236 C 
HETATM    8  C   UNL     1      42.471 -12.970   2.477  1.00  0.00     0.034 C 
HETATM    9  C   UNL     1      41.141 -12.205   2.592  1.00  0.00     0.014 C 
HETATM   10  C   UNL     1      41.049 -11.617   4.020  1.00  0.00     0.034 C 
HETATM   11  C   UNL     1      41.056 -12.730   5.078  1.00  0.00     0.236 C 
HETATM   12  C   UNL     1      39.977 -15.667   2.693  1.00  0.00     0.070 C 
HETATM   13  C   UNL     1      39.479 -15.250   1.302  1.00  0.00     0.138 C 
HETATM   14  O   UNL     1      39.732 -14.010  -1.165  1.00  0.00    -0.267 OA
ENDROOT
BRANCH   1  15
HETATM   15  C   UNL     1      39.208 -11.960  -0.201  1.00  0.00     0.089 C 
HETATM   16  C   UNL     1      39.989 -10.805  -0.470  1.00  0.00     0.076 C 
HETATM   17  C   UNL     1      41.449 -10.725  -0.719  1.00  0.00     0.074 C 
HETATM   18  N   UNL     1      39.237  -9.700  -0.464  1.00  0.00    -0.132 NA
HETATM   19  O   UNL     1      37.977 -10.109  -0.068  1.00  0.00    -0.217 OA
HETATM   20  C   UNL     1      37.972 -11.455   0.128  1.00  0.00     0.092 C 
HETATM   21  C   UNL     1      36.703 -12.026   0.613  1.00  0.00     0.080 C 
ENDBRANCH   1  15
BRANCH  12  22
HETATM   22  C   UNL     1      41.174 -16.594   2.700  1.00  0.00    -0.048 A 
HETATM   23  C   UNL     1      42.031 -16.746   1.594  1.00  0.00     0.044 A 
HETATM   24  C   UNL     1      43.120 -17.611   1.666  1.00  0.00     0.066 A 
HETATM   25  C   UNL     1      43.382 -18.335   2.820  1.00  0.00     0.036 A 
HETATM   26  C   UNL     1      42.531 -18.214   3.915  1.00  0.00     0.003 A 
HETATM   27  C   UNL     1      41.432 -17.355   3.856  1.00  0.00     0.008 A 
BRANCH  24  28
HETATM   28  O   UNL     1      43.971 -17.764   0.614  1.00  0.00    -0.361 OA
HETATM   29  H   UNL     1      44.637 -18.439   0.825  1.00  0.00     0.217 HD
ENDBRANCH  24  28
ENDBRANCH  12  22
TORSDOF 3
ENDMDL
