MODEL 1
REMARK VINA RESULT:      -9.0      0.000      0.000
REMARK  8 active torsions:
REMARK  status: ('A' for Active; 'I' for Inactive)
REMARK    1  A    between atoms: C_5  and  C_6 
REMARK       I    between atoms: C_6  and  N_7 
REMARK    2  A    between atoms: N_7  and  N_8 
REMARK       I    between atoms: N_8  and  C_9 
REMARK    3  A    between atoms: C_9  and  C_10 
REMARK    4  A    between atoms: C_10  and  S_11 
REMARK    5  A    between atoms: S_11  and  C_12 
REMARK    6  A    between atoms: N_13  and  C_14 
REMARK    7  A    between atoms: C_21  and  C_22 
REMARK    8  A    between atoms: C_22  and  N_23 
ROOT
HETATM    1  C   UNL     1      42.116 -12.893   3.307  1.00  0.00     0.196 A 
HETATM    2  N   UNL     1      42.224 -12.898   4.685  1.00  0.00    -0.274 N 
HETATM    3  C   UNL     1      43.414 -13.582   4.914  1.00  0.00     0.166 A 
HETATM    4  N   UNL     1      44.027 -13.813   3.767  1.00  0.00    -0.131 NA
HETATM    5  N   UNL     1      43.201 -13.395   2.761  1.00  0.00    -0.122 NA
ENDROOT
BRANCH   1   6
HETATM    6  S   UNL     1      40.746 -12.325   2.419  1.00  0.00    -0.080 SA
BRANCH   6   7
HETATM    7  C   UNL     1      40.124 -13.865   1.692  1.00  0.00     0.187 C 
BRANCH   7   8
HETATM    8  C   UNL     1      40.584 -15.142   2.392  1.00  0.00     0.245 C 
HETATM    9  N   UNL     1      41.475 -15.868   1.610  1.00  0.00    -0.267 N 
HETATM   10  H   UNL     1      41.394 -15.822   0.593  1.00  0.00     0.190 HD
HETATM   11  O   UNL     1      40.259 -15.502   3.526  1.00  0.00    -0.271 OA
BRANCH   9  12
HETATM   12  N   UNL     1      41.912 -17.107   2.098  1.00  0.00    -0.263 N 
HETATM   13  C   UNL     1      43.266 -17.388   2.027  1.00  0.00     0.270 C 
HETATM   14  O   UNL     1      44.096 -16.568   1.653  1.00  0.00    -0.266 OA
HETATM   15  H   UNL     1      41.230 -17.856   2.098  1.00  0.00     0.190 HD
BRANCH  13  16
HETATM   16  C   UNL     1      43.649 -18.775   2.403  1.00  0.00     0.033 A 
HETATM   17  C   UNL     1      43.262 -19.877   1.627  1.00  0.00     0.017 A 
HETATM   18  C   UNL     1      43.631 -21.168   2.012  1.00  0.00     0.007 A 
HETATM   19  C   UNL     1      44.392 -21.372   3.169  1.00  0.00    -0.062 A 
HETATM   20  C   UNL     1      44.737 -22.765   3.613  1.00  0.00     0.048 C 
HETATM   21  C   UNL     1      44.753 -20.270   3.955  1.00  0.00     0.007 A 
HETATM   22  C   UNL     1      44.384 -18.976   3.575  1.00  0.00     0.017 A 
ENDBRANCH  13  16
ENDBRANCH   9  12
ENDBRANCH   7   8
ENDBRANCH   6   7
ENDBRANCH   1   6
BRANCH   2  23
HETATM   23  C   UNL     1      41.321 -12.426   5.673  1.00  0.00     0.043 A 
HETATM   24  C   UNL     1      40.132 -13.117   5.951  1.00  0.00     0.033 A 
HETATM   25  C   UNL     1      39.253 -12.632   6.923  1.00  0.00     0.044 A 
HETATM   26  C   UNL     1      39.564 -11.467   7.611  1.00  0.00     0.116 A 
HETATM   27  F   UNL     1      38.721 -11.004   8.541  1.00  0.00    -0.206 F 
HETATM   28  C   UNL     1      40.741 -10.775   7.350  1.00  0.00     0.044 A 
HETATM   29  C   UNL     1      41.626 -11.251   6.380  1.00  0.00     0.033 A 
ENDBRANCH   2  23
BRANCH   3  30
HETATM   30  C   UNL     1      43.817 -14.214   6.214  1.00  0.00     0.255 C 
HETATM   31  C   UNL     1      45.256 -13.799   6.541  1.00  0.00     0.049 C 
BRANCH  30  32
HETATM   32  N   UNL     1      43.736 -15.766   6.144  1.00  0.00    -0.060 N 
HETATM   33  H   UNL     1      43.978 -15.996   5.167  1.00  0.00     0.280 HD
HETATM   34  C   UNL     1      44.705 -16.456   7.078  1.00  0.00     0.236 C 
HETATM   35  C   UNL     1      44.639 -17.966   6.897  1.00  0.00     0.028 C 
HETATM   36  C   UNL     1      43.228 -18.501   7.086  1.00  0.00     0.003 C 
HETATM   37  C   UNL     1      42.259 -17.780   6.164  1.00  0.00     0.028 C 
HETATM   38  C   UNL     1      42.315 -16.271   6.354  1.00  0.00     0.236 C 
ENDBRANCH  30  32
ENDBRANCH   3  30
TORSDOF 8
ENDMDL
MODEL 2
REMARK VINA RESULT:      -8.2      3.858      8.301
REMARK  8 active torsions:
REMARK  status: ('A' for Active; 'I' for Inactive)
REMARK    1  A    between atoms: C_5  and  C_6 
REMARK       I    between atoms: C_6  and  N_7 
REMARK    2  A    between atoms: N_7  and  N_8 
REMARK       I    between atoms: N_8  and  C_9 
REMARK    3  A    between atoms: C_9  and  C_10 
REMARK    4  A    between atoms: C_10  and  S_11 
REMARK    5  A    between atoms: S_11  and  C_12 
REMARK    6  A    between atoms: N_13  and  C_14 
REMARK    7  A    between atoms: C_21  and  C_22 
REMARK    8  A    between atoms: C_22  and  N_23 
ROOT
HETATM    1  C   UNL     1      41.410 -12.166   3.375  1.00  0.00     0.196 A 
HETATM    2  N   UNL     1      41.592 -13.537   3.361  1.00  0.00    -0.274 N 
HETATM    3  C   UNL     1      41.285 -13.891   2.051  1.00  0.00     0.166 A 
HETATM    4  N   UNL     1      41.097 -12.805   1.324  1.00  0.00    -0.131 NA
HETATM    5  N   UNL     1      41.159 -11.726   2.161  1.00  0.00    -0.122 NA
ENDROOT
BRANCH   1   6
HETATM    6  S   UNL     1      41.482 -11.168   4.784  1.00  0.00    -0.080 SA
BRANCH   6   7
HETATM    7  C   UNL     1      39.947 -11.630   5.632  1.00  0.00     0.187 C 
BRANCH   7   8
HETATM    8  C   UNL     1      39.838 -11.147   7.077  1.00  0.00     0.245 C 
HETATM    9  N   UNL     1      41.002 -11.394   7.794  1.00  0.00    -0.267 N 
HETATM   10  H   UNL     1      41.574 -12.205   7.548  1.00  0.00     0.190 HD
HETATM   11  O   UNL     1      38.868 -10.570   7.575  1.00  0.00    -0.271 OA
BRANCH   9  12
HETATM   12  N   UNL     1      41.009 -11.077   9.159  1.00  0.00    -0.263 N 
HETATM   13  C   UNL     1      42.180 -10.576   9.700  1.00  0.00     0.270 C 
HETATM   14  O   UNL     1      43.165 -10.308   9.022  1.00  0.00    -0.266 OA
HETATM   15  H   UNL     1      40.345 -11.577   9.739  1.00  0.00     0.190 HD
BRANCH  13  16
HETATM   16  C   UNL     1      42.180 -10.415  11.179  1.00  0.00     0.033 A 
HETATM   17  C   UNL     1      41.073 -10.787  11.955  1.00  0.00     0.017 A 
HETATM   18  C   UNL     1      41.101 -10.616  13.341  1.00  0.00     0.007 A 
HETATM   19  C   UNL     1      42.233 -10.077  13.966  1.00  0.00    -0.062 A 
HETATM   20  C   UNL     1      42.238  -9.839  15.449  1.00  0.00     0.048 C 
HETATM   21  C   UNL     1      43.325  -9.684  13.183  1.00  0.00     0.007 A 
HETATM   22  C   UNL     1      43.301  -9.851  11.795  1.00  0.00     0.017 A 
ENDBRANCH  13  16
ENDBRANCH   9  12
ENDBRANCH   7   8
ENDBRANCH   6   7
ENDBRANCH   1   6
BRANCH   2  23
HETATM   23  C   UNL     1      41.913 -14.426   4.420  1.00  0.00     0.043 A 
HETATM   24  C   UNL     1      43.246 -14.764   4.695  1.00  0.00     0.033 A 
HETATM   25  C   UNL     1      43.542 -15.646   5.737  1.00  0.00     0.044 A 
HETATM   26  C   UNL     1      42.511 -16.180   6.498  1.00  0.00     0.116 A 
HETATM   27  F   UNL     1      42.796 -17.025   7.497  1.00  0.00    -0.206 F 
HETATM   28  C   UNL     1      41.186 -15.850   6.241  1.00  0.00     0.044 A 
HETATM   29  C   UNL     1      40.880 -14.969   5.200  1.00  0.00     0.033 A 
ENDBRANCH   2  23
BRANCH   3  30
HETATM   30  C   UNL     1      40.938 -15.274   1.583  1.00  0.00     0.255 C 
HETATM   31  C   UNL     1      39.585 -15.675   2.183  1.00  0.00     0.049 C 
BRANCH  30  32
HETATM   32  N   UNL     1      42.015 -16.310   2.015  1.00  0.00    -0.060 N 
HETATM   33  H   UNL     1      42.655 -15.782   2.628  1.00  0.00     0.280 HD
HETATM   34  C   UNL     1      41.441 -17.482   2.778  1.00  0.00     0.236 C 
HETATM   35  C   UNL     1      42.553 -18.411   3.247  1.00  0.00     0.028 C 
HETATM   36  C   UNL     1      43.422 -18.887   2.094  1.00  0.00     0.003 C 
HETATM   37  C   UNL     1      43.969 -17.701   1.316  1.00  0.00     0.028 C 
HETATM   38  C   UNL     1      42.856 -16.780   0.836  1.00  0.00     0.236 C 
ENDBRANCH  30  32
ENDBRANCH   3  30
TORSDOF 8
ENDMDL
MODEL 3
REMARK VINA RESULT:      -8.1      3.926      8.224
REMARK  8 active torsions:
REMARK  status: ('A' for Active; 'I' for Inactive)
REMARK    1  A    between atoms: C_5  and  C_6 
REMARK       I    between atoms: C_6  and  N_7 
REMARK    2  A    between atoms: N_7  and  N_8 
REMARK       I    between atoms: N_8  and  C_9 
REMARK    3  A    between atoms: C_9  and  C_10 
REMARK    4  A    between atoms: C_10  and  S_11 
REMARK    5  A    between atoms: S_11  and  C_12 
REMARK    6  A    between atoms: N_13  and  C_14 
REMARK    7  A    between atoms: C_21  and  C_22 
REMARK    8  A    between atoms: C_22  and  N_23 
ROOT
HETATM    1  C   UNL     1      42.351 -13.826   5.044  1.00  0.00     0.196 A 
HETATM    2  N   UNL     1      41.986 -14.781   4.113  1.00  0.00    -0.274 N 
HETATM    3  C   UNL     1      42.637 -15.929   4.554  1.00  0.00     0.166 A 
HETATM    4  N   UNL     1      43.202 -15.703   5.726  1.00  0.00    -0.131 NA
HETATM    5  N   UNL     1      43.035 -14.379   6.022  1.00  0.00    -0.122 NA
ENDROOT
BRANCH   1   6
HETATM    6  S   UNL     1      41.982 -12.142   4.937  1.00  0.00    -0.080 SA
BRANCH   6   7
HETATM    7  C   UNL     1      40.275 -12.107   5.547  1.00  0.00     0.187 C 
BRANCH   7   8
HETATM    8  C   UNL     1      40.109 -11.577   6.970  1.00  0.00     0.245 C 
HETATM    9  N   UNL     1      41.330 -11.461   7.623  1.00  0.00    -0.267 N 
HETATM   10  H   UNL     1      42.086 -12.105   7.382  1.00  0.00     0.190 HD
HETATM   11  O   UNL     1      39.045 -11.247   7.499  1.00  0.00    -0.271 OA
BRANCH   9  12
HETATM   12  N   UNL     1      41.316 -11.066   8.968  1.00  0.00    -0.263 N 
HETATM   13  C   UNL     1      42.521 -10.712   9.550  1.00  0.00     0.270 C 
HETATM   14  O   UNL     1      43.568 -10.635   8.917  1.00  0.00    -0.266 OA
HETATM   15  H   UNL     1      40.556 -11.425   9.534  1.00  0.00     0.190 HD
BRANCH  13  16
HETATM   16  C   UNL     1      42.471 -10.463  11.016  1.00  0.00     0.033 A 
HETATM   17  C   UNL     1      43.556  -9.896  11.698  1.00  0.00     0.017 A 
HETATM   18  C   UNL     1      43.482  -9.682  13.076  1.00  0.00     0.007 A 
HETATM   19  C   UNL     1      42.324 -10.027  13.785  1.00  0.00    -0.062 A 
HETATM   20  C   UNL     1      42.269  -9.852  15.276  1.00  0.00     0.048 C 
HETATM   21  C   UNL     1      41.254 -10.617  13.102  1.00  0.00     0.007 A 
HETATM   22  C   UNL     1      41.325 -10.836  11.724  1.00  0.00     0.017 A 
ENDBRANCH  13  16
ENDBRANCH   9  12
ENDBRANCH   7   8
ENDBRANCH   6   7
ENDBRANCH   1   6
BRANCH   2  23
HETATM   23  C   UNL     1      41.220 -14.651   2.925  1.00  0.00     0.043 A 
HETATM   24  C   UNL     1      39.825 -14.790   2.950  1.00  0.00     0.033 A 
HETATM   25  C   UNL     1      39.089 -14.665   1.770  1.00  0.00     0.044 A 
HETATM   26  C   UNL     1      39.745 -14.401   0.575  1.00  0.00     0.116 A 
HETATM   27  F   UNL     1      39.038 -14.282  -0.555  1.00  0.00    -0.206 F 
HETATM   28  C   UNL     1      41.127 -14.256   0.535  1.00  0.00     0.044 A 
HETATM   29  C   UNL     1      41.871 -14.380   1.711  1.00  0.00     0.033 A 
ENDBRANCH   2  23
BRANCH   3  30
HETATM   30  C   UNL     1      42.910 -17.147   3.721  1.00  0.00     0.255 C 
HETATM   31  C   UNL     1      41.572 -17.768   3.299  1.00  0.00     0.049 C 
BRANCH  30  32
HETATM   32  N   UNL     1      43.736 -18.204   4.508  1.00  0.00    -0.060 N 
HETATM   33  H   UNL     1      44.566 -17.690   4.843  1.00  0.00     0.280 HD
HETATM   34  C   UNL     1      42.993 -18.784   5.690  1.00  0.00     0.236 C 
HETATM   35  C   UNL     1      43.886 -19.742   6.466  1.00  0.00     0.028 C 
HETATM   36  C   UNL     1      44.442 -20.845   5.581  1.00  0.00     0.003 C 
HETATM   37  C   UNL     1      45.161 -20.252   4.381  1.00  0.00     0.028 C 
HETATM   38  C   UNL     1      44.265 -19.305   3.597  1.00  0.00     0.236 C 
ENDBRANCH  30  32
ENDBRANCH   3  30
TORSDOF 8
ENDMDL
MODEL 4
REMARK VINA RESULT:      -8.0      4.268      9.127
REMARK  8 active torsions:
REMARK  status: ('A' for Active; 'I' for Inactive)
REMARK    1  A    between atoms: C_5  and  C_6 
REMARK       I    between atoms: C_6  and  N_7 
REMARK    2  A    between atoms: N_7  and  N_8 
REMARK       I    between atoms: N_8  and  C_9 
REMARK    3  A    between atoms: C_9  and  C_10 
REMARK    4  A    between atoms: C_10  and  S_11 
REMARK    5  A    between atoms: S_11  and  C_12 
REMARK    6  A    between atoms: N_13  and  C_14 
REMARK    7  A    between atoms: C_21  and  C_22 
REMARK    8  A    between atoms: C_22  and  N_23 
ROOT
HETATM    1  C   UNL     1      42.004 -13.292   3.792  1.00  0.00     0.196 A 
HETATM    2  N   UNL     1      41.957 -14.597   3.336  1.00  0.00    -0.274 N 
HETATM    3  C   UNL     1      41.562 -14.460   2.009  1.00  0.00     0.166 A 
HETATM    4  N   UNL     1      41.537 -13.183   1.675  1.00  0.00    -0.131 NA
HETATM    5  N   UNL     1      41.798 -12.453   2.801  1.00  0.00    -0.122 NA
ENDROOT
BRANCH   1   6
HETATM    6  S   UNL     1      42.277 -12.823   5.433  1.00  0.00    -0.080 SA
BRANCH   6   7
HETATM    7  C   UNL     1      41.376 -11.252   5.514  1.00  0.00     0.187 C 
BRANCH   7   8
HETATM    8  C   UNL     1      41.186 -10.688   6.921  1.00  0.00     0.245 C 
HETATM    9  N   UNL     1      41.886 -11.423   7.870  1.00  0.00    -0.267 N 
HETATM   10  H   UNL     1      42.034 -12.422   7.715  1.00  0.00     0.190 HD
HETATM   11  O   UNL     1      40.531  -9.686   7.215  1.00  0.00    -0.271 OA
BRANCH   9  12
HETATM   12  N   UNL     1      41.732 -11.066   9.217  1.00  0.00    -0.263 N 
HETATM   13  C   UNL     1      42.865 -10.701   9.922  1.00  0.00     0.270 C 
HETATM   14  O   UNL     1      43.966 -10.583   9.397  1.00  0.00    -0.266 OA
HETATM   15  H   UNL     1      40.929 -11.457   9.695  1.00  0.00     0.190 HD
BRANCH  13  16
HETATM   16  C   UNL     1      42.666 -10.494  11.382  1.00  0.00     0.033 A 
HETATM   17  C   UNL     1      41.555 -11.026  12.052  1.00  0.00     0.017 A 
HETATM   18  C   UNL     1      41.394 -10.807  13.422  1.00  0.00     0.007 A 
HETATM   19  C   UNL     1      42.339 -10.062  14.137  1.00  0.00    -0.062 A 
HETATM   20  C   UNL     1      42.133  -9.777  15.597  1.00  0.00     0.048 C 
HETATM   21  C   UNL     1      43.433  -9.511  13.457  1.00  0.00     0.007 A 
HETATM   22  C   UNL     1      43.598  -9.725  12.086  1.00  0.00     0.017 A 
ENDBRANCH  13  16
ENDBRANCH   9  12
ENDBRANCH   7   8
ENDBRANCH   6   7
ENDBRANCH   1   6
BRANCH   2  23
HETATM   23  C   UNL     1      42.155 -15.816   4.034  1.00  0.00     0.043 A 
HETATM   24  C   UNL     1      41.142 -16.357   4.839  1.00  0.00     0.033 A 
HETATM   25  C   UNL     1      41.359 -17.554   5.525  1.00  0.00     0.044 A 
HETATM   26  C   UNL     1      42.579 -18.206   5.401  1.00  0.00     0.116 A 
HETATM   27  F   UNL     1      42.784 -19.353   6.058  1.00  0.00    -0.206 F 
HETATM   28  C   UNL     1      43.590 -17.685   4.603  1.00  0.00     0.044 A 
HETATM   29  C   UNL     1      43.382 -16.487   3.914  1.00  0.00     0.033 A 
ENDBRANCH   2  23
BRANCH   3  30
HETATM   30  C   UNL     1      40.979 -15.552   1.159  1.00  0.00     0.255 C 
HETATM   31  C   UNL     1      41.987 -15.920   0.064  1.00  0.00     0.049 C 
BRANCH  30  32
HETATM   32  N   UNL     1      39.644 -15.108   0.495  1.00  0.00    -0.060 N 
HETATM   33  H   UNL     1      39.223 -15.983   0.145  1.00  0.00     0.280 HD
HETATM   34  C   UNL     1      38.690 -14.442   1.460  1.00  0.00     0.236 C 
HETATM   35  C   UNL     1      37.373 -14.114   0.770  1.00  0.00     0.028 C 
HETATM   36  C   UNL     1      37.578 -13.257  -0.468  1.00  0.00     0.003 C 
HETATM   37  C   UNL     1      38.561 -13.921  -1.418  1.00  0.00     0.028 C 
HETATM   38  C   UNL     1      39.882 -14.237  -0.732  1.00  0.00     0.236 C 
ENDBRANCH  30  32
ENDBRANCH   3  30
TORSDOF 8
ENDMDL
MODEL 5
REMARK VINA RESULT:      -7.9      4.540      7.688
REMARK  8 active torsions:
REMARK  status: ('A' for Active; 'I' for Inactive)
REMARK    1  A    between atoms: C_5  and  C_6 
REMARK       I    between atoms: C_6  and  N_7 
REMARK    2  A    between atoms: N_7  and  N_8 
REMARK       I    between atoms: N_8  and  C_9 
REMARK    3  A    between atoms: C_9  and  C_10 
REMARK    4  A    between atoms: C_10  and  S_11 
REMARK    5  A    between atoms: S_11  and  C_12 
REMARK    6  A    between atoms: N_13  and  C_14 
REMARK    7  A    between atoms: C_21  and  C_22 
REMARK    8  A    between atoms: C_22  and  N_23 
ROOT
HETATM    1  C   UNL     1      40.832 -13.280   0.867  1.00  0.00     0.196 A 
HETATM    2  N   UNL     1      41.098 -13.287  -0.490  1.00  0.00    -0.274 N 
HETATM    3  C   UNL     1      42.073 -12.305  -0.633  1.00  0.00     0.166 A 
HETATM    4  N   UNL     1      42.457 -11.876   0.555  1.00  0.00    -0.131 NA
HETATM    5  N   UNL     1      41.664 -12.477   1.493  1.00  0.00    -0.122 NA
ENDROOT
BRANCH   1   6
HETATM    6  S   UNL     1      39.574 -14.181   1.637  1.00  0.00    -0.080 SA
BRANCH   6   7
HETATM    7  C   UNL     1      39.952 -13.903   3.389  1.00  0.00     0.187 C 
BRANCH   7   8
HETATM    8  C   UNL     1      40.604 -15.085   4.104  1.00  0.00     0.245 C 
HETATM    9  N   UNL     1      41.541 -15.722   3.300  1.00  0.00    -0.267 N 
HETATM   10  H   UNL     1      41.407 -15.724   2.287  1.00  0.00     0.190 HD
HETATM   11  O   UNL     1      40.381 -15.440   5.264  1.00  0.00    -0.271 OA
BRANCH   9  12
HETATM   12  N   UNL     1      42.154 -16.878   3.802  1.00  0.00    -0.263 N 
HETATM   13  C   UNL     1      43.337 -17.290   3.213  1.00  0.00     0.270 C 
HETATM   14  O   UNL     1      43.911 -16.637   2.349  1.00  0.00    -0.266 OA
HETATM   15  H   UNL     1      41.546 -17.546   4.260  1.00  0.00     0.190 HD
BRANCH  13  16
HETATM   16  C   UNL     1      43.853 -18.606   3.674  1.00  0.00     0.033 A 
HETATM   17  C   UNL     1      44.162 -19.629   2.766  1.00  0.00     0.017 A 
HETATM   18  C   UNL     1      44.638 -20.857   3.231  1.00  0.00     0.007 A 
HETATM   19  C   UNL     1      44.814 -21.076   4.603  1.00  0.00    -0.062 A 
HETATM   20  C   UNL     1      45.268 -22.416   5.104  1.00  0.00     0.048 C 
HETATM   21  C   UNL     1      44.479 -20.059   5.506  1.00  0.00     0.007 A 
HETATM   22  C   UNL     1      44.000 -18.830   5.046  1.00  0.00     0.017 A 
ENDBRANCH  13  16
ENDBRANCH   9  12
ENDBRANCH   7   8
ENDBRANCH   6   7
ENDBRANCH   1   6
BRANCH   2  23
HETATM   23  C   UNL     1      40.485 -14.024  -1.537  1.00  0.00     0.043 A 
HETATM   24  C   UNL     1      39.209 -13.681  -2.007  1.00  0.00     0.033 A 
HETATM   25  C   UNL     1      38.620 -14.423  -3.033  1.00  0.00     0.044 A 
HETATM   26  C   UNL     1      39.305 -15.497  -3.585  1.00  0.00     0.116 A 
HETATM   27  F   UNL     1      38.739 -16.206  -4.569  1.00  0.00    -0.206 F 
HETATM   28  C   UNL     1      40.572 -15.845  -3.134  1.00  0.00     0.044 A 
HETATM   29  C   UNL     1      41.169 -15.110  -2.107  1.00  0.00     0.033 A 
ENDBRANCH   2  23
BRANCH   3  30
HETATM   30  C   UNL     1      42.440 -11.626  -1.920  1.00  0.00     0.255 C 
HETATM   31  C   UNL     1      43.490 -10.547  -1.630  1.00  0.00     0.049 C 
BRANCH  30  32
HETATM   32  N   UNL     1      41.201 -10.965  -2.591  1.00  0.00    -0.060 N 
HETATM   33  H   UNL     1      40.389 -11.432  -2.158  1.00  0.00     0.280 HD
HETATM   34  C   UNL     1      41.115  -9.476  -2.346  1.00  0.00     0.236 C 
HETATM   35  C   UNL     1      39.839  -8.907  -2.951  1.00  0.00     0.028 C 
HETATM   36  C   UNL     1      39.723  -9.221  -4.434  1.00  0.00     0.003 C 
HETATM   37  C   UNL     1      39.841 -10.718  -4.672  1.00  0.00     0.028 C 
HETATM   38  C   UNL     1      41.124 -11.284  -4.078  1.00  0.00     0.236 C 
ENDBRANCH  30  32
ENDBRANCH   3  30
TORSDOF 8
ENDMDL
MODEL 6
REMARK VINA RESULT:      -7.8      4.307      7.147
REMARK  8 active torsions:
REMARK  status: ('A' for Active; 'I' for Inactive)
REMARK    1  A    between atoms: C_5  and  C_6 
REMARK       I    between atoms: C_6  and  N_7 
REMARK    2  A    between atoms: N_7  and  N_8 
REMARK       I    between atoms: N_8  and  C_9 
REMARK    3  A    between atoms: C_9  and  C_10 
REMARK    4  A    between atoms: C_10  and  S_11 
REMARK    5  A    between atoms: S_11  and  C_12 
REMARK    6  A    between atoms: N_13  and  C_14 
REMARK    7  A    between atoms: C_21  and  C_22 
REMARK    8  A    between atoms: C_22  and  N_23 
ROOT
HETATM    1  C   UNL     1      39.361 -11.876   1.383  1.00  0.00     0.196 A 
HETATM    2  N   UNL     1      39.811 -11.523   0.124  1.00  0.00    -0.274 N 
HETATM    3  C   UNL     1      38.771 -11.914  -0.713  1.00  0.00     0.166 A 
HETATM    4  N   UNL     1      37.739 -12.312   0.008  1.00  0.00    -0.131 NA
HETATM    5  N   UNL     1      38.119 -12.303   1.321  1.00  0.00    -0.122 NA
ENDROOT
BRANCH   1   6
HETATM    6  S   UNL     1      40.296 -11.788   2.833  1.00  0.00    -0.080 SA
BRANCH   6   7
HETATM    7  C   UNL     1      39.788 -13.308   3.683  1.00  0.00     0.187 C 
BRANCH   7   8
HETATM    8  C   UNL     1      40.403 -14.592   3.129  1.00  0.00     0.245 C 
HETATM    9  N   UNL     1      40.333 -15.634   4.045  1.00  0.00    -0.267 N 
HETATM   10  H   UNL     1      40.362 -15.421   5.044  1.00  0.00     0.190 HD
HETATM   11  O   UNL     1      40.879 -14.738   2.001  1.00  0.00    -0.271 OA
BRANCH   9  12
HETATM   12  N   UNL     1      40.938 -16.851   3.699  1.00  0.00    -0.263 N 
HETATM   13  C   UNL     1      42.259 -17.043   4.063  1.00  0.00     0.270 C 
HETATM   14  O   UNL     1      42.880 -16.244   4.755  1.00  0.00    -0.266 OA
HETATM   15  H   UNL     1      40.548 -17.333   2.897  1.00  0.00     0.190 HD
BRANCH  13  16
HETATM   16  C   UNL     1      42.894 -18.276   3.527  1.00  0.00     0.033 A 
HETATM   17  C   UNL     1      42.595 -18.755   2.244  1.00  0.00     0.017 A 
HETATM   18  C   UNL     1      43.203 -19.920   1.773  1.00  0.00     0.007 A 
HETATM   19  C   UNL     1      44.117 -20.616   2.573  1.00  0.00    -0.062 A 
HETATM   20  C   UNL     1      44.724 -21.901   2.088  1.00  0.00     0.048 C 
HETATM   21  C   UNL     1      44.392 -20.148   3.864  1.00  0.00     0.007 A 
HETATM   22  C   UNL     1      43.785 -18.983   4.341  1.00  0.00     0.017 A 
ENDBRANCH  13  16
ENDBRANCH   9  12
ENDBRANCH   7   8
ENDBRANCH   6   7
ENDBRANCH   1   6
BRANCH   2  23
HETATM   23  C   UNL     1      41.061 -10.984  -0.281  1.00  0.00     0.043 A 
HETATM   24  C   UNL     1      42.059 -11.807  -0.821  1.00  0.00     0.033 A 
HETATM   25  C   UNL     1      43.284 -11.259  -1.207  1.00  0.00     0.044 A 
HETATM   26  C   UNL     1      43.505  -9.897  -1.055  1.00  0.00     0.116 A 
HETATM   27  F   UNL     1      44.680  -9.373  -1.426  1.00  0.00    -0.206 F 
HETATM   28  C   UNL     1      42.524  -9.067  -0.527  1.00  0.00     0.044 A 
HETATM   29  C   UNL     1      41.295  -9.607  -0.137  1.00  0.00     0.033 A 
ENDBRANCH   2  23
BRANCH   3  30
HETATM   30  C   UNL     1      38.882 -12.128  -2.194  1.00  0.00     0.255 C 
HETATM   31  C   UNL     1      37.725 -11.398  -2.888  1.00  0.00     0.049 C 
BRANCH  30  32
HETATM   32  N   UNL     1      38.824 -13.639  -2.560  1.00  0.00    -0.060 N 
HETATM   33  H   UNL     1      38.652 -14.119  -1.663  1.00  0.00     0.280 HD
HETATM   34  C   UNL     1      37.714 -13.975  -3.530  1.00  0.00     0.236 C 
HETATM   35  C   UNL     1      37.656 -15.477  -3.777  1.00  0.00     0.028 C 
HETATM   36  C   UNL     1      38.988 -16.025  -4.264  1.00  0.00     0.003 C 
HETATM   37  C   UNL     1      40.100 -15.656  -3.297  1.00  0.00     0.028 C 
HETATM   38  C   UNL     1      40.167 -14.154  -3.061  1.00  0.00     0.236 C 
ENDBRANCH  30  32
ENDBRANCH   3  30
TORSDOF 8
ENDMDL
MODEL 7
REMARK VINA RESULT:      -7.7      3.861      8.255
REMARK  8 active torsions:
REMARK  status: ('A' for Active; 'I' for Inactive)
REMARK    1  A    between atoms: C_5  and  C_6 
REMARK       I    between atoms: C_6  and  N_7 
REMARK    2  A    between atoms: N_7  and  N_8 
REMARK       I    between atoms: N_8  and  C_9 
REMARK    3  A    between atoms: C_9  and  C_10 
REMARK    4  A    between atoms: C_10  and  S_11 
REMARK    5  A    between atoms: S_11  and  C_12 
REMARK    6  A    between atoms: N_13  and  C_14 
REMARK    7  A    between atoms: C_21  and  C_22 
REMARK    8  A    between atoms: C_22  and  N_23 
ROOT
HETATM    1  C   UNL     1      43.358 -15.108   5.735  1.00  0.00     0.196 A 
HETATM    2  N   UNL     1      42.811 -16.203   5.091  1.00  0.00    -0.274 N 
HETATM    3  C   UNL     1      42.891 -17.212   6.045  1.00  0.00     0.166 A 
HETATM    4  N   UNL     1      43.300 -16.711   7.197  1.00  0.00    -0.131 NA
HETATM    5  N   UNL     1      43.608 -15.395   6.994  1.00  0.00    -0.122 NA
ENDROOT
BRANCH   1   6
HETATM    6  S   UNL     1      43.686 -13.581   4.995  1.00  0.00    -0.080 SA
BRANCH   6   7
HETATM    7  C   UNL     1      42.037 -12.826   4.978  1.00  0.00     0.187 C 
BRANCH   7   8
HETATM    8  C   UNL     1      41.539 -12.334   6.336  1.00  0.00     0.245 C 
HETATM    9  N   UNL     1      42.575 -11.839   7.118  1.00  0.00    -0.267 N 
HETATM   10  H   UNL     1      43.513 -12.231   7.007  1.00  0.00     0.190 HD
HETATM   11  O   UNL     1      40.366 -12.327   6.717  1.00  0.00    -0.271 OA
BRANCH   9  12
HETATM   12  N   UNL     1      42.272 -11.432   8.424  1.00  0.00    -0.263 N 
HETATM   13  C   UNL     1      43.325 -11.096   9.257  1.00  0.00     0.270 C 
HETATM   14  O   UNL     1      44.487 -11.045   8.873  1.00  0.00    -0.266 OA
HETATM   15  H   UNL     1      41.398 -11.771   8.809  1.00  0.00     0.190 HD
BRANCH  13  16
HETATM   16  C   UNL     1      42.956 -10.833  10.675  1.00  0.00     0.033 A 
HETATM   17  C   UNL     1      41.665 -11.093  11.155  1.00  0.00     0.017 A 
HETATM   18  C   UNL     1      41.348 -10.828  12.489  1.00  0.00     0.007 A 
HETATM   19  C   UNL     1      42.316 -10.307  13.357  1.00  0.00    -0.062 A 
HETATM   20  C   UNL     1      41.957  -9.967  14.775  1.00  0.00     0.048 C 
HETATM   21  C   UNL     1      43.596 -10.025  12.865  1.00  0.00     0.007 A 
HETATM   22  C   UNL     1      43.918 -10.287  11.530  1.00  0.00     0.017 A 
ENDBRANCH  13  16
ENDBRANCH   9  12
ENDBRANCH   7   8
ENDBRANCH   6   7
ENDBRANCH   1   6
BRANCH   2  23
HETATM   23  C   UNL     1      42.357 -16.342   3.754  1.00  0.00     0.043 A 
HETATM   24  C   UNL     1      41.011 -16.620   3.476  1.00  0.00     0.033 A 
HETATM   25  C   UNL     1      40.586 -16.761   2.153  1.00  0.00     0.044 A 
HETATM   26  C   UNL     1      41.500 -16.620   1.118  1.00  0.00     0.116 A 
HETATM   27  F   UNL     1      41.091 -16.755  -0.149  1.00  0.00    -0.206 F 
HETATM   28  C   UNL     1      42.836 -16.339   1.378  1.00  0.00     0.044 A 
HETATM   29  C   UNL     1      43.271 -16.198   2.698  1.00  0.00     0.033 A 
ENDBRANCH   2  23
BRANCH   3  30
HETATM   30  C   UNL     1      42.807 -18.683   5.763  1.00  0.00     0.255 C 
HETATM   31  C   UNL     1      43.224 -19.454   7.020  1.00  0.00     0.049 C 
BRANCH  30  32
HETATM   32  N   UNL     1      43.734 -19.092   4.582  1.00  0.00    -0.060 N 
HETATM   33  H   UNL     1      44.203 -18.217   4.302  1.00  0.00     0.280 HD
HETATM   34  C   UNL     1      44.775 -20.118   4.970  1.00  0.00     0.236 C 
HETATM   35  C   UNL     1      45.702 -20.408   3.798  1.00  0.00     0.028 C 
HETATM   36  C   UNL     1      44.936 -20.853   2.562  1.00  0.00     0.003 C 
HETATM   37  C   UNL     1      43.873 -19.829   2.199  1.00  0.00     0.028 C 
HETATM   38  C   UNL     1      42.937 -19.549   3.366  1.00  0.00     0.236 C 
ENDBRANCH  30  32
ENDBRANCH   3  30
TORSDOF 8
ENDMDL
MODEL 8
REMARK VINA RESULT:      -7.7      4.660      6.714
REMARK  8 active torsions:
REMARK  status: ('A' for Active; 'I' for Inactive)
REMARK    1  A    between atoms: C_5  and  C_6 
REMARK       I    between atoms: C_6  and  N_7 
REMARK    2  A    between atoms: N_7  and  N_8 
REMARK       I    between atoms: N_8  and  C_9 
REMARK    3  A    between atoms: C_9  and  C_10 
REMARK    4  A    between atoms: C_10  and  S_11 
REMARK    5  A    between atoms: S_11  and  C_12 
REMARK    6  A    between atoms: N_13  and  C_14 
REMARK    7  A    between atoms: C_21  and  C_22 
REMARK    8  A    between atoms: C_22  and  N_23 
ROOT
HETATM    1  C   UNL     1      41.380 -10.630   8.651  1.00  0.00     0.196 A 
HETATM    2  N   UNL     1      42.447 -10.991   9.452  1.00  0.00    -0.274 N 
HETATM    3  C   UNL     1      41.969 -10.781  10.741  1.00  0.00     0.166 A 
HETATM    4  N   UNL     1      40.684 -10.479  10.701  1.00  0.00    -0.131 NA
HETATM    5  N   UNL     1      40.322 -10.368   9.387  1.00  0.00    -0.122 NA
ENDROOT
BRANCH   1   6
HETATM    6  S   UNL     1      41.424 -10.519   6.927  1.00  0.00    -0.080 SA
BRANCH   6   7
HETATM    7  C   UNL     1      40.611 -12.067   6.444  1.00  0.00     0.187 C 
BRANCH   7   8
HETATM    8  C   UNL     1      41.514 -13.079   5.742  1.00  0.00     0.245 C 
HETATM    9  N   UNL     1      41.114 -14.386   5.988  1.00  0.00    -0.267 N 
HETATM   10  H   UNL     1      40.661 -14.608   6.877  1.00  0.00     0.190 HD
HETATM   11  O   UNL     1      42.467 -12.809   5.008  1.00  0.00    -0.271 OA
BRANCH   9  12
HETATM   12  N   UNL     1      41.907 -15.421   5.472  1.00  0.00    -0.263 N 
HETATM   13  C   UNL     1      41.495 -16.028   4.299  1.00  0.00     0.270 C 
HETATM   14  O   UNL     1      40.532 -15.636   3.650  1.00  0.00    -0.266 OA
HETATM   15  H   UNL     1      42.478 -15.924   6.141  1.00  0.00     0.190 HD
BRANCH  13  16
HETATM   16  C   UNL     1      42.281 -17.223   3.890  1.00  0.00     0.033 A 
HETATM   17  C   UNL     1      43.166 -17.854   4.776  1.00  0.00     0.017 A 
HETATM   18  C   UNL     1      43.896 -18.970   4.359  1.00  0.00     0.007 A 
HETATM   19  C   UNL     1      43.748 -19.468   3.059  1.00  0.00    -0.062 A 
HETATM   20  C   UNL     1      44.577 -20.630   2.594  1.00  0.00     0.048 C 
HETATM   21  C   UNL     1      42.882 -18.817   2.171  1.00  0.00     0.007 A 
HETATM   22  C   UNL     1      42.151 -17.699   2.582  1.00  0.00     0.017 A 
ENDBRANCH  13  16
ENDBRANCH   9  12
ENDBRANCH   7   8
ENDBRANCH   6   7
ENDBRANCH   1   6
BRANCH   2  23
HETATM   23  C   UNL     1      43.763 -11.388   9.096  1.00  0.00     0.043 A 
HETATM   24  C   UNL     1      43.982 -12.532   8.316  1.00  0.00     0.033 A 
HETATM   25  C   UNL     1      45.285 -12.910   7.981  1.00  0.00     0.044 A 
HETATM   26  C   UNL     1      46.357 -12.146   8.423  1.00  0.00     0.116 A 
HETATM   27  F   UNL     1      47.604 -12.509   8.101  1.00  0.00    -0.206 F 
HETATM   28  C   UNL     1      46.154 -11.006   9.192  1.00  0.00     0.044 A 
HETATM   29  C   UNL     1      44.855 -10.621   9.532  1.00  0.00     0.033 A 
ENDBRANCH   2  23
BRANCH   3  30
HETATM   30  C   UNL     1      42.818 -10.637  11.970  1.00  0.00     0.255 C 
HETATM   31  C   UNL     1      43.156 -12.033  12.507  1.00  0.00     0.049 C 
BRANCH  30  32
HETATM   32  N   UNL     1      42.086  -9.828  13.079  1.00  0.00    -0.060 N 
HETATM   33  H   UNL     1      41.083  -9.935  12.862  1.00  0.00     0.280 HD
HETATM   34  C   UNL     1      42.357 -10.347  14.473  1.00  0.00     0.236 C 
HETATM   35  C   UNL     1      41.544  -9.571  15.500  1.00  0.00     0.028 C 
HETATM   36  C   UNL     1      41.803  -8.075  15.418  1.00  0.00     0.003 C 
HETATM   37  C   UNL     1      41.556  -7.569  14.007  1.00  0.00     0.028 C 
HETATM   38  C   UNL     1      42.378  -8.336  12.981  1.00  0.00     0.236 C 
ENDBRANCH  30  32
ENDBRANCH   3  30
TORSDOF 8
ENDMDL
MODEL 9
REMARK VINA RESULT:      -7.6      2.520      4.838
REMARK  8 active torsions:
REMARK  status: ('A' for Active; 'I' for Inactive)
REMARK    1  A    between atoms: C_5  and  C_6 
REMARK       I    between atoms: C_6  and  N_7 
REMARK    2  A    between atoms: N_7  and  N_8 
REMARK       I    between atoms: N_8  and  C_9 
REMARK    3  A    between atoms: C_9  and  C_10 
REMARK    4  A    between atoms: C_10  and  S_11 
REMARK    5  A    between atoms: S_11  and  C_12 
REMARK    6  A    between atoms: N_13  and  C_14 
REMARK    7  A    between atoms: C_21  and  C_22 
REMARK    8  A    between atoms: C_22  and  N_23 
ROOT
HETATM    1  C   UNL     1      40.464 -12.477   1.104  1.00  0.00     0.196 A 
HETATM    2  N   UNL     1      40.247 -12.540   2.468  1.00  0.00    -0.274 N 
HETATM    3  C   UNL     1      39.196 -11.651   2.670  1.00  0.00     0.166 A 
HETATM    4  N   UNL     1      38.735 -11.228   1.508  1.00  0.00    -0.131 NA
HETATM    5  N   UNL     1      39.543 -11.735   0.528  1.00  0.00    -0.122 NA
ENDROOT
BRANCH   1   6
HETATM    6  S   UNL     1      41.766 -13.245   0.268  1.00  0.00    -0.080 SA
BRANCH   6   7
HETATM    7  C   UNL     1      40.982 -14.785  -0.284  1.00  0.00     0.187 C 
BRANCH   7   8
HETATM    8  C   UNL     1      41.192 -15.983   0.639  1.00  0.00     0.245 C 
HETATM    9  N   UNL     1      42.481 -16.492   0.540  1.00  0.00    -0.267 N 
HETATM   10  H   UNL     1      42.979 -16.415  -0.350  1.00  0.00     0.190 HD
HETATM   11  O   UNL     1      40.358 -16.450   1.418  1.00  0.00    -0.271 OA
BRANCH   9  12
HETATM   12  N   UNL     1      42.786 -17.648   1.271  1.00  0.00    -0.263 N 
HETATM   13  C   UNL     1      43.521 -17.502   2.434  1.00  0.00     0.270 C 
HETATM   14  O   UNL     1      43.825 -16.408   2.895  1.00  0.00    -0.266 OA
HETATM   15  H   UNL     1      42.814 -18.515   0.748  1.00  0.00     0.190 HD
BRANCH  13  16
HETATM   16  C   UNL     1      43.954 -18.772   3.077  1.00  0.00     0.033 A 
HETATM   17  C   UNL     1      44.086 -19.957   2.340  1.00  0.00     0.017 A 
HETATM   18  C   UNL     1      44.488 -21.134   2.975  1.00  0.00     0.007 A 
HETATM   19  C   UNL     1      44.765 -21.141   4.348  1.00  0.00    -0.062 A 
HETATM   20  C   UNL     1      45.138 -22.420   5.040  1.00  0.00     0.048 C 
HETATM   21  C   UNL     1      44.605 -19.960   5.084  1.00  0.00     0.007 A 
HETATM   22  C   UNL     1      44.202 -18.779   4.454  1.00  0.00     0.017 A 
ENDBRANCH  13  16
ENDBRANCH   9  12
ENDBRANCH   7   8
ENDBRANCH   6   7
ENDBRANCH   1   6
BRANCH   2  23
HETATM   23  C   UNL     1      40.959 -13.245   3.474  1.00  0.00     0.043 A 
HETATM   24  C   UNL     1      42.252 -12.853   3.849  1.00  0.00     0.033 A 
HETATM   25  C   UNL     1      42.938 -13.565   4.836  1.00  0.00     0.044 A 
HETATM   26  C   UNL     1      42.333 -14.657   5.443  1.00  0.00     0.116 A 
HETATM   27  F   UNL     1      42.992 -15.337   6.388  1.00  0.00    -0.206 F 
HETATM   28  C   UNL     1      41.050 -15.054   5.085  1.00  0.00     0.044 A 
HETATM   29  C   UNL     1      40.356 -14.349   4.098  1.00  0.00     0.033 A 
ENDBRANCH   2  23
BRANCH   3  30
HETATM   30  C   UNL     1      38.818 -11.038   3.987  1.00  0.00     0.255 C 
HETATM   31  C   UNL     1      37.782  -9.935   3.741  1.00  0.00     0.049 C 
BRANCH  30  32
HETATM   32  N   UNL     1      40.053 -10.425   4.708  1.00  0.00    -0.060 N 
HETATM   33  H   UNL     1      40.867 -10.874   4.260  1.00  0.00     0.280 HD
HETATM   34  C   UNL     1      40.155  -8.925   4.545  1.00  0.00     0.236 C 
HETATM   35  C   UNL     1      41.428  -8.401   5.196  1.00  0.00     0.028 C 
HETATM   36  C   UNL     1      41.522  -8.795   6.661  1.00  0.00     0.003 C 
HETATM   37  C   UNL     1      41.389 -10.301   6.815  1.00  0.00     0.028 C 
HETATM   38  C   UNL     1      40.110 -10.823   6.177  1.00  0.00     0.236 C 
ENDBRANCH  30  32
ENDBRANCH   3  30
TORSDOF 8
ENDMDL
MODEL 10
REMARK VINA RESULT:      -7.6      3.218      4.849
REMARK  8 active torsions:
REMARK  status: ('A' for Active; 'I' for Inactive)
REMARK    1  A    between atoms: C_5  and  C_6 
REMARK       I    between atoms: C_6  and  N_7 
REMARK    2  A    between atoms: N_7  and  N_8 
REMARK       I    between atoms: N_8  and  C_9 
REMARK    3  A    between atoms: C_9  and  C_10 
REMARK    4  A    between atoms: C_10  and  S_11 
REMARK    5  A    between atoms: S_11  and  C_12 
REMARK    6  A    between atoms: N_13  and  C_14 
REMARK    7  A    between atoms: C_21  and  C_22 
REMARK    8  A    between atoms: C_22  and  N_23 
ROOT
HETATM    1  C   UNL     1      41.243 -12.003  -0.599  1.00  0.00     0.196 A 
HETATM    2  N   UNL     1      40.325 -11.649   0.372  1.00  0.00    -0.274 N 
HETATM    3  C   UNL     1      41.088 -11.591   1.534  1.00  0.00     0.166 A 
HETATM    4  N   UNL     1      42.367 -11.741   1.239  1.00  0.00    -0.131 NA
HETATM    5  N   UNL     1      42.458 -12.016  -0.097  1.00  0.00    -0.122 NA
ENDROOT
BRANCH   1   6
HETATM    6  S   UNL     1      40.856 -12.392  -2.238  1.00  0.00    -0.080 SA
BRANCH   6   7
HETATM    7  C   UNL     1      39.818 -13.864  -2.024  1.00  0.00     0.187 C 
BRANCH   7   8
HETATM    8  C   UNL     1      40.536 -15.080  -1.442  1.00  0.00     0.245 C 
HETATM    9  N   UNL     1      40.128 -15.346  -0.140  1.00  0.00    -0.267 N 
HETATM   10  H   UNL     1      39.831 -14.571   0.456  1.00  0.00     0.190 HD
HETATM   11  O   UNL     1      41.354 -15.787  -2.033  1.00  0.00    -0.271 OA
BRANCH   9  12
HETATM   12  N   UNL     1      40.770 -16.386   0.546  1.00  0.00    -0.263 N 
HETATM   13  C   UNL     1      41.711 -16.046   1.502  1.00  0.00     0.270 C 
HETATM   14  O   UNL     1      41.929 -14.887   1.838  1.00  0.00    -0.266 OA
HETATM   15  H   UNL     1      40.823 -17.276   0.065  1.00  0.00     0.190 HD
BRANCH  13  16
HETATM   16  C   UNL     1      42.475 -17.185   2.077  1.00  0.00     0.033 A 
HETATM   17  C   UNL     1      42.318 -17.571   3.415  1.00  0.00     0.017 A 
HETATM   18  C   UNL     1      43.056 -18.640   3.927  1.00  0.00     0.007 A 
HETATM   19  C   UNL     1      43.954 -19.337   3.110  1.00  0.00    -0.062 A 
HETATM   20  C   UNL     1      44.790 -20.447   3.678  1.00  0.00     0.048 C 
HETATM   21  C   UNL     1      44.126 -18.931   1.781  1.00  0.00     0.007 A 
HETATM   22  C   UNL     1      43.392 -17.860   1.264  1.00  0.00     0.017 A 
ENDBRANCH  13  16
ENDBRANCH   9  12
ENDBRANCH   7   8
ENDBRANCH   6   7
ENDBRANCH   1   6
BRANCH   2  23
HETATM   23  C   UNL     1      38.919 -11.474   0.279  1.00  0.00     0.043 A 
HETATM   24  C   UNL     1      38.039 -12.490   0.678  1.00  0.00     0.033 A 
HETATM   25  C   UNL     1      36.659 -12.302   0.572  1.00  0.00     0.044 A 
HETATM   26  C   UNL     1      36.166 -11.103   0.074  1.00  0.00     0.116 A 
HETATM   27  F   UNL     1      34.844 -10.924  -0.027  1.00  0.00    -0.206 F 
HETATM   28  C   UNL     1      37.026 -10.084  -0.320  1.00  0.00     0.044 A 
HETATM   29  C   UNL     1      38.407 -10.265  -0.219  1.00  0.00     0.033 A 
ENDBRANCH   2  23
BRANCH   3  30
HETATM   30  C   UNL     1      40.547 -11.639   2.932  1.00  0.00     0.255 C 
HETATM   31  C   UNL     1      41.046 -10.408   3.699  1.00  0.00     0.049 C 
BRANCH  30  32
HETATM   32  N   UNL     1      41.005 -12.924   3.679  1.00  0.00    -0.060 N 
HETATM   33  H   UNL     1      41.293 -13.573   2.931  1.00  0.00     0.280 HD
HETATM   34  C   UNL     1      42.169 -12.688   4.614  1.00  0.00     0.236 C 
HETATM   35  C   UNL     1      42.624 -13.997   5.244  1.00  0.00     0.028 C 
HETATM   36  C   UNL     1      41.489 -14.708   5.962  1.00  0.00     0.003 C 
HETATM   37  C   UNL     1      40.313 -14.914   5.021  1.00  0.00     0.028 C 
HETATM   38  C   UNL     1      39.849 -13.604   4.402  1.00  0.00     0.236 C 
ENDBRANCH  30  32
ENDBRANCH   3  30
TORSDOF 8
ENDMDL
