MODEL 1
REMARK VINA RESULT:      -8.7      0.000      0.000
REMARK  4 active torsions:
REMARK  status: ('A' for Active; 'I' for Inactive)
REMARK    1  A    between atoms: C_7  and  C_8 
REMARK    2  A    between atoms: C_8  and  N_9 
REMARK    3  A    between atoms: C_13  and  C_14 
REMARK    4  A    between atoms: C_16  and  C_17 
ROOT
HETATM    1  N   UNL     1      42.592 -16.793   2.938  1.00  0.00    -0.067 N 
HETATM    2  H   UNL     1      42.254 -17.014   3.881  1.00  0.00     0.280 HD
HETATM    3  C   UNL     1      42.736 -15.288   2.851  1.00  0.00     0.236 C 
HETATM    4  C   UNL     1      41.376 -14.603   2.911  1.00  0.00     0.040 C 
HETATM    5  C   UNL     1      40.395 -15.128   1.860  1.00  0.00     0.058 C 
HETATM    6  C   UNL     1      40.272 -16.648   1.998  1.00  0.00     0.040 C 
HETATM    7  C   UNL     1      41.616 -17.364   1.935  1.00  0.00     0.236 C 
ENDROOT
BRANCH   1   8
HETATM    8  C   UNL     1      43.934 -17.494   2.782  1.00  0.00     0.276 C 
BRANCH   8   9
HETATM    9  C   UNL     1      44.198 -18.537   3.800  1.00  0.00     0.003 A 
HETATM   10  C   UNL     1      44.314 -19.947   3.579  1.00  0.00     0.007 A 
HETATM   11  C   UNL     1      44.234 -20.806   2.464  1.00  0.00     0.015 A 
HETATM   12  C   UNL     1      44.582 -20.508   4.823  1.00  0.00     0.085 A 
HETATM   13  C   UNL     1      44.434 -22.180   2.656  1.00  0.00     0.001 A 
HETATM   14  C   UNL     1      44.703 -22.700   3.924  1.00  0.00     0.003 A 
HETATM   15  C   UNL     1      44.783 -21.867   5.045  1.00  0.00     0.038 A 
HETATM   16  O   UNL     1      44.619 -19.538   5.775  1.00  0.00    -0.321 OA
HETATM   17  C   UNL     1      44.372 -18.356   5.158  1.00  0.00     0.152 A 
ENDBRANCH   8   9
ENDBRANCH   1   8
BRANCH   5  18
HETATM   18  C   UNL     1      40.832 -14.738   0.480  1.00  0.00     0.108 A 
HETATM   19  N   UNL     1      41.548 -13.675   0.178  1.00  0.00    -0.229 NA
HETATM   20  C   UNL     1      41.694 -13.672  -1.205  1.00  0.00     0.157 A 
HETATM   21  C   UNL     1      41.047 -14.780  -1.722  1.00  0.00     0.126 A 
HETATM   22  N   UNL     1      40.512 -15.446  -0.651  1.00  0.00    -0.352 N 
HETATM   23  H   UNL     1      39.968 -16.299  -0.695  1.00  0.00     0.166 HD
BRANCH  20  24
HETATM   24  C   UNL     1      42.442 -12.591  -1.938  1.00  0.00     0.436 C 
HETATM   25  F   UNL     1      41.598 -11.734  -2.576  1.00  0.00    -0.165 F 
HETATM   26  F   UNL     1      43.203 -11.845  -1.099  1.00  0.00    -0.165 F 
HETATM   27  F   UNL     1      43.269 -13.104  -2.884  1.00  0.00    -0.165 F 
ENDBRANCH  20  24
ENDBRANCH   5  18
TORSDOF 4
ENDMDL
MODEL 2
REMARK VINA RESULT:      -8.6      0.933      1.494
REMARK  4 active torsions:
REMARK  status: ('A' for Active; 'I' for Inactive)
REMARK    1  A    between atoms: C_7  and  C_8 
REMARK    2  A    between atoms: C_8  and  N_9 
REMARK    3  A    between atoms: C_13  and  C_14 
REMARK    4  A    between atoms: C_16  and  C_17 
ROOT
HETATM    1  N   UNL     1      42.341 -16.970   3.105  1.00  0.00    -0.067 N 
HETATM    2  H   UNL     1      41.913 -17.479   3.886  1.00  0.00     0.280 HD
HETATM    3  C   UNL     1      42.132 -15.492   3.360  1.00  0.00     0.236 C 
HETATM    4  C   UNL     1      40.656 -15.123   3.258  1.00  0.00     0.040 C 
HETATM    5  C   UNL     1      40.022 -15.554   1.933  1.00  0.00     0.058 C 
HETATM    6  C   UNL     1      40.248 -17.054   1.729  1.00  0.00     0.040 C 
HETATM    7  C   UNL     1      41.715 -17.455   1.818  1.00  0.00     0.236 C 
ENDROOT
BRANCH   1   8
HETATM    8  C   UNL     1      43.820 -17.335   3.108  1.00  0.00     0.276 C 
BRANCH   8   9
HETATM    9  C   UNL     1      44.160 -18.488   3.973  1.00  0.00     0.003 A 
HETATM   10  C   UNL     1      44.253 -19.862   3.579  1.00  0.00     0.007 A 
HETATM   11  C   UNL     1      44.081 -20.584   2.381  1.00  0.00     0.015 A 
HETATM   12  C   UNL     1      44.617 -20.563   4.723  1.00  0.00     0.085 A 
HETATM   13  C   UNL     1      44.290 -21.970   2.394  1.00  0.00     0.001 A 
HETATM   14  C   UNL     1      44.658 -22.634   3.566  1.00  0.00     0.003 A 
HETATM   15  C   UNL     1      44.830 -21.938   4.767  1.00  0.00     0.038 A 
HETATM   16  O   UNL     1      44.735 -19.712   5.776  1.00  0.00    -0.321 OA
HETATM   17  C   UNL     1      44.443 -18.467   5.324  1.00  0.00     0.152 A 
ENDBRANCH   8   9
ENDBRANCH   1   8
BRANCH   5  18
HETATM   18  C   UNL     1      40.579 -14.756   0.792  1.00  0.00     0.108 A 
HETATM   19  N   UNL     1      40.604 -15.140  -0.467  1.00  0.00    -0.229 NA
HETATM   20  C   UNL     1      41.236 -14.127  -1.180  1.00  0.00     0.157 A 
HETATM   21  C   UNL     1      41.581 -13.115  -0.303  1.00  0.00     0.126 A 
HETATM   22  N   UNL     1      41.159 -13.521   0.935  1.00  0.00    -0.352 N 
HETATM   23  H   UNL     1      41.269 -13.002   1.799  1.00  0.00     0.166 HD
BRANCH  20  24
HETATM   24  C   UNL     1      41.474 -14.209  -2.665  1.00  0.00     0.436 C 
HETATM   25  F   UNL     1      42.630 -13.587  -3.028  1.00  0.00    -0.165 F 
HETATM   26  F   UNL     1      41.564 -15.492  -3.092  1.00  0.00    -0.165 F 
HETATM   27  F   UNL     1      40.474 -13.619  -3.368  1.00  0.00    -0.165 F 
ENDBRANCH  20  24
ENDBRANCH   5  18
TORSDOF 4
ENDMDL
MODEL 3
REMARK VINA RESULT:      -8.6      2.248      3.436
REMARK  4 active torsions:
REMARK  status: ('A' for Active; 'I' for Inactive)
REMARK    1  A    between atoms: C_7  and  C_8 
REMARK    2  A    between atoms: C_8  and  N_9 
REMARK    3  A    between atoms: C_13  and  C_14 
REMARK    4  A    between atoms: C_16  and  C_17 
ROOT
HETATM    1  N   UNL     1      43.085 -15.967   6.413  1.00  0.00    -0.067 N 
HETATM    2  H   UNL     1      43.016 -15.559   7.352  1.00  0.00     0.280 HD
HETATM    3  C   UNL     1      43.130 -14.822   5.424  1.00  0.00     0.236 C 
HETATM    4  C   UNL     1      41.801 -14.077   5.389  1.00  0.00     0.040 C 
HETATM    5  C   UNL     1      40.606 -14.996   5.121  1.00  0.00     0.058 C 
HETATM    6  C   UNL     1      40.597 -16.126   6.153  1.00  0.00     0.040 C 
HETATM    7  C   UNL     1      41.911 -16.896   6.208  1.00  0.00     0.236 C 
ENDROOT
BRANCH   1   8
HETATM    8  C   UNL     1      44.373 -16.780   6.389  1.00  0.00     0.276 C 
BRANCH   8   9
HETATM    9  C   UNL     1      44.273 -18.055   5.642  1.00  0.00     0.003 A 
HETATM   10  C   UNL     1      44.088 -18.214   4.230  1.00  0.00     0.007 A 
HETATM   11  C   UNL     1      43.940 -17.349   3.126  1.00  0.00     0.015 A 
HETATM   12  C   UNL     1      44.077 -19.584   3.998  1.00  0.00     0.085 A 
HETATM   13  C   UNL     1      43.795 -17.908   1.849  1.00  0.00     0.001 A 
HETATM   14  C   UNL     1      43.793 -19.291   1.661  1.00  0.00     0.003 A 
HETATM   15  C   UNL     1      43.934 -20.167   2.743  1.00  0.00     0.038 A 
HETATM   16  O   UNL     1      44.228 -20.258   5.169  1.00  0.00    -0.321 OA
HETATM   17  C   UNL     1      44.330 -19.335   6.157  1.00  0.00     0.152 A 
ENDBRANCH   8   9
ENDBRANCH   1   8
BRANCH   5  18
HETATM   18  C   UNL     1      40.651 -15.534   3.722  1.00  0.00     0.108 A 
HETATM   19  N   UNL     1      40.993 -14.849   2.651  1.00  0.00    -0.229 NA
HETATM   20  C   UNL     1      40.862 -15.711   1.568  1.00  0.00     0.157 A 
HETATM   21  C   UNL     1      40.437 -16.944   2.030  1.00  0.00     0.126 A 
HETATM   22  N   UNL     1      40.312 -16.821   3.388  1.00  0.00    -0.352 N 
HETATM   23  H   UNL     1      40.011 -17.550   4.024  1.00  0.00     0.166 HD
BRANCH  20  24
HETATM   24  C   UNL     1      41.146 -15.282   0.153  1.00  0.00     0.436 C 
HETATM   25  F   UNL     1      41.572 -16.322  -0.616  1.00  0.00    -0.165 F 
HETATM   26  F   UNL     1      40.046 -14.768  -0.451  1.00  0.00    -0.165 F 
HETATM   27  F   UNL     1      42.115 -14.333   0.100  1.00  0.00    -0.165 F 
ENDBRANCH  20  24
ENDBRANCH   5  18
TORSDOF 4
ENDMDL
MODEL 4
REMARK VINA RESULT:      -8.4      2.696      3.591
REMARK  4 active torsions:
REMARK  status: ('A' for Active; 'I' for Inactive)
REMARK    1  A    between atoms: C_7  and  C_8 
REMARK    2  A    between atoms: C_8  and  N_9 
REMARK    3  A    between atoms: C_13  and  C_14 
REMARK    4  A    between atoms: C_16  and  C_17 
ROOT
HETATM    1  N   UNL     1      43.214 -16.998   6.362  1.00  0.00    -0.067 N 
HETATM    2  H   UNL     1      43.083 -16.927   7.377  1.00  0.00     0.280 HD
HETATM    3  C   UNL     1      43.554 -15.614   5.851  1.00  0.00     0.236 C 
HETATM    4  C   UNL     1      42.365 -14.671   5.990  1.00  0.00     0.040 C 
HETATM    5  C   UNL     1      41.094 -15.210   5.328  1.00  0.00     0.058 C 
HETATM    6  C   UNL     1      40.785 -16.601   5.886  1.00  0.00     0.040 C 
HETATM    7  C   UNL     1      41.953 -17.571   5.756  1.00  0.00     0.236 C 
ENDROOT
BRANCH   1   8
HETATM    8  C   UNL     1      44.361 -17.975   6.140  1.00  0.00     0.276 C 
BRANCH   8   9
HETATM    9  C   UNL     1      44.319 -18.676   4.837  1.00  0.00     0.003 A 
HETATM   10  C   UNL     1      44.471 -20.082   4.609  1.00  0.00     0.007 A 
HETATM   11  C   UNL     1      44.694 -21.218   5.414  1.00  0.00     0.015 A 
HETATM   12  C   UNL     1      44.337 -20.264   3.237  1.00  0.00     0.085 A 
HETATM   13  C   UNL     1      44.764 -22.476   4.799  1.00  0.00     0.001 A 
HETATM   14  C   UNL     1      44.621 -22.612   3.417  1.00  0.00     0.003 A 
HETATM   15  C   UNL     1      44.404 -21.498   2.599  1.00  0.00     0.038 A 
HETATM   16  O   UNL     1      44.132 -19.068   2.625  1.00  0.00    -0.321 OA
HETATM   17  C   UNL     1      44.138 -18.114   3.588  1.00  0.00     0.152 A 
ENDBRANCH   8   9
ENDBRANCH   1   8
BRANCH   5  18
HETATM   18  C   UNL     1      41.242 -15.240   3.837  1.00  0.00     0.108 A 
HETATM   19  N   UNL     1      41.230 -16.324   3.090  1.00  0.00    -0.229 NA
HETATM   20  C   UNL     1      41.435 -15.907   1.779  1.00  0.00     0.157 A 
HETATM   21  C   UNL     1      41.561 -14.529   1.765  1.00  0.00     0.126 A 
HETATM   22  N   UNL     1      41.434 -14.121   3.066  1.00  0.00    -0.352 N 
HETATM   23  H   UNL     1      41.486 -13.163   3.394  1.00  0.00     0.166 HD
BRANCH  20  24
HETATM   24  C   UNL     1      41.506 -16.871   0.624  1.00  0.00     0.436 C 
HETATM   25  F   UNL     1      41.097 -16.297  -0.541  1.00  0.00    -0.165 F 
HETATM   26  F   UNL     1      42.768 -17.324   0.420  1.00  0.00    -0.165 F 
HETATM   27  F   UNL     1      40.715 -17.956   0.826  1.00  0.00    -0.165 F 
ENDBRANCH  20  24
ENDBRANCH   5  18
TORSDOF 4
ENDMDL
MODEL 5
REMARK VINA RESULT:      -8.3      5.116      7.261
REMARK  4 active torsions:
REMARK  status: ('A' for Active; 'I' for Inactive)
REMARK    1  A    between atoms: C_7  and  C_8 
REMARK    2  A    between atoms: C_8  and  N_9 
REMARK    3  A    between atoms: C_13  and  C_14 
REMARK    4  A    between atoms: C_16  and  C_17 
ROOT
HETATM    1  N   UNL     1      42.218 -16.087   2.230  1.00  0.00    -0.067 N 
HETATM    2  H   UNL     1      41.943 -15.737   1.305  1.00  0.00     0.280 HD
HETATM    3  C   UNL     1      43.728 -16.203   2.238  1.00  0.00     0.236 C 
HETATM    4  C   UNL     1      44.199 -17.298   1.289  1.00  0.00     0.040 C 
HETATM    5  C   UNL     1      43.537 -18.651   1.562  1.00  0.00     0.058 C 
HETATM    6  C   UNL     1      42.015 -18.486   1.529  1.00  0.00     0.040 C 
HETATM    7  C   UNL     1      41.512 -17.401   2.473  1.00  0.00     0.236 C 
ENDROOT
BRANCH   1   8
HETATM    8  C   UNL     1      41.729 -15.063   3.245  1.00  0.00     0.276 C 
BRANCH   8   9
HETATM    9  C   UNL     1      42.620 -14.892   4.414  1.00  0.00     0.003 A 
HETATM   10  C   UNL     1      42.685 -15.725   5.578  1.00  0.00     0.007 A 
HETATM   11  C   UNL     1      42.020 -16.883   6.030  1.00  0.00     0.015 A 
HETATM   12  C   UNL     1      43.679 -15.180   6.383  1.00  0.00     0.085 A 
HETATM   13  C   UNL     1      42.393 -17.436   7.263  1.00  0.00     0.001 A 
HETATM   14  C   UNL     1      43.400 -16.857   8.038  1.00  0.00     0.003 A 
HETATM   15  C   UNL     1      44.070 -15.706   7.611  1.00  0.00     0.038 A 
HETATM   16  O   UNL     1      44.204 -14.074   5.794  1.00  0.00    -0.321 OA
HETATM   17  C   UNL     1      43.554 -13.895   4.618  1.00  0.00     0.152 A 
ENDBRANCH   8   9
ENDBRANCH   1   8
BRANCH   5  18
HETATM   18  C   UNL     1      43.997 -19.214   2.874  1.00  0.00     0.108 A 
HETATM   19  N   UNL     1      44.083 -20.495   3.167  1.00  0.00    -0.229 NA
HETATM   20  C   UNL     1      44.512 -20.574   4.487  1.00  0.00     0.157 A 
HETATM   21  C   UNL     1      44.690 -19.291   4.974  1.00  0.00     0.126 A 
HETATM   22  N   UNL     1      44.366 -18.444   3.948  1.00  0.00    -0.352 N 
HETATM   23  H   UNL     1      44.386 -17.432   3.986  1.00  0.00     0.166 HD
BRANCH  20  24
HETATM   24  C   UNL     1      44.713 -21.887   5.196  1.00  0.00     0.436 C 
HETATM   25  F   UNL     1      44.097 -22.913   4.547  1.00  0.00    -0.165 F 
HETATM   26  F   UNL     1      46.025 -22.213   5.296  1.00  0.00    -0.165 F 
HETATM   27  F   UNL     1      44.207 -21.860   6.456  1.00  0.00    -0.165 F 
ENDBRANCH  20  24
ENDBRANCH   5  18
TORSDOF 4
ENDMDL
MODEL 6
REMARK VINA RESULT:      -8.3      3.995      7.026
REMARK  4 active torsions:
REMARK  status: ('A' for Active; 'I' for Inactive)
REMARK    1  A    between atoms: C_7  and  C_8 
REMARK    2  A    between atoms: C_8  and  N_9 
REMARK    3  A    between atoms: C_13  and  C_14 
REMARK    4  A    between atoms: C_16  and  C_17 
ROOT
HETATM    1  N   UNL     1      41.989 -15.603   6.414  1.00  0.00    -0.067 N 
HETATM    2  H   UNL     1      42.008 -14.902   7.162  1.00  0.00     0.280 HD
HETATM    3  C   UNL     1      41.796 -16.956   7.067  1.00  0.00     0.236 C 
HETATM    4  C   UNL     1      43.019 -17.346   7.890  1.00  0.00     0.040 C 
HETATM    5  C   UNL     1      44.320 -17.299   7.086  1.00  0.00     0.058 C 
HETATM    6  C   UNL     1      44.477 -15.911   6.459  1.00  0.00     0.040 C 
HETATM    7  C   UNL     1      43.273 -15.494   5.624  1.00  0.00     0.236 C 
ENDROOT
BRANCH   1   8
HETATM    8  C   UNL     1      40.817 -15.244   5.512  1.00  0.00     0.276 C 
BRANCH   8   9
HETATM    9  C   UNL     1      41.204 -14.857   4.136  1.00  0.00     0.003 A 
HETATM   10  C   UNL     1      41.294 -15.715   2.992  1.00  0.00     0.007 A 
HETATM   11  C   UNL     1      41.086 -17.086   2.739  1.00  0.00     0.015 A 
HETATM   12  C   UNL     1      41.673 -14.899   1.932  1.00  0.00     0.085 A 
HETATM   13  C   UNL     1      41.263 -17.563   1.432  1.00  0.00     0.001 A 
HETATM   14  C   UNL     1      41.641 -16.707   0.396  1.00  0.00     0.003 A 
HETATM   15  C   UNL     1      41.857 -15.344   0.626  1.00  0.00     0.038 A 
HETATM   16  O   UNL     1      41.830 -13.619   2.359  1.00  0.00    -0.321 OA
HETATM   17  C   UNL     1      41.563 -13.600   3.689  1.00  0.00     0.152 A 
ENDBRANCH   8   9
ENDBRANCH   1   8
BRANCH   5  18
HETATM   18  C   UNL     1      44.342 -18.376   6.042  1.00  0.00     0.108 A 
HETATM   19  N   UNL     1      44.299 -18.179   4.741  1.00  0.00    -0.229 NA
HETATM   20  C   UNL     1      44.301 -19.437   4.148  1.00  0.00     0.157 A 
HETATM   21  C   UNL     1      44.358 -20.397   5.142  1.00  0.00     0.126 A 
HETATM   22  N   UNL     1      44.387 -19.717   6.330  1.00  0.00    -0.352 N 
HETATM   23  H   UNL     1      44.422 -20.135   7.253  1.00  0.00     0.166 HD
BRANCH  20  24
HETATM   24  C   UNL     1      44.239 -19.628   2.656  1.00  0.00     0.436 C 
HETATM   25  F   UNL     1      45.188 -20.500   2.217  1.00  0.00    -0.165 F 
HETATM   26  F   UNL     1      43.039 -20.118   2.258  1.00  0.00    -0.165 F 
HETATM   27  F   UNL     1      44.440 -18.462   1.990  1.00  0.00    -0.165 F 
ENDBRANCH  20  24
ENDBRANCH   5  18
TORSDOF 4
ENDMDL
MODEL 7
REMARK VINA RESULT:      -8.2      2.854      3.494
REMARK  4 active torsions:
REMARK  status: ('A' for Active; 'I' for Inactive)
REMARK    1  A    between atoms: C_7  and  C_8 
REMARK    2  A    between atoms: C_8  and  N_9 
REMARK    3  A    between atoms: C_13  and  C_14 
REMARK    4  A    between atoms: C_16  and  C_17 
ROOT
HETATM    1  N   UNL     1      42.901 -16.232   4.667  1.00  0.00    -0.067 N 
HETATM    2  H   UNL     1      43.284 -16.532   5.571  1.00  0.00     0.280 HD
HETATM    3  C   UNL     1      43.282 -14.779   4.474  1.00  0.00     0.236 C 
HETATM    4  C   UNL     1      42.562 -13.886   5.478  1.00  0.00     0.040 C 
HETATM    5  C   UNL     1      41.043 -14.069   5.459  1.00  0.00     0.058 C 
HETATM    6  C   UNL     1      40.709 -15.548   5.673  1.00  0.00     0.040 C 
HETATM    7  C   UNL     1      41.408 -16.467   4.679  1.00  0.00     0.236 C 
ENDROOT
BRANCH   1   8
HETATM    8  C   UNL     1      43.538 -17.124   3.610  1.00  0.00     0.276 C 
BRANCH   8   9
HETATM    9  C   UNL     1      44.014 -18.429   4.121  1.00  0.00     0.003 A 
HETATM   10  C   UNL     1      44.034 -19.676   3.415  1.00  0.00     0.007 A 
HETATM   11  C   UNL     1      43.659 -20.115   2.130  1.00  0.00     0.015 A 
HETATM   12  C   UNL     1      44.583 -20.603   4.294  1.00  0.00     0.085 A 
HETATM   13  C   UNL     1      43.862 -21.461   1.793  1.00  0.00     0.001 A 
HETATM   14  C   UNL     1      44.420 -22.358   2.706  1.00  0.00     0.003 A 
HETATM   15  C   UNL     1      44.795 -21.944   3.988  1.00  0.00     0.038 A 
HETATM   16  O   UNL     1      44.880 -20.006   5.479  1.00  0.00    -0.321 OA
HETATM   17  C   UNL     1      44.521 -18.703   5.376  1.00  0.00     0.152 A 
ENDBRANCH   8   9
ENDBRANCH   1   8
BRANCH   5  18
HETATM   18  C   UNL     1      40.460 -13.557   4.177  1.00  0.00     0.108 A 
HETATM   19  N   UNL     1      39.538 -14.165   3.460  1.00  0.00    -0.229 NA
HETATM   20  C   UNL     1      39.316 -13.370   2.340  1.00  0.00     0.157 A 
HETATM   21  C   UNL     1      40.132 -12.256   2.416  1.00  0.00     0.126 A 
HETATM   22  N   UNL     1      40.845 -12.383   3.578  1.00  0.00    -0.352 N 
HETATM   23  H   UNL     1      41.540 -11.730   3.922  1.00  0.00     0.166 HD
BRANCH  20  24
HETATM   24  C   UNL     1      38.333 -13.746   1.263  1.00  0.00     0.436 C 
HETATM   25  F   UNL     1      38.893 -13.687   0.023  1.00  0.00    -0.165 F 
HETATM   26  F   UNL     1      37.863 -15.008   1.425  1.00  0.00    -0.165 F 
HETATM   27  F   UNL     1      37.260 -12.915   1.248  1.00  0.00    -0.165 F 
ENDBRANCH  20  24
ENDBRANCH   5  18
TORSDOF 4
ENDMDL
MODEL 8
REMARK VINA RESULT:      -8.1      5.574      7.822
REMARK  4 active torsions:
REMARK  status: ('A' for Active; 'I' for Inactive)
REMARK    1  A    between atoms: C_7  and  C_8 
REMARK    2  A    between atoms: C_8  and  N_9 
REMARK    3  A    between atoms: C_13  and  C_14 
REMARK    4  A    between atoms: C_16  and  C_17 
ROOT
HETATM    1  N   UNL     1      42.546 -14.608   6.602  1.00  0.00    -0.067 N 
HETATM    2  H   UNL     1      42.249 -14.420   7.566  1.00  0.00     0.280 HD
HETATM    3  C   UNL     1      41.308 -14.567   5.732  1.00  0.00     0.236 C 
HETATM    4  C   UNL     1      40.376 -15.730   6.049  1.00  0.00     0.040 C 
HETATM    5  C   UNL     1      41.070 -17.092   5.963  1.00  0.00     0.058 C 
HETATM    6  C   UNL     1      42.304 -17.089   6.869  1.00  0.00     0.040 C 
HETATM    7  C   UNL     1      43.259 -15.940   6.572  1.00  0.00     0.236 C 
ENDROOT
BRANCH   1   8
HETATM    8  C   UNL     1      43.530 -13.507   6.230  1.00  0.00     0.276 C 
BRANCH   8   9
HETATM    9  C   UNL     1      44.342 -13.008   7.363  1.00  0.00     0.003 A 
HETATM   10  C   UNL     1      43.952 -12.034   8.339  1.00  0.00     0.007 A 
HETATM   11  C   UNL     1      42.804 -11.256   8.588  1.00  0.00     0.015 A 
HETATM   12  C   UNL     1      45.032 -11.911   9.207  1.00  0.00     0.085 A 
HETATM   13  C   UNL     1      42.798 -10.401   9.698  1.00  0.00     0.001 A 
HETATM   14  C   UNL     1      43.904 -10.310  10.546  1.00  0.00     0.003 A 
HETATM   15  C   UNL     1      45.055 -11.069  10.315  1.00  0.00     0.038 A 
HETATM   16  O   UNL     1      46.044 -12.728   8.814  1.00  0.00    -0.321 OA
HETATM   17  C   UNL     1      45.631 -13.374   7.695  1.00  0.00     0.152 A 
ENDBRANCH   8   9
ENDBRANCH   1   8
BRANCH   5  18
HETATM   18  C   UNL     1      41.433 -17.416   4.545  1.00  0.00     0.108 A 
HETATM   19  N   UNL     1      42.413 -18.212   4.171  1.00  0.00    -0.229 NA
HETATM   20  C   UNL     1      42.425 -18.203   2.780  1.00  0.00     0.157 A 
HETATM   21  C   UNL     1      41.408 -17.379   2.332  1.00  0.00     0.126 A 
HETATM   22  N   UNL     1      40.789 -16.893   3.452  1.00  0.00    -0.352 N 
HETATM   23  H   UNL     1      40.004 -16.252   3.465  1.00  0.00     0.166 HD
BRANCH  20  24
HETATM   24  C   UNL     1      43.428 -18.985   1.974  1.00  0.00     0.436 C 
HETATM   25  F   UNL     1      44.601 -19.149   2.645  1.00  0.00    -0.165 F 
HETATM   26  F   UNL     1      42.973 -20.225   1.666  1.00  0.00    -0.165 F 
HETATM   27  F   UNL     1      43.729 -18.364   0.805  1.00  0.00    -0.165 F 
ENDBRANCH  20  24
ENDBRANCH   5  18
TORSDOF 4
ENDMDL
MODEL 9
REMARK VINA RESULT:      -8.0      3.472      4.789
REMARK  4 active torsions:
REMARK  status: ('A' for Active; 'I' for Inactive)
REMARK    1  A    between atoms: C_7  and  C_8 
REMARK    2  A    between atoms: C_8  and  N_9 
REMARK    3  A    between atoms: C_13  and  C_14 
REMARK    4  A    between atoms: C_16  and  C_17 
ROOT
HETATM    1  N   UNL     1      41.195 -12.847   4.216  1.00  0.00    -0.067 N 
HETATM    2  H   UNL     1      40.985 -11.844   4.169  1.00  0.00     0.280 HD
HETATM    3  C   UNL     1      42.395 -13.100   3.328  1.00  0.00     0.236 C 
HETATM    4  C   UNL     1      42.047 -12.879   1.860  1.00  0.00     0.040 C 
HETATM    5  C   UNL     1      40.836 -13.696   1.403  1.00  0.00     0.058 C 
HETATM    6  C   UNL     1      39.648 -13.396   2.321  1.00  0.00     0.040 C 
HETATM    7  C   UNL     1      39.962 -13.614   3.796  1.00  0.00     0.236 C 
ENDROOT
BRANCH   1   8
HETATM    8  C   UNL     1      41.502 -13.158   5.674  1.00  0.00     0.276 C 
BRANCH   8   9
HETATM    9  C   UNL     1      42.518 -14.217   5.870  1.00  0.00     0.003 A 
HETATM   10  C   UNL     1      42.377 -15.611   5.573  1.00  0.00     0.007 A 
HETATM   11  C   UNL     1      41.360 -16.436   5.052  1.00  0.00     0.015 A 
HETATM   12  C   UNL     1      43.594 -16.197   5.904  1.00  0.00     0.085 A 
HETATM   13  C   UNL     1      41.621 -17.803   4.884  1.00  0.00     0.001 A 
HETATM   14  C   UNL     1      42.859 -18.349   5.227  1.00  0.00     0.003 A 
HETATM   15  C   UNL     1      43.881 -17.550   5.750  1.00  0.00     0.038 A 
HETATM   16  O   UNL     1      44.448 -15.258   6.391  1.00  0.00    -0.321 OA
HETATM   17  C   UNL     1      43.791 -14.072   6.384  1.00  0.00     0.152 A 
ENDBRANCH   8   9
ENDBRANCH   1   8
BRANCH   5  18
HETATM   18  C   UNL     1      41.157 -15.161   1.386  1.00  0.00     0.108 A 
HETATM   19  N   UNL     1      42.362 -15.679   1.494  1.00  0.00    -0.229 NA
HETATM   20  C   UNL     1      42.213 -17.058   1.392  1.00  0.00     0.157 A 
HETATM   21  C   UNL     1      40.871 -17.349   1.229  1.00  0.00     0.126 A 
HETATM   22  N   UNL     1      40.215 -16.147   1.231  1.00  0.00    -0.352 N 
HETATM   23  H   UNL     1      39.216 -16.016   1.123  1.00  0.00     0.166 HD
BRANCH  20  24
HETATM   24  C   UNL     1      43.382 -18.005   1.449  1.00  0.00     0.436 C 
HETATM   25  F   UNL     1      43.010 -19.245   1.871  1.00  0.00    -0.165 F 
HETATM   26  F   UNL     1      43.968 -18.159   0.236  1.00  0.00    -0.165 F 
HETATM   27  F   UNL     1      44.340 -17.570   2.308  1.00  0.00    -0.165 F 
ENDBRANCH  20  24
ENDBRANCH   5  18
TORSDOF 4
ENDMDL
MODEL 10
REMARK VINA RESULT:      -7.9      1.003      1.845
REMARK  4 active torsions:
REMARK  status: ('A' for Active; 'I' for Inactive)
REMARK    1  A    between atoms: C_7  and  C_8 
REMARK    2  A    between atoms: C_8  and  N_9 
REMARK    3  A    between atoms: C_13  and  C_14 
REMARK    4  A    between atoms: C_16  and  C_17 
ROOT
HETATM    1  N   UNL     1      42.744 -17.317   2.451  1.00  0.00    -0.067 N 
HETATM    2  H   UNL     1      42.460 -17.609   3.393  1.00  0.00     0.280 HD
HETATM    3  C   UNL     1      42.991 -15.824   2.495  1.00  0.00     0.236 C 
HETATM    4  C   UNL     1      41.693 -15.060   2.727  1.00  0.00     0.040 C 
HETATM    5  C   UNL     1      40.602 -15.413   1.712  1.00  0.00     0.058 C 
HETATM    6  C   UNL     1      40.379 -16.927   1.715  1.00  0.00     0.040 C 
HETATM    7  C   UNL     1      41.658 -17.720   1.479  1.00  0.00     0.236 C 
ENDROOT
BRANCH   1   8
HETATM    8  C   UNL     1      44.016 -18.087   2.124  1.00  0.00     0.276 C 
BRANCH   8   9
HETATM    9  C   UNL     1      44.246 -19.274   2.979  1.00  0.00     0.003 A 
HETATM   10  C   UNL     1      44.046 -19.367   4.395  1.00  0.00     0.007 A 
HETATM   11  C   UNL     1      43.614 -18.495   5.414  1.00  0.00     0.015 A 
HETATM   12  C   UNL     1      44.374 -20.673   4.741  1.00  0.00     0.085 A 
HETATM   13  C   UNL     1      43.527 -18.982   6.726  1.00  0.00     0.001 A 
HETATM   14  C   UNL     1      43.863 -20.303   7.028  1.00  0.00     0.003 A 
HETATM   15  C   UNL     1      44.299 -21.185   6.033  1.00  0.00     0.038 A 
HETATM   16  O   UNL     1      44.769 -21.365   3.640  1.00  0.00    -0.321 OA
HETATM   17  C   UNL     1      44.707 -20.515   2.585  1.00  0.00     0.152 A 
ENDBRANCH   8   9
ENDBRANCH   1   8
BRANCH   5  18
HETATM   18  C   UNL     1      40.966 -14.917   0.345  1.00  0.00     0.108 A 
HETATM   19  N   UNL     1      41.578 -13.781   0.083  1.00  0.00    -0.229 NA
HETATM   20  C   UNL     1      41.686 -13.697  -1.301  1.00  0.00     0.157 A 
HETATM   21  C   UNL     1      41.123 -14.830  -1.861  1.00  0.00     0.126 A 
HETATM   22  N   UNL     1      40.677 -15.592  -0.814  1.00  0.00    -0.352 N 
HETATM   23  H   UNL     1      40.208 -16.487  -0.890  1.00  0.00     0.166 HD
BRANCH  20  24
HETATM   24  C   UNL     1      42.317 -12.518  -1.994  1.00  0.00     0.436 C 
HETATM   25  F   UNL     1      41.415 -11.527  -2.231  1.00  0.00    -0.165 F 
HETATM   26  F   UNL     1      43.317 -11.975  -1.257  1.00  0.00    -0.165 F 
HETATM   27  F   UNL     1      42.844 -12.864  -3.196  1.00  0.00    -0.165 F 
ENDBRANCH  20  24
ENDBRANCH   5  18
TORSDOF 4
ENDMDL
