MODEL 1
REMARK VINA RESULT:      -5.9      0.000      0.000
REMARK  2 active torsions:
REMARK  status: ('A' for Active; 'I' for Inactive)
REMARK    1  A    between atoms: N_7  and  C_9 
REMARK    2  A    between atoms: C_9  and  C_10 
ROOT
HETATM    1  C   UNL     1      38.939 -14.337   1.365  1.00  0.00     0.136 A 
HETATM    2  N   UNL     1      39.259 -14.741   2.638  1.00  0.00    -0.244 NA
HETATM    3  C   UNL     1      40.466 -15.253   2.555  1.00  0.00     0.131 A 
HETATM    4  N   UNL     1      40.927 -15.195   1.265  1.00  0.00    -0.341 N 
HETATM    5  C   UNL     1      42.195 -15.736   0.826  1.00  0.00     0.157 C 
HETATM    6  C   UNL     1      43.150 -15.972   2.001  1.00  0.00     0.256 C 
HETATM    7  N   UNL     1      42.430 -16.671   3.146  1.00  0.00    -0.059 N 
HETATM    8  H   UNL     1      41.997 -17.528   2.780  1.00  0.00     0.280 HD
HETATM    9  C   UNL     1      41.286 -15.811   3.658  1.00  0.00     0.313 C 
HETATM   10  C   UNL     1      39.967 -14.615   0.494  1.00  0.00     0.111 A 
ENDROOT
BRANCH   7  11
HETATM   11  C   UNL     1      43.332 -17.092   4.277  1.00  0.00     0.274 C 
BRANCH  11  12
HETATM   12  C   UNL     1      43.852 -18.483   4.110  1.00  0.00    -0.024 A 
HETATM   13  C   UNL     1      44.604 -19.169   5.052  1.00  0.00     0.059 A 
HETATM   14  S   UNL     1      45.016 -20.753   4.544  1.00  0.00    -0.094 SA
HETATM   15  C   UNL     1      44.233 -20.530   3.062  1.00  0.00     0.051 A 
HETATM   16 BR   UNL     1      44.164 -21.844   1.730  1.00  0.00    -0.043 Br
HETATM   17  C   UNL     1      43.654 -19.292   2.936  1.00  0.00     0.036 A 
ENDBRANCH  11  12
ENDBRANCH   7  11
TORSDOF 2
ENDMDL
MODEL 2
REMARK VINA RESULT:      -5.8      2.225      3.029
REMARK  2 active torsions:
REMARK  status: ('A' for Active; 'I' for Inactive)
REMARK    1  A    between atoms: N_7  and  C_9 
REMARK    2  A    between atoms: C_9  and  C_10 
ROOT
HETATM    1  C   UNL     1      41.046 -12.049   5.733  1.00  0.00     0.136 A 
HETATM    2  N   UNL     1      42.052 -12.271   4.825  1.00  0.00    -0.244 NA
HETATM    3  C   UNL     1      41.968 -13.543   4.506  1.00  0.00     0.131 A 
HETATM    4  N   UNL     1      40.940 -14.143   5.186  1.00  0.00    -0.341 N 
HETATM    5  C   UNL     1      40.623 -15.553   5.106  1.00  0.00     0.157 C 
HETATM    6  C   UNL     1      41.249 -16.209   3.872  1.00  0.00     0.256 C 
HETATM    7  N   UNL     1      42.706 -15.791   3.722  1.00  0.00    -0.059 N 
HETATM    8  H   UNL     1      43.194 -16.003   4.601  1.00  0.00     0.280 HD
HETATM    9  C   UNL     1      42.811 -14.287   3.538  1.00  0.00     0.313 C 
HETATM   10  C   UNL     1      40.342 -13.208   5.972  1.00  0.00     0.111 A 
ENDROOT
BRANCH   7  11
HETATM   11  C   UNL     1      43.447 -16.518   2.630  1.00  0.00     0.274 C 
BRANCH  11  12
HETATM   12  C   UNL     1      43.811 -17.916   3.014  1.00  0.00    -0.024 A 
HETATM   13  C   UNL     1      44.225 -18.310   4.277  1.00  0.00     0.059 A 
HETATM   14  S   UNL     1      44.541 -19.992   4.376  1.00  0.00    -0.094 SA
HETATM   15  C   UNL     1      44.165 -20.204   2.741  1.00  0.00     0.051 A 
HETATM   16 BR   UNL     1      44.245 -21.862   1.877  1.00  0.00    -0.043 Br
HETATM   17  C   UNL     1      43.793 -19.040   2.116  1.00  0.00     0.036 A 
ENDBRANCH  11  12
ENDBRANCH   7  11
TORSDOF 2
ENDMDL
MODEL 3
REMARK VINA RESULT:      -5.7      1.890      2.835
REMARK  2 active torsions:
REMARK  status: ('A' for Active; 'I' for Inactive)
REMARK    1  A    between atoms: N_7  and  C_9 
REMARK    2  A    between atoms: C_9  and  C_10 
ROOT
HETATM    1  C   UNL     1      40.624 -14.608   5.879  1.00  0.00     0.136 A 
HETATM    2  N   UNL     1      41.842 -15.243   5.873  1.00  0.00    -0.244 NA
HETATM    3  C   UNL     1      41.987 -15.722   4.658  1.00  0.00     0.131 A 
HETATM    4  N   UNL     1      40.895 -15.417   3.887  1.00  0.00    -0.341 N 
HETATM    5  C   UNL     1      40.713 -15.855   2.520  1.00  0.00     0.157 C 
HETATM    6  C   UNL     1      42.034 -16.304   1.886  1.00  0.00     0.256 C 
HETATM    7  N   UNL     1      42.804 -17.211   2.834  1.00  0.00    -0.059 N 
HETATM    8  H   UNL     1      42.188 -17.987   3.110  1.00  0.00     0.280 HD
HETATM    9  C   UNL     1      43.146 -16.473   4.117  1.00  0.00     0.313 C 
HETATM   10  C   UNL     1      40.018 -14.708   4.648  1.00  0.00     0.111 A 
ENDROOT
BRANCH   7  11
HETATM   11  C   UNL     1      44.036 -17.833   2.229  1.00  0.00     0.274 C 
BRANCH  11  12
HETATM   12  C   UNL     1      44.133 -19.299   2.500  1.00  0.00    -0.024 A 
HETATM   13  C   UNL     1      43.819 -20.298   1.591  1.00  0.00     0.059 A 
HETATM   14  S   UNL     1      44.065 -21.871   2.225  1.00  0.00    -0.094 SA
HETATM   15  C   UNL     1      44.557 -21.243   3.716  1.00  0.00     0.051 A 
HETATM   16 BR   UNL     1      45.057 -22.316   5.166  1.00  0.00    -0.043 Br
HETATM   17  C   UNL     1      44.553 -19.871   3.753  1.00  0.00     0.036 A 
ENDBRANCH  11  12
ENDBRANCH   7  11
TORSDOF 2
ENDMDL
MODEL 4
REMARK VINA RESULT:      -5.7      2.800      3.387
REMARK  2 active torsions:
REMARK  status: ('A' for Active; 'I' for Inactive)
REMARK    1  A    between atoms: N_7  and  C_9 
REMARK    2  A    between atoms: C_9  and  C_10 
ROOT
HETATM    1  C   UNL     1      39.841 -13.035   5.555  1.00  0.00     0.136 A 
HETATM    2  N   UNL     1      39.871 -14.398   5.384  1.00  0.00    -0.244 NA
HETATM    3  C   UNL     1      41.125 -14.749   5.555  1.00  0.00     0.131 A 
HETATM    4  N   UNL     1      41.901 -13.651   5.825  1.00  0.00    -0.341 N 
HETATM    5  C   UNL     1      43.337 -13.689   5.999  1.00  0.00     0.157 C 
HETATM    6  C   UNL     1      43.837 -15.107   6.293  1.00  0.00     0.256 C 
HETATM    7  N   UNL     1      43.203 -16.110   5.339  1.00  0.00    -0.059 N 
HETATM    8  H   UNL     1      43.380 -15.795   4.377  1.00  0.00     0.280 HD
HETATM    9  C   UNL     1      41.693 -16.119   5.504  1.00  0.00     0.313 C 
HETATM   10  C   UNL     1      41.100 -12.552   5.828  1.00  0.00     0.111 A 
ENDROOT
BRANCH   7  11
HETATM   11  C   UNL     1      43.763 -17.504   5.448  1.00  0.00     0.274 C 
BRANCH  11  12
HETATM   12  C   UNL     1      43.801 -18.213   4.133  1.00  0.00    -0.024 A 
HETATM   13  C   UNL     1      43.586 -17.613   2.901  1.00  0.00     0.059 A 
HETATM   14  S   UNL     1      43.727 -18.714   1.595  1.00  0.00    -0.094 SA
HETATM   15  C   UNL     1      44.038 -19.997   2.651  1.00  0.00     0.051 A 
HETATM   16 BR   UNL     1      44.337 -21.753   2.074  1.00  0.00    -0.043 Br
HETATM   17  C   UNL     1      44.052 -19.621   3.971  1.00  0.00     0.036 A 
ENDBRANCH  11  12
ENDBRANCH   7  11
TORSDOF 2
ENDMDL
MODEL 5
REMARK VINA RESULT:      -5.7      1.623      2.256
REMARK  2 active torsions:
REMARK  status: ('A' for Active; 'I' for Inactive)
REMARK    1  A    between atoms: N_7  and  C_9 
REMARK    2  A    between atoms: C_9  and  C_10 
ROOT
HETATM    1  C   UNL     1      41.298 -14.425  -1.944  1.00  0.00     0.136 A 
HETATM    2  N   UNL     1      41.046 -15.663  -1.405  1.00  0.00    -0.244 NA
HETATM    3  C   UNL     1      41.311 -15.554  -0.123  1.00  0.00     0.131 A 
HETATM    4  N   UNL     1      41.732 -14.283   0.175  1.00  0.00    -0.341 N 
HETATM    5  C   UNL     1      42.165 -13.854   1.487  1.00  0.00     0.157 C 
HETATM    6  C   UNL     1      41.691 -14.812   2.584  1.00  0.00     0.256 C 
HETATM    7  N   UNL     1      41.946 -16.258   2.182  1.00  0.00    -0.059 N 
HETATM    8  H   UNL     1      42.941 -16.355   1.943  1.00  0.00     0.280 HD
HETATM    9  C   UNL     1      41.176 -16.602   0.918  1.00  0.00     0.313 C 
HETATM   10  C   UNL     1      41.730 -13.552  -0.972  1.00  0.00     0.111 A 
ENDROOT
BRANCH   7  11
HETATM   11  C   UNL     1      41.663 -17.260   3.271  1.00  0.00     0.274 C 
BRANCH  11  12
HETATM   12  C   UNL     1      42.697 -18.337   3.344  1.00  0.00    -0.024 A 
HETATM   13  C   UNL     1      43.660 -18.448   4.335  1.00  0.00     0.059 A 
HETATM   14  S   UNL     1      44.672 -19.815   4.124  1.00  0.00    -0.094 SA
HETATM   15  C   UNL     1      43.865 -20.250   2.703  1.00  0.00     0.051 A 
HETATM   16 BR   UNL     1      44.328 -21.746   1.678  1.00  0.00    -0.043 Br
HETATM   17  C   UNL     1      42.838 -19.398   2.382  1.00  0.00     0.036 A 
ENDBRANCH  11  12
ENDBRANCH   7  11
TORSDOF 2
ENDMDL
MODEL 6
REMARK VINA RESULT:      -5.7      4.312      6.831
REMARK  2 active torsions:
REMARK  status: ('A' for Active; 'I' for Inactive)
REMARK    1  A    between atoms: N_7  and  C_9 
REMARK    2  A    between atoms: C_9  and  C_10 
ROOT
HETATM    1  C   UNL     1      44.770 -22.699   3.785  1.00  0.00     0.136 A 
HETATM    2  N   UNL     1      44.464 -21.753   2.838  1.00  0.00    -0.244 NA
HETATM    3  C   UNL     1      44.357 -20.618   3.492  1.00  0.00     0.131 A 
HETATM    4  N   UNL     1      44.581 -20.810   4.831  1.00  0.00    -0.341 N 
HETATM    5  C   UNL     1      44.475 -19.772   5.833  1.00  0.00     0.157 C 
HETATM    6  C   UNL     1      44.527 -18.373   5.211  1.00  0.00     0.256 C 
HETATM    7  N   UNL     1      43.617 -18.291   3.994  1.00  0.00    -0.059 N 
HETATM    8  H   UNL     1      42.674 -18.589   4.276  1.00  0.00     0.280 HD
HETATM    9  C   UNL     1      44.064 -19.277   2.928  1.00  0.00     0.313 C 
HETATM   10  C   UNL     1      44.846 -22.129   5.035  1.00  0.00     0.111 A 
ENDROOT
BRANCH   7  11
HETATM   11  C   UNL     1      43.479 -16.906   3.418  1.00  0.00     0.274 C 
BRANCH  11  12
HETATM   12  C   UNL     1      42.550 -16.044   4.211  1.00  0.00    -0.024 A 
HETATM   13  C   UNL     1      41.378 -16.481   4.810  1.00  0.00     0.059 A 
HETATM   14  S   UNL     1      40.565 -15.234   5.660  1.00  0.00    -0.094 SA
HETATM   15  C   UNL     1      41.738 -14.102   5.213  1.00  0.00     0.051 A 
HETATM   16 BR   UNL     1      41.671 -12.301   5.719  1.00  0.00    -0.043 Br
HETATM   17  C   UNL     1      42.742 -14.637   4.444  1.00  0.00     0.036 A 
ENDBRANCH  11  12
ENDBRANCH   7  11
TORSDOF 2
ENDMDL
MODEL 7
REMARK VINA RESULT:      -5.6      2.013      2.629
REMARK  2 active torsions:
REMARK  status: ('A' for Active; 'I' for Inactive)
REMARK    1  A    between atoms: N_7  and  C_9 
REMARK    2  A    between atoms: C_9  and  C_10 
ROOT
HETATM    1  C   UNL     1      41.679 -12.847   2.563  1.00  0.00     0.136 A 
HETATM    2  N   UNL     1      42.850 -13.564   2.593  1.00  0.00    -0.244 NA
HETATM    3  C   UNL     1      42.523 -14.793   2.264  1.00  0.00     0.131 A 
HETATM    4  N   UNL     1      41.175 -14.886   2.030  1.00  0.00    -0.341 N 
HETATM    5  C   UNL     1      40.485 -16.117   1.711  1.00  0.00     0.157 C 
HETATM    6  C   UNL     1      41.452 -17.202   1.228  1.00  0.00     0.256 C 
HETATM    7  N   UNL     1      42.672 -17.277   2.135  1.00  0.00    -0.059 N 
HETATM    8  H   UNL     1      42.348 -17.407   3.102  1.00  0.00     0.280 HD
HETATM    9  C   UNL     1      43.428 -15.959   2.121  1.00  0.00     0.313 C 
HETATM   10  C   UNL     1      40.622 -13.656   2.216  1.00  0.00     0.111 A 
ENDROOT
BRANCH   7  11
HETATM   11  C   UNL     1      43.596 -18.428   1.832  1.00  0.00     0.274 C 
BRANCH  11  12
HETATM   12  C   UNL     1      43.965 -19.206   3.054  1.00  0.00    -0.024 A 
HETATM   13  C   UNL     1      44.675 -20.397   3.054  1.00  0.00     0.059 A 
HETATM   14  S   UNL     1      44.944 -21.008   4.632  1.00  0.00    -0.094 SA
HETATM   15  C   UNL     1      44.095 -19.720   5.325  1.00  0.00     0.051 A 
HETATM   16 BR   UNL     1      43.837 -19.535   7.169  1.00  0.00    -0.043 Br
HETATM   17  C   UNL     1      43.618 -18.826   4.398  1.00  0.00     0.036 A 
ENDBRANCH  11  12
ENDBRANCH   7  11
TORSDOF 2
ENDMDL
MODEL 8
REMARK VINA RESULT:      -5.5      3.733      6.041
REMARK  2 active torsions:
REMARK  status: ('A' for Active; 'I' for Inactive)
REMARK    1  A    between atoms: N_7  and  C_9 
REMARK    2  A    between atoms: C_9  and  C_10 
ROOT
HETATM    1  C   UNL     1      43.254 -17.476   8.125  1.00  0.00     0.136 A 
HETATM    2  N   UNL     1      42.281 -17.239   7.185  1.00  0.00    -0.244 NA
HETATM    3  C   UNL     1      42.728 -17.771   6.070  1.00  0.00     0.131 A 
HETATM    4  N   UNL     1      43.961 -18.338   6.267  1.00  0.00    -0.341 N 
HETATM    5  C   UNL     1      44.754 -18.951   5.223  1.00  0.00     0.157 C 
HETATM    6  C   UNL     1      43.907 -19.297   3.994  1.00  0.00     0.256 C 
HETATM    7  N   UNL     1      43.003 -18.132   3.619  1.00  0.00    -0.059 N 
HETATM    8  H   UNL     1      43.588 -17.294   3.501  1.00  0.00     0.280 HD
HETATM    9  C   UNL     1      42.044 -17.815   4.754  1.00  0.00     0.313 C 
HETATM   10  C   UNL     1      44.311 -18.159   7.570  1.00  0.00     0.111 A 
ENDROOT
BRANCH   7  11
HETATM   11  C   UNL     1      42.256 -18.323   2.324  1.00  0.00     0.274 C 
BRANCH  11  12
HETATM   12  C   UNL     1      41.733 -17.038   1.767  1.00  0.00    -0.024 A 
HETATM   13  C   UNL     1      42.478 -16.129   1.031  1.00  0.00     0.059 A 
HETATM   14  S   UNL     1      41.560 -14.773   0.529  1.00  0.00    -0.094 SA
HETATM   15  C   UNL     1      40.180 -15.360   1.309  1.00  0.00     0.051 A 
HETATM   16 BR   UNL     1      38.541 -14.457   1.314  1.00  0.00    -0.043 Br
HETATM   17  C   UNL     1      40.384 -16.565   1.935  1.00  0.00     0.036 A 
ENDBRANCH  11  12
ENDBRANCH   7  11
TORSDOF 2
ENDMDL
MODEL 9
REMARK VINA RESULT:      -5.4      3.826      6.555
REMARK  2 active torsions:
REMARK  status: ('A' for Active; 'I' for Inactive)
REMARK    1  A    between atoms: N_7  and  C_9 
REMARK    2  A    between atoms: C_9  and  C_10 
ROOT
HETATM    1  C   UNL     1      44.840 -21.671   4.632  1.00  0.00     0.136 A 
HETATM    2  N   UNL     1      44.847 -20.438   4.026  1.00  0.00    -0.244 NA
HETATM    3  C   UNL     1      44.451 -19.589   4.947  1.00  0.00     0.131 A 
HETATM    4  N   UNL     1      44.185 -20.242   6.123  1.00  0.00    -0.341 N 
HETATM    5  C   UNL     1      43.668 -19.601   7.313  1.00  0.00     0.157 C 
HETATM    6  C   UNL     1      43.867 -18.083   7.274  1.00  0.00     0.256 C 
HETATM    7  N   UNL     1      43.455 -17.521   5.920  1.00  0.00    -0.059 N 
HETATM    8  H   UNL     1      42.492 -17.822   5.726  1.00  0.00     0.280 HD
HETATM    9  C   UNL     1      44.310 -18.117   4.815  1.00  0.00     0.313 C 
HETATM   10  C   UNL     1      44.428 -21.568   5.940  1.00  0.00     0.111 A 
ENDROOT
BRANCH   7  11
HETATM   11  C   UNL     1      43.461 -16.016   5.849  1.00  0.00     0.274 C 
BRANCH  11  12
HETATM   12  C   UNL     1      42.842 -15.498   4.591  1.00  0.00    -0.024 A 
HETATM   13  C   UNL     1      43.435 -14.587   3.731  1.00  0.00     0.059 A 
HETATM   14  S   UNL     1      42.456 -14.227   2.371  1.00  0.00    -0.094 SA
HETATM   15  C   UNL     1      41.228 -15.246   2.928  1.00  0.00     0.051 A 
HETATM   16 BR   UNL     1      39.614 -15.502   2.015  1.00  0.00    -0.043 Br
HETATM   17  C   UNL     1      41.536 -15.867   4.113  1.00  0.00     0.036 A 
ENDBRANCH  11  12
ENDBRANCH   7  11
TORSDOF 2
ENDMDL
MODEL 10
REMARK VINA RESULT:      -5.2      3.733      6.121
REMARK  2 active torsions:
REMARK  status: ('A' for Active; 'I' for Inactive)
REMARK    1  A    between atoms: N_7  and  C_9 
REMARK    2  A    between atoms: C_9  and  C_10 
ROOT
HETATM    1  C   UNL     1      44.166 -18.816   6.295  1.00  0.00     0.136 A 
HETATM    2  N   UNL     1      42.992 -18.141   6.064  1.00  0.00    -0.244 NA
HETATM    3  C   UNL     1      42.822 -18.159   4.761  1.00  0.00     0.131 A 
HETATM    4  N   UNL     1      43.856 -18.821   4.150  1.00  0.00    -0.341 N 
HETATM    5  C   UNL     1      44.002 -18.960   2.717  1.00  0.00     0.157 C 
HETATM    6  C   UNL     1      42.685 -18.691   1.982  1.00  0.00     0.256 C 
HETATM    7  N   UNL     1      42.018 -17.431   2.517  1.00  0.00    -0.059 N 
HETATM    8  H   UNL     1      42.695 -16.659   2.459  1.00  0.00     0.280 HD
HETATM    9  C   UNL     1      41.689 -17.589   3.992  1.00  0.00     0.313 C 
HETATM   10  C   UNL     1      44.720 -19.245   5.111  1.00  0.00     0.111 A 
ENDROOT
BRANCH   7  11
HETATM   11  C   UNL     1      40.802 -17.000   1.740  1.00  0.00     0.274 C 
BRANCH  11  12
HETATM   12  C   UNL     1      41.074 -15.830   0.850  1.00  0.00    -0.024 A 
HETATM   13  C   UNL     1      41.370 -14.549   1.290  1.00  0.00     0.059 A 
HETATM   14  S   UNL     1      41.648 -13.454   0.002  1.00  0.00    -0.094 SA
HETATM   15  C   UNL     1      41.346 -14.657  -1.146  1.00  0.00     0.051 A 
HETATM   16 BR   UNL     1      41.413 -14.354  -2.992  1.00  0.00    -0.043 Br
HETATM   17  C   UNL     1      41.049 -15.875  -0.588  1.00  0.00     0.036 A 
ENDBRANCH  11  12
ENDBRANCH   7  11
TORSDOF 2
ENDMDL
