MODEL 1
REMARK VINA RESULT:      -8.0      0.000      0.000
REMARK  4 active torsions:
REMARK  status: ('A' for Active; 'I' for Inactive)
REMARK    1  A    between atoms: O_2  and  C_3 
REMARK    2  A    between atoms: C_4  and  O_5 
REMARK    3  A    between atoms: C_9  and  C_10 
REMARK    4  A    between atoms: C_10  and  N_11 
ROOT
HETATM    1  N   UNL     1      42.694 -15.886   5.330  1.00  0.00    -0.066 N 
HETATM    2  H   UNL     1      42.850 -15.766   4.317  1.00  0.00     0.280 HD
HETATM    3  C   UNL     1      41.217 -16.205   5.490  1.00  0.00     0.246 C 
HETATM    4  C   UNL     1      40.342 -15.000   5.086  1.00  0.00     0.062 C 
HETATM    5  C   UNL     1      40.697 -13.804   5.961  1.00  0.00     0.020 C 
HETATM    6  C   UNL     1      42.146 -13.432   5.676  1.00  0.00     0.031 C 
HETATM    7  C   UNL     1      42.276 -12.984   4.221  1.00  0.00     0.138 C 
HETATM    8  N   UNL     1      41.567 -13.807   3.242  1.00  0.00    -0.317 N 
HETATM    9  C   UNL     1      40.530 -14.668   3.614  1.00  0.00     0.020 A 
HETATM   10  C   UNL     1      39.733 -15.202   2.672  1.00  0.00     0.026 A 
HETATM   11  C   UNL     1      41.812 -13.470   1.899  1.00  0.00     0.247 A 
HETATM   12  O   UNL     1      42.710 -12.716   1.540  1.00  0.00    -0.268 OA
HETATM   13  C   UNL     1      40.918 -14.085   0.890  1.00  0.00     0.074 A 
HETATM   14  C   UNL     1      39.930 -14.897   1.279  1.00  0.00     0.007 A 
HETATM   15  C   UNL     1      43.089 -14.589   6.009  1.00  0.00     0.241 C 
ENDROOT
BRANCH   1  16
HETATM   16  C   UNL     1      43.625 -16.996   5.783  1.00  0.00     0.273 C 
BRANCH  16  17
HETATM   17  C   UNL     1      43.809 -18.151   4.837  1.00  0.00    -0.028 A 
HETATM   18  C   UNL     1      44.196 -19.408   5.336  1.00  0.00     0.031 A 
HETATM   19  C   UNL     1      44.464 -20.471   4.468  1.00  0.00     0.047 A 
HETATM   20  C   UNL     1      44.361 -20.289   3.090  1.00  0.00     0.116 A 
HETATM   21 BR   UNL     1      45.021 -22.120   5.217  1.00  0.00    -0.048 Br
HETATM   22  C   UNL     1      43.918 -19.063   2.587  1.00  0.00     0.103 A 
HETATM   23  C   UNL     1      43.657 -17.994   3.452  1.00  0.00     0.048 A 
BRANCH  20  24
HETATM   24  O   UNL     1      44.741 -21.291   2.244  1.00  0.00    -0.357 OA
HETATM   25  H   UNL     1      43.952 -21.831   2.058  1.00  0.00     0.218 HD
ENDBRANCH  20  24
BRANCH  22  26
HETATM   26  O   UNL     1      43.812 -18.812   1.245  1.00  0.00    -0.353 OA
HETATM   27  C   UNL     1      43.685 -17.416   0.954  1.00  0.00     0.210 C 
ENDBRANCH  22  26
ENDBRANCH  16  17
ENDBRANCH   1  16
TORSDOF 4
ENDMDL
MODEL 2
REMARK VINA RESULT:      -7.7      1.579      2.377
REMARK  4 active torsions:
REMARK  status: ('A' for Active; 'I' for Inactive)
REMARK    1  A    between atoms: O_2  and  C_3 
REMARK    2  A    between atoms: C_4  and  O_5 
REMARK    3  A    between atoms: C_9  and  C_10 
REMARK    4  A    between atoms: C_10  and  N_11 
ROOT
HETATM    1  N   UNL     1      42.249 -15.185   5.505  1.00  0.00    -0.066 N 
HETATM    2  H   UNL     1      42.461 -15.191   4.495  1.00  0.00     0.280 HD
HETATM    3  C   UNL     1      40.758 -15.448   5.620  1.00  0.00     0.246 C 
HETATM    4  C   UNL     1      39.940 -14.281   5.029  1.00  0.00     0.062 C 
HETATM    5  C   UNL     1      40.284 -12.997   5.775  1.00  0.00     0.020 C 
HETATM    6  C   UNL     1      41.756 -12.695   5.528  1.00  0.00     0.031 C 
HETATM    7  C   UNL     1      41.974 -12.427   4.041  1.00  0.00     0.138 C 
HETATM    8  N   UNL     1      41.293 -13.344   3.127  1.00  0.00    -0.317 N 
HETATM    9  C   UNL     1      40.213 -14.131   3.542  1.00  0.00     0.020 A 
HETATM   10  C   UNL     1      39.450 -14.754   2.627  1.00  0.00     0.026 A 
HETATM   11  C   UNL     1      41.616 -13.176   1.769  1.00  0.00     0.247 A 
HETATM   12  O   UNL     1      42.554 -12.491   1.374  1.00  0.00    -0.268 OA
HETATM   13  C   UNL     1      40.758 -13.886   0.793  1.00  0.00     0.074 A 
HETATM   14  C   UNL     1      39.728 -14.623   1.220  1.00  0.00     0.007 A 
HETATM   15  C   UNL     1      42.646 -13.826   6.047  1.00  0.00     0.241 C 
ENDROOT
BRANCH   1  16
HETATM   16  C   UNL     1      43.122 -16.254   6.135  1.00  0.00     0.273 C 
BRANCH  16  17
HETATM   17  C   UNL     1      43.564 -17.380   5.241  1.00  0.00    -0.028 A 
HETATM   18  C   UNL     1      43.523 -17.222   3.844  1.00  0.00     0.031 A 
HETATM   19  C   UNL     1      43.839 -18.285   2.993  1.00  0.00     0.047 A 
HETATM   20  C   UNL     1      44.190 -19.524   3.527  1.00  0.00     0.116 A 
HETATM   21 BR   UNL     1      43.717 -18.003   1.123  1.00  0.00    -0.048 Br
HETATM   22  C   UNL     1      44.294 -19.674   4.911  1.00  0.00     0.103 A 
HETATM   23  C   UNL     1      43.970 -18.615   5.766  1.00  0.00     0.048 A 
BRANCH  20  24
HETATM   24  O   UNL     1      44.379 -20.591   2.695  1.00  0.00    -0.357 OA
HETATM   25  H   UNL     1      45.190 -21.047   2.985  1.00  0.00     0.218 HD
ENDBRANCH  20  24
BRANCH  22  26
HETATM   26  O   UNL     1      44.617 -20.868   5.501  1.00  0.00    -0.353 OA
HETATM   27  C   UNL     1      43.829 -21.139   6.665  1.00  0.00     0.210 C 
ENDBRANCH  22  26
ENDBRANCH  16  17
ENDBRANCH   1  16
TORSDOF 4
ENDMDL
MODEL 3
REMARK VINA RESULT:      -7.5      3.524      5.559
REMARK  4 active torsions:
REMARK  status: ('A' for Active; 'I' for Inactive)
REMARK    1  A    between atoms: O_2  and  C_3 
REMARK    2  A    between atoms: C_4  and  O_5 
REMARK    3  A    between atoms: C_9  and  C_10 
REMARK    4  A    between atoms: C_10  and  N_11 
ROOT
HETATM    1  N   UNL     1      39.248 -14.657   0.782  1.00  0.00    -0.066 N 
HETATM    2  H   UNL     1      39.469 -15.358   0.057  1.00  0.00     0.280 HD
HETATM    3  C   UNL     1      37.946 -14.006   0.349  1.00  0.00     0.246 C 
HETATM    4  C   UNL     1      38.136 -13.196  -0.951  1.00  0.00     0.062 C 
HETATM    5  C   UNL     1      39.189 -12.118  -0.723  1.00  0.00     0.020 C 
HETATM    6  C   UNL     1      40.509 -12.813  -0.421  1.00  0.00     0.031 C 
HETATM    7  C   UNL     1      40.945 -13.621  -1.641  1.00  0.00     0.138 C 
HETATM    8  N   UNL     1      39.890 -14.395  -2.296  1.00  0.00    -0.317 N 
HETATM    9  C   UNL     1      38.536 -14.108  -2.099  1.00  0.00     0.020 A 
HETATM   10  C   UNL     1      37.612 -14.654  -2.909  1.00  0.00     0.026 A 
HETATM   11  C   UNL     1      40.332 -15.245  -3.325  1.00  0.00     0.247 A 
HETATM   12  O   UNL     1      41.512 -15.513  -3.526  1.00  0.00    -0.268 OA
HETATM   13  C   UNL     1      39.284 -15.834  -4.191  1.00  0.00     0.074 A 
HETATM   14  C   UNL     1      37.998 -15.533  -3.983  1.00  0.00     0.007 A 
HETATM   15  C   UNL     1      40.403 -13.677   0.836  1.00  0.00     0.241 C 
ENDROOT
BRANCH   1  16
HETATM   16  C   UNL     1      39.163 -15.409   2.097  1.00  0.00     0.273 C 
BRANCH  16  17
HETATM   17  C   UNL     1      40.462 -15.875   2.696  1.00  0.00    -0.028 A 
HETATM   18  C   UNL     1      41.103 -17.014   2.178  1.00  0.00     0.031 A 
HETATM   19  C   UNL     1      42.260 -17.520   2.777  1.00  0.00     0.047 A 
HETATM   20  C   UNL     1      42.786 -16.900   3.909  1.00  0.00     0.116 A 
HETATM   21 BR   UNL     1      43.039 -19.083   2.043  1.00  0.00    -0.048 Br
HETATM   22  C   UNL     1      42.193 -15.733   4.395  1.00  0.00     0.103 A 
HETATM   23  C   UNL     1      41.029 -15.229   3.804  1.00  0.00     0.048 A 
BRANCH  20  24
HETATM   24  O   UNL     1      43.844 -17.467   4.562  1.00  0.00    -0.357 OA
HETATM   25  H   UNL     1      43.732 -17.282   5.512  1.00  0.00     0.218 HD
ENDBRANCH  20  24
BRANCH  22  26
HETATM   26  O   UNL     1      42.648 -15.085   5.513  1.00  0.00    -0.353 OA
HETATM   27  C   UNL     1      43.462 -13.950   5.200  1.00  0.00     0.210 C 
ENDBRANCH  22  26
ENDBRANCH  16  17
ENDBRANCH   1  16
TORSDOF 4
ENDMDL
MODEL 4
REMARK VINA RESULT:      -7.4      1.809      2.581
REMARK  4 active torsions:
REMARK  status: ('A' for Active; 'I' for Inactive)
REMARK    1  A    between atoms: O_2  and  C_3 
REMARK    2  A    between atoms: C_4  and  O_5 
REMARK    3  A    between atoms: C_9  and  C_10 
REMARK    4  A    between atoms: C_10  and  N_11 
ROOT
HETATM    1  N   UNL     1      42.581 -15.983   2.133  1.00  0.00    -0.066 N 
HETATM    2  H   UNL     1      42.197 -15.559   1.274  1.00  0.00     0.280 HD
HETATM    3  C   UNL     1      41.384 -16.481   2.923  1.00  0.00     0.246 C 
HETATM    4  C   UNL     1      40.511 -15.306   3.409  1.00  0.00     0.062 C 
HETATM    5  C   UNL     1      41.349 -14.386   4.290  1.00  0.00     0.020 C 
HETATM    6  C   UNL     1      42.461 -13.804   3.429  1.00  0.00     0.031 C 
HETATM    7  C   UNL     1      41.848 -12.941   2.327  1.00  0.00     0.138 C 
HETATM    8  N   UNL     1      40.680 -13.510   1.656  1.00  0.00    -0.317 N 
HETATM    9  C   UNL     1      39.931 -14.543   2.229  1.00  0.00     0.020 A 
HETATM   10  C   UNL     1      38.726 -14.856   1.721  1.00  0.00     0.026 A 
HETATM   11  C   UNL     1      40.216 -12.775   0.552  1.00  0.00     0.247 A 
HETATM   12  O   UNL     1      40.847 -11.862   0.028  1.00  0.00    -0.268 OA
HETATM   13  C   UNL     1      38.888 -13.156   0.015  1.00  0.00     0.074 A 
HETATM   14  C   UNL     1      38.192 -14.141   0.591  1.00  0.00     0.007 A 
HETATM   15  C   UNL     1      43.358 -14.907   2.865  1.00  0.00     0.241 C 
ENDROOT
BRANCH   1  16
HETATM   16  C   UNL     1      43.533 -17.077   1.686  1.00  0.00     0.273 C 
BRANCH  16  17
HETATM   17  C   UNL     1      43.812 -18.176   2.674  1.00  0.00    -0.028 A 
HETATM   18  C   UNL     1      44.051 -17.860   4.024  1.00  0.00     0.031 A 
HETATM   19  C   UNL     1      44.405 -18.854   4.941  1.00  0.00     0.047 A 
HETATM   20  C   UNL     1      44.536 -20.176   4.519  1.00  0.00     0.116 A 
HETATM   21 BR   UNL     1      44.752 -18.339   6.731  1.00  0.00    -0.048 Br
HETATM   22  C   UNL     1      44.242 -20.510   3.195  1.00  0.00     0.103 A 
HETATM   23  C   UNL     1      43.896 -19.516   2.272  1.00  0.00     0.048 A 
BRANCH  20  24
HETATM   24  O   UNL     1      45.000 -21.122   5.388  1.00  0.00    -0.357 OA
HETATM   25  H   UNL     1      45.496 -20.657   6.087  1.00  0.00     0.218 HD
ENDBRANCH  20  24
BRANCH  22  26
HETATM   26  O   UNL     1      44.367 -21.786   2.712  1.00  0.00    -0.353 OA
HETATM   27  C   UNL     1      43.941 -21.904   1.350  1.00  0.00     0.210 C 
ENDBRANCH  22  26
ENDBRANCH  16  17
ENDBRANCH   1  16
TORSDOF 4
ENDMDL
MODEL 5
REMARK VINA RESULT:      -7.2      1.979      3.730
REMARK  4 active torsions:
REMARK  status: ('A' for Active; 'I' for Inactive)
REMARK    1  A    between atoms: O_2  and  C_3 
REMARK    2  A    between atoms: C_4  and  O_5 
REMARK    3  A    between atoms: C_9  and  C_10 
REMARK    4  A    between atoms: C_10  and  N_11 
ROOT
HETATM    1  N   UNL     1      42.333 -16.110   1.775  1.00  0.00    -0.066 N 
HETATM    2  H   UNL     1      42.478 -15.797   2.747  1.00  0.00     0.280 HD
HETATM    3  C   UNL     1      42.325 -14.849   0.928  1.00  0.00     0.246 C 
HETATM    4  C   UNL     1      41.101 -13.969   1.255  1.00  0.00     0.062 C 
HETATM    5  C   UNL     1      39.825 -14.762   0.992  1.00  0.00     0.020 C 
HETATM    6  C   UNL     1      39.807 -15.945   1.950  1.00  0.00     0.031 C 
HETATM    7  C   UNL     1      39.732 -15.431   3.386  1.00  0.00     0.138 C 
HETATM    8  N   UNL     1      40.607 -14.301   3.699  1.00  0.00    -0.317 N 
HETATM    9  C   UNL     1      41.151 -13.491   2.697  1.00  0.00     0.020 A 
HETATM   10  C   UNL     1      41.724 -12.319   3.023  1.00  0.00     0.026 A 
HETATM   11  C   UNL     1      40.635 -13.932   5.055  1.00  0.00     0.247 A 
HETATM   12  O   UNL     1      40.164 -14.618   5.956  1.00  0.00    -0.268 OA
HETATM   13  C   UNL     1      41.283 -12.638   5.375  1.00  0.00     0.074 A 
HETATM   14  C   UNL     1      41.786 -11.883   4.393  1.00  0.00     0.007 A 
HETATM   15  C   UNL     1      41.015 -16.856   1.726  1.00  0.00     0.241 C 
ENDROOT
BRANCH   1  16
HETATM   16  C   UNL     1      43.467 -17.068   1.457  1.00  0.00     0.273 C 
BRANCH  16  17
HETATM   17  C   UNL     1      43.768 -18.125   2.484  1.00  0.00    -0.028 A 
HETATM   18  C   UNL     1      43.936 -17.762   3.832  1.00  0.00     0.031 A 
HETATM   19  C   UNL     1      44.309 -18.712   4.788  1.00  0.00     0.047 A 
HETATM   20  C   UNL     1      44.529 -20.034   4.407  1.00  0.00     0.116 A 
HETATM   21 BR   UNL     1      44.557 -18.134   6.575  1.00  0.00    -0.048 Br
HETATM   22  C   UNL     1      44.305 -20.418   3.083  1.00  0.00     0.103 A 
HETATM   23  C   UNL     1      43.941 -19.468   2.122  1.00  0.00     0.048 A 
BRANCH  20  24
HETATM   24  O   UNL     1      45.010 -20.931   5.319  1.00  0.00    -0.357 OA
HETATM   25  H   UNL     1      45.793 -21.356   4.924  1.00  0.00     0.218 HD
ENDBRANCH  20  24
BRANCH  22  26
HETATM   26  O   UNL     1      44.519 -21.696   2.639  1.00  0.00    -0.353 OA
HETATM   27  C   UNL     1      43.909 -21.948   1.369  1.00  0.00     0.210 C 
ENDBRANCH  22  26
ENDBRANCH  16  17
ENDBRANCH   1  16
TORSDOF 4
ENDMDL
MODEL 6
REMARK VINA RESULT:      -7.2      1.905      2.689
REMARK  4 active torsions:
REMARK  status: ('A' for Active; 'I' for Inactive)
REMARK    1  A    between atoms: O_2  and  C_3 
REMARK    2  A    between atoms: C_4  and  O_5 
REMARK    3  A    between atoms: C_9  and  C_10 
REMARK    4  A    between atoms: C_10  and  N_11 
ROOT
HETATM    1  N   UNL     1      42.546 -15.711   2.359  1.00  0.00    -0.066 N 
HETATM    2  H   UNL     1      42.176 -15.221   1.529  1.00  0.00     0.280 HD
HETATM    3  C   UNL     1      41.360 -16.417   2.991  1.00  0.00     0.246 C 
HETATM    4  C   UNL     1      40.339 -15.402   3.545  1.00  0.00     0.062 C 
HETATM    5  C   UNL     1      41.019 -14.523   4.589  1.00  0.00     0.020 C 
HETATM    6  C   UNL     1      42.117 -13.733   3.890  1.00  0.00     0.031 C 
HETATM    7  C   UNL     1      41.488 -12.802   2.855  1.00  0.00     0.138 C 
HETATM    8  N   UNL     1      40.431 -13.393   2.034  1.00  0.00    -0.317 N 
HETATM    9  C   UNL     1      39.759 -14.556   2.423  1.00  0.00     0.020 A 
HETATM   10  C   UNL     1      38.629 -14.918   1.791  1.00  0.00     0.026 A 
HETATM   11  C   UNL     1      39.963 -12.573   0.992  1.00  0.00     0.247 A 
HETATM   12  O   UNL     1      40.527 -11.545   0.630  1.00  0.00    -0.268 OA
HETATM   13  C   UNL     1      38.720 -13.009   0.315  1.00  0.00     0.074 A 
HETATM   14  C   UNL     1      38.096 -14.122   0.716  1.00  0.00     0.007 A 
HETATM   15  C   UNL     1      43.159 -14.666   3.270  1.00  0.00     0.241 C 
ENDROOT
BRANCH   1  16
HETATM   16  C   UNL     1      43.634 -16.643   1.859  1.00  0.00     0.273 C 
BRANCH  16  17
HETATM   17  C   UNL     1      43.963 -17.827   2.728  1.00  0.00    -0.028 A 
HETATM   18  C   UNL     1      44.065 -19.108   2.157  1.00  0.00     0.031 A 
HETATM   19  C   UNL     1      44.276 -20.234   2.957  1.00  0.00     0.047 A 
HETATM   20  C   UNL     1      44.377 -20.097   4.340  1.00  0.00     0.116 A 
HETATM   21 BR   UNL     1      44.359 -21.929   2.114  1.00  0.00    -0.048 Br
HETATM   22  C   UNL     1      44.338 -18.824   4.912  1.00  0.00     0.103 A 
HETATM   23  C   UNL     1      44.118 -17.695   4.115  1.00  0.00     0.048 A 
BRANCH  20  24
HETATM   24  O   UNL     1      44.460 -21.211   5.127  1.00  0.00    -0.357 OA
HETATM   25  H   UNL     1      44.481 -20.911   6.054  1.00  0.00     0.218 HD
ENDBRANCH  20  24
BRANCH  22  26
HETATM   26  O   UNL     1      44.413 -18.620   6.265  1.00  0.00    -0.353 OA
HETATM   27  C   UNL     1      44.567 -17.239   6.607  1.00  0.00     0.210 C 
ENDBRANCH  22  26
ENDBRANCH  16  17
ENDBRANCH   1  16
TORSDOF 4
ENDMDL
MODEL 7
REMARK VINA RESULT:      -7.2      2.038      3.846
REMARK  4 active torsions:
REMARK  status: ('A' for Active; 'I' for Inactive)
REMARK    1  A    between atoms: O_2  and  C_3 
REMARK    2  A    between atoms: C_4  and  O_5 
REMARK    3  A    between atoms: C_9  and  C_10 
REMARK    4  A    between atoms: C_10  and  N_11 
ROOT
HETATM    1  N   UNL     1      41.948 -15.851   1.581  1.00  0.00    -0.066 N 
HETATM    2  H   UNL     1      42.194 -15.583   2.547  1.00  0.00     0.280 HD
HETATM    3  C   UNL     1      41.895 -14.556   0.789  1.00  0.00     0.246 C 
HETATM    4  C   UNL     1      40.734 -13.660   1.267  1.00  0.00     0.062 C 
HETATM    5  C   UNL     1      39.417 -14.410   1.097  1.00  0.00     0.020 C 
HETATM    6  C   UNL     1      39.456 -15.631   2.006  1.00  0.00     0.031 C 
HETATM    7  C   UNL     1      39.533 -15.175   3.461  1.00  0.00     0.138 C 
HETATM    8  N   UNL     1      40.466 -14.082   3.732  1.00  0.00    -0.317 N 
HETATM    9  C   UNL     1      40.935 -13.244   2.715  1.00  0.00     0.020 A 
HETATM   10  C   UNL     1      41.570 -12.102   3.029  1.00  0.00     0.026 A 
HETATM   11  C   UNL     1      40.634 -13.770   5.093  1.00  0.00     0.247 A 
HETATM   12  O   UNL     1      40.232 -14.482   6.007  1.00  0.00    -0.268 OA
HETATM   13  C   UNL     1      41.346 -12.508   5.399  1.00  0.00     0.074 A 
HETATM   14  C   UNL     1      41.774 -11.724   4.404  1.00  0.00     0.007 A 
HETATM   15  C   UNL     1      40.610 -16.562   1.630  1.00  0.00     0.241 C 
ENDROOT
BRANCH   1  16
HETATM   16  C   UNL     1      43.018 -16.823   1.118  1.00  0.00     0.273 C 
BRANCH  16  17
HETATM   17  C   UNL     1      43.518 -17.813   2.133  1.00  0.00    -0.028 A 
HETATM   18  C   UNL     1      43.764 -19.144   1.751  1.00  0.00     0.031 A 
HETATM   19  C   UNL     1      44.139 -20.104   2.697  1.00  0.00     0.047 A 
HETATM   20  C   UNL     1      44.262 -19.748   4.039  1.00  0.00     0.116 A 
HETATM   21 BR   UNL     1      44.409 -21.884   2.107  1.00  0.00    -0.048 Br
HETATM   22  C   UNL     1      44.080 -18.417   4.419  1.00  0.00     0.103 A 
HETATM   23  C   UNL     1      43.696 -17.456   3.477  1.00  0.00     0.048 A 
BRANCH  20  24
HETATM   24  O   UNL     1      44.508 -20.712   4.975  1.00  0.00    -0.357 OA
HETATM   25  H   UNL     1      43.833 -20.620   5.672  1.00  0.00     0.218 HD
ENDBRANCH  20  24
BRANCH  22  26
HETATM   26  O   UNL     1      44.169 -18.004   5.723  1.00  0.00    -0.353 OA
HETATM   27  C   UNL     1      43.752 -16.646   5.900  1.00  0.00     0.210 C 
ENDBRANCH  22  26
ENDBRANCH  16  17
ENDBRANCH   1  16
TORSDOF 4
ENDMDL
MODEL 8
REMARK VINA RESULT:      -7.1      3.050      4.409
REMARK  4 active torsions:
REMARK  status: ('A' for Active; 'I' for Inactive)
REMARK    1  A    between atoms: O_2  and  C_3 
REMARK    2  A    between atoms: C_4  and  O_5 
REMARK    3  A    between atoms: C_9  and  C_10 
REMARK    4  A    between atoms: C_10  and  N_11 
ROOT
HETATM    1  N   UNL     1      40.694 -16.301   0.770  1.00  0.00    -0.066 N 
HETATM    2  H   UNL     1      40.414 -16.364  -0.222  1.00  0.00     0.280 HD
HETATM    3  C   UNL     1      39.643 -15.438   1.446  1.00  0.00     0.246 C 
HETATM    4  C   UNL     1      39.694 -13.988   0.921  1.00  0.00     0.062 C 
HETATM    5  C   UNL     1      41.076 -13.404   1.189  1.00  0.00     0.020 C 
HETATM    6  C   UNL     1      42.087 -14.215   0.390  1.00  0.00     0.031 C 
HETATM    7  C   UNL     1      41.804 -14.046  -1.102  1.00  0.00     0.138 C 
HETATM    8  N   UNL     1      40.396 -14.120  -1.490  1.00  0.00    -0.317 N 
HETATM    9  C   UNL     1      39.365 -13.942  -0.562  1.00  0.00     0.020 A 
HETATM   10  C   UNL     1      38.105 -13.752  -0.991  1.00  0.00     0.026 A 
HETATM   11  C   UNL     1      40.163 -14.108  -2.877  1.00  0.00     0.247 A 
HETATM   12  O   UNL     1      41.046 -14.258  -3.715  1.00  0.00    -0.268 OA
HETATM   13  C   UNL     1      38.761 -13.905  -3.309  1.00  0.00     0.074 A 
HETATM   14  C   UNL     1      37.800 -13.729  -2.398  1.00  0.00     0.007 A 
HETATM   15  C   UNL     1      42.077 -15.684   0.816  1.00  0.00     0.241 C 
ENDROOT
BRANCH   1  16
HETATM   16  C   UNL     1      40.760 -17.726   1.289  1.00  0.00     0.273 C 
BRANCH  16  17
HETATM   17  C   UNL     1      41.784 -18.010   2.354  1.00  0.00    -0.028 A 
HETATM   18  C   UNL     1      41.720 -17.334   3.585  1.00  0.00     0.031 A 
HETATM   19  C   UNL     1      42.713 -17.512   4.553  1.00  0.00     0.047 A 
HETATM   20  C   UNL     1      43.789 -18.360   4.299  1.00  0.00     0.116 A 
HETATM   21 BR   UNL     1      42.575 -16.530   6.168  1.00  0.00    -0.048 Br
HETATM   22  C   UNL     1      43.831 -19.083   3.106  1.00  0.00     0.103 A 
HETATM   23  C   UNL     1      42.843 -18.901   2.130  1.00  0.00     0.048 A 
BRANCH  20  24
HETATM   24  O   UNL     1      44.817 -18.437   5.195  1.00  0.00    -0.357 OA
HETATM   25  H   UNL     1      45.280 -19.280   5.037  1.00  0.00     0.218 HD
ENDBRANCH  20  24
BRANCH  22  26
HETATM   26  O   UNL     1      44.868 -19.919   2.786  1.00  0.00    -0.353 OA
HETATM   27  C   UNL     1      44.426 -21.231   2.420  1.00  0.00     0.210 C 
ENDBRANCH  22  26
ENDBRANCH  16  17
ENDBRANCH   1  16
TORSDOF 4
ENDMDL
MODEL 9
REMARK VINA RESULT:      -7.1      3.965      6.699
REMARK  4 active torsions:
REMARK  status: ('A' for Active; 'I' for Inactive)
REMARK    1  A    between atoms: O_2  and  C_3 
REMARK    2  A    between atoms: C_4  and  O_5 
REMARK    3  A    between atoms: C_9  and  C_10 
REMARK    4  A    between atoms: C_10  and  N_11 
ROOT
HETATM    1  N   UNL     1      41.218 -14.614   2.252  1.00  0.00    -0.066 N 
HETATM    2  H   UNL     1      40.864 -15.441   2.758  1.00  0.00     0.280 HD
HETATM    3  C   UNL     1      42.635 -14.960   1.828  1.00  0.00     0.246 C 
HETATM    4  C   UNL     1      43.560 -15.110   3.053  1.00  0.00     0.062 C 
HETATM    5  C   UNL     1      43.573 -13.803   3.838  1.00  0.00     0.020 C 
HETATM    6  C   UNL     1      42.163 -13.558   4.358  1.00  0.00     0.031 C 
HETATM    7  C   UNL     1      41.784 -14.669   5.334  1.00  0.00     0.138 C 
HETATM    8  N   UNL     1      42.142 -16.025   4.918  1.00  0.00    -0.317 N 
HETATM    9  C   UNL     1      43.105 -16.264   3.933  1.00  0.00     0.020 A 
HETATM   10  C   UNL     1      43.597 -17.503   3.765  1.00  0.00     0.026 A 
HETATM   11  C   UNL     1      41.661 -17.047   5.755  1.00  0.00     0.247 A 
HETATM   12  O   UNL     1      40.820 -16.870   6.630  1.00  0.00    -0.268 OA
HETATM   13  C   UNL     1      42.221 -18.401   5.533  1.00  0.00     0.074 A 
HETATM   14  C   UNL     1      43.147 -18.595   4.589  1.00  0.00     0.007 A 
HETATM   15  C   UNL     1      41.164 -13.437   3.206  1.00  0.00     0.241 C 
ENDROOT
BRANCH   1  16
HETATM   16  C   UNL     1      40.263 -14.372   1.098  1.00  0.00     0.273 C 
BRANCH  16  17
HETATM   17  C   UNL     1      40.880 -14.021  -0.228  1.00  0.00    -0.028 A 
HETATM   18  C   UNL     1      41.584 -12.813  -0.375  1.00  0.00     0.031 A 
HETATM   19  C   UNL     1      42.085 -12.422  -1.621  1.00  0.00     0.047 A 
HETATM   20  C   UNL     1      41.878 -13.229  -2.739  1.00  0.00     0.116 A 
HETATM   21 BR   UNL     1      42.985 -10.760  -1.743  1.00  0.00    -0.048 Br
HETATM   22  C   UNL     1      41.234 -14.459  -2.593  1.00  0.00     0.103 A 
HETATM   23  C   UNL     1      40.723 -14.849  -1.349  1.00  0.00     0.048 A 
BRANCH  20  24
HETATM   24  O   UNL     1      42.261 -12.786  -3.973  1.00  0.00    -0.357 OA
HETATM   25  H   UNL     1      42.815 -13.481  -4.373  1.00  0.00     0.218 HD
ENDBRANCH  20  24
BRANCH  22  26
HETATM   26  O   UNL     1      40.983 -15.291  -3.652  1.00  0.00    -0.353 OA
HETATM   27  C   UNL     1      39.584 -15.504  -3.866  1.00  0.00     0.210 C 
ENDBRANCH  22  26
ENDBRANCH  16  17
ENDBRANCH   1  16
TORSDOF 4
ENDMDL
MODEL 10
REMARK VINA RESULT:      -7.0      3.158      6.962
REMARK  4 active torsions:
REMARK  status: ('A' for Active; 'I' for Inactive)
REMARK    1  A    between atoms: O_2  and  C_3 
REMARK    2  A    between atoms: C_4  and  O_5 
REMARK    3  A    between atoms: C_9  and  C_10 
REMARK    4  A    between atoms: C_10  and  N_11 
ROOT
HETATM    1  N   UNL     1      42.306 -17.298   5.370  1.00  0.00    -0.066 N 
HETATM    2  H   UNL     1      42.138 -18.314   5.422  1.00  0.00     0.280 HD
HETATM    3  C   UNL     1      43.576 -17.126   4.555  1.00  0.00     0.246 C 
HETATM    4  C   UNL     1      44.798 -17.698   5.302  1.00  0.00     0.062 C 
HETATM    5  C   UNL     1      44.954 -16.979   6.638  1.00  0.00     0.020 C 
HETATM    6  C   UNL     1      43.721 -17.283   7.477  1.00  0.00     0.031 C 
HETATM    7  C   UNL     1      43.667 -18.780   7.773  1.00  0.00     0.138 C 
HETATM    8  N   UNL     1      43.968 -19.658   6.642  1.00  0.00    -0.317 N 
HETATM    9  C   UNL     1      44.647 -19.196   5.511  1.00  0.00     0.020 A 
HETATM   10  C   UNL     1      45.137 -20.076   4.620  1.00  0.00     0.026 A 
HETATM   11  C   UNL     1      43.775 -21.029   6.890  1.00  0.00     0.247 A 
HETATM   12  O   UNL     1      43.187 -21.465   7.874  1.00  0.00    -0.268 OA
HETATM   13  C   UNL     1      44.321 -21.966   5.881  1.00  0.00     0.074 A 
HETATM   14  C   UNL     1      44.974 -21.493   4.814  1.00  0.00     0.007 A 
HETATM   15  C   UNL     1      42.448 -16.785   6.789  1.00  0.00     0.241 C 
ENDROOT
BRANCH   1  16
HETATM   16  C   UNL     1      41.070 -16.688   4.735  1.00  0.00     0.273 C 
BRANCH  16  17
HETATM   17  C   UNL     1      41.271 -15.433   3.932  1.00  0.00    -0.028 A 
HETATM   18  C   UNL     1      41.269 -15.493   2.526  1.00  0.00     0.031 A 
HETATM   19  C   UNL     1      41.547 -14.357   1.760  1.00  0.00     0.047 A 
HETATM   20  C   UNL     1      41.842 -13.148   2.387  1.00  0.00     0.116 A 
HETATM   21 BR   UNL     1      41.568 -14.533  -0.126  1.00  0.00    -0.048 Br
HETATM   22  C   UNL     1      41.786 -13.062   3.780  1.00  0.00     0.103 A 
HETATM   23  C   UNL     1      41.517 -14.199   4.551  1.00  0.00     0.048 A 
BRANCH  20  24
HETATM   24  O   UNL     1      42.232 -12.074   1.639  1.00  0.00    -0.357 OA
HETATM   25  H   UNL     1      42.333 -11.318   2.246  1.00  0.00     0.218 HD
ENDBRANCH  20  24
BRANCH  22  26
HETATM   26  O   UNL     1      42.082 -11.910   4.460  1.00  0.00    -0.353 OA
HETATM   27  C   UNL     1      40.935 -11.335   5.095  1.00  0.00     0.210 C 
ENDBRANCH  22  26
ENDBRANCH  16  17
ENDBRANCH   1  16
TORSDOF 4
ENDMDL
