MODEL 1
REMARK VINA RESULT:      -9.2      0.000      0.000
REMARK  7 active torsions:
REMARK  status: ('A' for Active; 'I' for Inactive)
REMARK    1  A    between atoms: C_2  and  O_3 
REMARK    2  A    between atoms: O_3  and  C_4 
REMARK    3  A    between atoms: C_7  and  N_8 
REMARK    4  A    between atoms: C_9  and  C_11 
REMARK    5  A    between atoms: C_9  and  O_10 
REMARK       I    between atoms: C_11  and  N_12 
REMARK    6  A    between atoms: N_12  and  C_13 
REMARK    7  A    between atoms: C_13  and  C_14 
ROOT
HETATM    1  N   UNL     1      40.952 -15.279   3.469  1.00  0.00    -0.254 N 
HETATM    2  C   UNL     1      41.147 -16.055   2.228  1.00  0.00     0.256 C 
HETATM    3  C   UNL     1      40.704 -15.311   0.982  1.00  0.00     0.034 A 
HETATM    4  C   UNL     1      39.767 -14.293   1.125  1.00  0.00     0.048 A 
HETATM    5  N   UNL     1      39.332 -13.955   2.400  1.00  0.00    -0.308 N 
HETATM    6  C   UNL     1      39.878 -14.405   3.565  1.00  0.00     0.330 C 
HETATM    7  O   UNL     1      39.426 -13.951   4.617  1.00  0.00    -0.246 OA
HETATM    8  C   UNL     1      41.114 -15.656  -0.319  1.00  0.00     0.015 A 
HETATM    9  C   UNL     1      40.621 -14.966  -1.430  1.00  0.00     0.001 A 
HETATM   10  C   UNL     1      39.692 -13.944  -1.261  1.00  0.00     0.002 A 
HETATM   11  C   UNL     1      39.254 -13.611   0.019  1.00  0.00     0.030 A 
HETATM   12  H   UNL     1      38.619 -13.248   2.519  1.00  0.00     0.170 HD
ENDROOT
BRANCH   2  13
HETATM   13  C   UNL     1      42.626 -16.600   2.028  1.00  0.00     0.279 C 
HETATM   14  N   UNL     1      42.687 -17.965   1.791  1.00  0.00    -0.352 N 
HETATM   15  H   UNL     1      41.821 -18.410   1.499  1.00  0.00     0.162 HD
HETATM   16  O   UNL     1      43.638 -15.905   2.095  1.00  0.00    -0.268 OA
BRANCH  14  17
HETATM   17  C   UNL     1      43.939 -18.623   1.521  1.00  0.00     0.161 C 
BRANCH  17  18
HETATM   18  C   UNL     1      44.138 -19.786   2.455  1.00  0.00    -0.040 A 
HETATM   19  C   UNL     1      44.376 -19.573   3.822  1.00  0.00     0.012 A 
HETATM   20  C   UNL     1      44.584 -20.656   4.679  1.00  0.00     0.043 A 
HETATM   21  C   UNL     1      44.560 -21.949   4.169  1.00  0.00     0.116 A 
HETATM   22  F   UNL     1      44.760 -22.986   4.992  1.00  0.00    -0.206 F 
HETATM   23  C   UNL     1      44.338 -22.180   2.817  1.00  0.00     0.043 A 
HETATM   24  C   UNL     1      44.131 -21.101   1.957  1.00  0.00     0.012 A 
ENDBRANCH  17  18
ENDBRANCH  14  17
ENDBRANCH   2  13
BRANCH   2  25
HETATM   25  O   UNL     1      40.265 -17.192   2.321  1.00  0.00    -0.359 OA
HETATM   26  H   UNL     1      39.588 -16.910   2.957  1.00  0.00     0.213 HD
ENDBRANCH   2  25
BRANCH   1  27
HETATM   27  C   UNL     1      41.567 -15.738   4.677  1.00  0.00     0.043 A 
HETATM   28  C   UNL     1      42.595 -15.009   5.288  1.00  0.00     0.032 A 
HETATM   29  C   UNL     1      43.205 -15.471   6.462  1.00  0.00     0.039 A 
HETATM   30  C   UNL     1      42.809 -16.681   7.028  1.00  0.00     0.068 A 
HETATM   31  C   UNL     1      41.796 -17.418   6.413  1.00  0.00     0.039 A 
HETATM   32  C   UNL     1      41.189 -16.959   5.241  1.00  0.00     0.032 A 
BRANCH  30  33
HETATM   33  O   UNL     1      43.325 -17.253   8.156  1.00  0.00    -0.352 OA
BRANCH  33  34
HETATM   34  C   UNL     1      44.094 -18.442   7.987  1.00  0.00     0.171 C 
HETATM   35  C   UNL     1      45.274 -18.109   7.093  1.00  0.00     0.034 C 
ENDBRANCH  33  34
ENDBRANCH  30  33
ENDBRANCH   1  27
TORSDOF 7
ENDMDL
MODEL 2
REMARK VINA RESULT:      -9.0      2.336      4.843
REMARK  7 active torsions:
REMARK  status: ('A' for Active; 'I' for Inactive)
REMARK    1  A    between atoms: C_2  and  O_3 
REMARK    2  A    between atoms: O_3  and  C_4 
REMARK    3  A    between atoms: C_7  and  N_8 
REMARK    4  A    between atoms: C_9  and  C_11 
REMARK    5  A    between atoms: C_9  and  O_10 
REMARK       I    between atoms: C_11  and  N_12 
REMARK    6  A    between atoms: N_12  and  C_13 
REMARK    7  A    between atoms: C_13  and  C_14 
ROOT
HETATM    1  N   UNL     1      41.517 -14.788   3.805  1.00  0.00    -0.254 N 
HETATM    2  C   UNL     1      42.260 -13.766   4.570  1.00  0.00     0.256 C 
HETATM    3  C   UNL     1      41.355 -12.775   5.279  1.00  0.00     0.034 A 
HETATM    4  C   UNL     1      40.066 -12.598   4.787  1.00  0.00     0.048 A 
HETATM    5  N   UNL     1      39.640 -13.378   3.721  1.00  0.00    -0.308 N 
HETATM    6  C   UNL     1      40.308 -14.452   3.212  1.00  0.00     0.330 C 
HETATM    7  O   UNL     1      39.759 -15.089   2.312  1.00  0.00    -0.246 OA
HETATM    8  C   UNL     1      41.776 -11.959   6.344  1.00  0.00     0.015 A 
HETATM    9  C   UNL     1      40.908 -11.024   6.915  1.00  0.00     0.001 A 
HETATM   10  C   UNL     1      39.619 -10.871   6.412  1.00  0.00     0.002 A 
HETATM   11  C   UNL     1      39.198 -11.652   5.339  1.00  0.00     0.030 A 
HETATM   12  H   UNL     1      38.722 -13.232   3.322  1.00  0.00     0.170 HD
ENDROOT
BRANCH   2  13
HETATM   13  C   UNL     1      43.312 -14.362   5.600  1.00  0.00     0.279 C 
HETATM   14  N   UNL     1      42.775 -15.313   6.454  1.00  0.00    -0.352 N 
HETATM   15  H   UNL     1      41.889 -15.722   6.171  1.00  0.00     0.162 HD
HETATM   16  O   UNL     1      44.491 -14.016   5.668  1.00  0.00    -0.268 OA
BRANCH  14  17
HETATM   17  C   UNL     1      43.596 -16.009   7.411  1.00  0.00     0.161 C 
BRANCH  17  18
HETATM   18  C   UNL     1      43.921 -17.394   6.922  1.00  0.00    -0.040 A 
HETATM   19  C   UNL     1      44.930 -17.598   5.968  1.00  0.00     0.012 A 
HETATM   20  C   UNL     1      45.209 -18.884   5.500  1.00  0.00     0.043 A 
HETATM   21  C   UNL     1      44.477 -19.963   5.981  1.00  0.00     0.116 A 
HETATM   22  F   UNL     1      44.747 -21.195   5.532  1.00  0.00    -0.206 F 
HETATM   23  C   UNL     1      43.466 -19.781   6.917  1.00  0.00     0.043 A 
HETATM   24  C   UNL     1      43.183 -18.498   7.386  1.00  0.00     0.012 A 
ENDBRANCH  17  18
ENDBRANCH  14  17
ENDBRANCH   2  13
BRANCH   2  25
HETATM   25  O   UNL     1      42.984 -12.984   3.598  1.00  0.00    -0.359 OA
HETATM   26  H   UNL     1      42.338 -12.837   2.889  1.00  0.00     0.213 HD
ENDBRANCH   2  25
BRANCH   1  27
HETATM   27  C   UNL     1      42.221 -15.933   3.315  1.00  0.00     0.043 A 
HETATM   28  C   UNL     1      43.262 -15.801   2.385  1.00  0.00     0.032 A 
HETATM   29  C   UNL     1      43.937 -16.927   1.896  1.00  0.00     0.039 A 
HETATM   30  C   UNL     1      43.565 -18.203   2.313  1.00  0.00     0.068 A 
HETATM   31  C   UNL     1      42.519 -18.340   3.227  1.00  0.00     0.039 A 
HETATM   32  C   UNL     1      41.844 -17.218   3.713  1.00  0.00     0.032 A 
BRANCH  30  33
HETATM   33  O   UNL     1      44.126 -19.381   1.908  1.00  0.00    -0.352 OA
BRANCH  33  34
HETATM   34  C   UNL     1      43.361 -20.567   2.110  1.00  0.00     0.171 C 
HETATM   35  C   UNL     1      44.268 -21.755   1.848  1.00  0.00     0.034 C 
ENDBRANCH  33  34
ENDBRANCH  30  33
ENDBRANCH   1  27
TORSDOF 7
ENDMDL
MODEL 3
REMARK VINA RESULT:      -9.0      2.205      4.684
REMARK  7 active torsions:
REMARK  status: ('A' for Active; 'I' for Inactive)
REMARK    1  A    between atoms: C_2  and  O_3 
REMARK    2  A    between atoms: O_3  and  C_4 
REMARK    3  A    between atoms: C_7  and  N_8 
REMARK    4  A    between atoms: C_9  and  C_11 
REMARK    5  A    between atoms: C_9  and  O_10 
REMARK       I    between atoms: C_11  and  N_12 
REMARK    6  A    between atoms: N_12  and  C_13 
REMARK    7  A    between atoms: C_13  and  C_14 
ROOT
HETATM    1  N   UNL     1      41.388 -14.958   2.979  1.00  0.00    -0.254 N 
HETATM    2  C   UNL     1      42.082 -13.723   3.397  1.00  0.00     0.256 C 
HETATM    3  C   UNL     1      41.133 -12.632   3.859  1.00  0.00     0.034 A 
HETATM    4  C   UNL     1      39.818 -12.673   3.408  1.00  0.00     0.048 A 
HETATM    5  N   UNL     1      39.412 -13.739   2.616  1.00  0.00    -0.308 N 
HETATM    6  C   UNL     1      40.137 -14.870   2.383  1.00  0.00     0.330 C 
HETATM    7  O   UNL     1      39.604 -15.760   1.719  1.00  0.00    -0.246 OA
HETATM    8  C   UNL     1      41.533 -11.532   4.639  1.00  0.00     0.015 A 
HETATM    9  C   UNL     1      40.621 -10.529   4.981  1.00  0.00     0.001 A 
HETATM   10  C   UNL     1      39.307 -10.597   4.526  1.00  0.00     0.002 A 
HETATM   11  C   UNL     1      38.905 -11.666   3.728  1.00  0.00     0.030 A 
HETATM   12  H   UNL     1      38.472 -13.762   2.243  1.00  0.00     0.170 HD
ENDROOT
BRANCH   2  13
HETATM   13  C   UNL     1      43.210 -13.950   4.491  1.00  0.00     0.279 C 
HETATM   14  N   UNL     1      42.743 -14.543   5.655  1.00  0.00    -0.352 N 
HETATM   15  H   UNL     1      41.842 -15.008   5.592  1.00  0.00     0.162 HD
HETATM   16  O   UNL     1      44.388 -13.623   4.354  1.00  0.00    -0.268 OA
BRANCH  14  17
HETATM   17  C   UNL     1      43.636 -14.885   6.732  1.00  0.00     0.161 C 
BRANCH  17  18
HETATM   18  C   UNL     1      43.837 -16.375   6.800  1.00  0.00    -0.040 A 
HETATM   19  C   UNL     1      44.974 -16.971   6.231  1.00  0.00     0.012 A 
HETATM   20  C   UNL     1      45.141 -18.357   6.276  1.00  0.00     0.043 A 
HETATM   21  C   UNL     1      44.172 -19.145   6.884  1.00  0.00     0.116 A 
HETATM   22  F   UNL     1      44.335 -20.474   6.928  1.00  0.00    -0.206 F 
HETATM   23  C   UNL     1      43.034 -18.576   7.444  1.00  0.00     0.043 A 
HETATM   24  C   UNL     1      42.862 -17.192   7.399  1.00  0.00     0.012 A 
ENDBRANCH  17  18
ENDBRANCH  14  17
ENDBRANCH   2  13
BRANCH   2  25
HETATM   25  O   UNL     1      42.713 -13.196   2.212  1.00  0.00    -0.359 OA
HETATM   26  H   UNL     1      42.250 -13.640   1.484  1.00  0.00     0.213 HD
ENDBRANCH   2  25
BRANCH   1  27
HETATM   27  C   UNL     1      42.155 -16.149   2.780  1.00  0.00     0.043 A 
HETATM   28  C   UNL     1      41.993 -17.263   3.615  1.00  0.00     0.032 A 
HETATM   29  C   UNL     1      42.757 -18.422   3.425  1.00  0.00     0.039 A 
HETATM   30  C   UNL     1      43.711 -18.473   2.411  1.00  0.00     0.068 A 
HETATM   31  C   UNL     1      43.886 -17.361   1.587  1.00  0.00     0.039 A 
HETATM   32  C   UNL     1      43.126 -16.204   1.777  1.00  0.00     0.032 A 
BRANCH  30  33
HETATM   33  O   UNL     1      44.530 -19.529   2.126  1.00  0.00    -0.352 OA
BRANCH  33  34
HETATM   34  C   UNL     1      44.299 -20.740   2.842  1.00  0.00     0.171 C 
HETATM   35  C   UNL     1      44.040 -21.838   1.827  1.00  0.00     0.034 C 
ENDBRANCH  33  34
ENDBRANCH  30  33
ENDBRANCH   1  27
TORSDOF 7
ENDMDL
MODEL 4
REMARK VINA RESULT:      -8.7      3.053      6.760
REMARK  7 active torsions:
REMARK  status: ('A' for Active; 'I' for Inactive)
REMARK    1  A    between atoms: C_2  and  O_3 
REMARK    2  A    between atoms: O_3  and  C_4 
REMARK    3  A    between atoms: C_7  and  N_8 
REMARK    4  A    between atoms: C_9  and  C_11 
REMARK    5  A    between atoms: C_9  and  O_10 
REMARK       I    between atoms: C_11  and  N_12 
REMARK    6  A    between atoms: N_12  and  C_13 
REMARK    7  A    between atoms: C_13  and  C_14 
ROOT
HETATM    1  N   UNL     1      43.127 -16.937   4.509  1.00  0.00    -0.254 N 
HETATM    2  C   UNL     1      43.121 -17.425   3.116  1.00  0.00     0.256 C 
HETATM    3  C   UNL     1      43.512 -18.887   2.993  1.00  0.00     0.034 A 
HETATM    4  C   UNL     1      44.273 -19.449   4.014  1.00  0.00     0.048 A 
HETATM    5  N   UNL     1      44.581 -18.677   5.126  1.00  0.00    -0.308 N 
HETATM    6  C   UNL     1      44.047 -17.455   5.411  1.00  0.00     0.330 C 
HETATM    7  O   UNL     1      44.365 -16.931   6.479  1.00  0.00    -0.246 OA
HETATM    8  C   UNL     1      43.232 -19.676   1.863  1.00  0.00     0.015 A 
HETATM    9  C   UNL     1      43.673 -21.000   1.789  1.00  0.00     0.001 A 
HETATM   10  C   UNL     1      44.424 -21.544   2.827  1.00  0.00     0.002 A 
HETATM   11  C   UNL     1      44.735 -20.765   3.939  1.00  0.00     0.030 A 
HETATM   12  H   UNL     1      45.169 -19.055   5.856  1.00  0.00     0.170 HD
ENDROOT
BRANCH   2  13
HETATM   13  C   UNL     1      41.757 -17.170   2.344  1.00  0.00     0.279 C 
HETATM   14  N   UNL     1      41.903 -16.400   1.200  1.00  0.00    -0.352 N 
HETATM   15  H   UNL     1      42.846 -16.319   0.830  1.00  0.00     0.162 HD
HETATM   16  O   UNL     1      40.660 -17.585   2.714  1.00  0.00    -0.268 OA
BRANCH  14  17
HETATM   17  C   UNL     1      40.784 -16.121   0.337  1.00  0.00     0.161 C 
BRANCH  17  18
HETATM   18  C   UNL     1      41.190 -15.190  -0.774  1.00  0.00    -0.040 A 
HETATM   19  C   UNL     1      41.745 -13.933  -0.487  1.00  0.00     0.012 A 
HETATM   20  C   UNL     1      42.098 -13.065  -1.522  1.00  0.00     0.043 A 
HETATM   21  C   UNL     1      41.891 -13.451  -2.841  1.00  0.00     0.116 A 
HETATM   22  F   UNL     1      42.230 -12.617  -3.833  1.00  0.00    -0.206 F 
HETATM   23  C   UNL     1      41.333 -14.686  -3.146  1.00  0.00     0.043 A 
HETATM   24  C   UNL     1      40.978 -15.556  -2.115  1.00  0.00     0.012 A 
ENDBRANCH  17  18
ENDBRANCH  14  17
ENDBRANCH   2  13
BRANCH   2  25
HETATM   25  O   UNL     1      44.161 -16.699   2.431  1.00  0.00    -0.359 OA
HETATM   26  H   UNL     1      44.533 -17.350   1.814  1.00  0.00     0.213 HD
ENDBRANCH   2  25
BRANCH   1  27
HETATM   27  C   UNL     1      42.525 -15.672   4.803  1.00  0.00     0.043 A 
HETATM   28  C   UNL     1      43.144 -14.472   4.431  1.00  0.00     0.032 A 
HETATM   29  C   UNL     1      42.557 -13.236   4.735  1.00  0.00     0.039 A 
HETATM   30  C   UNL     1      41.354 -13.185   5.436  1.00  0.00     0.068 A 
HETATM   31  C   UNL     1      40.743 -14.378   5.821  1.00  0.00     0.039 A 
HETATM   32  C   UNL     1      41.328 -15.610   5.521  1.00  0.00     0.032 A 
BRANCH  30  33
HETATM   33  O   UNL     1      40.684 -12.054   5.807  1.00  0.00    -0.352 OA
BRANCH  33  34
HETATM   34  C   UNL     1      39.267 -12.057   5.644  1.00  0.00     0.171 C 
HETATM   35  C   UNL     1      38.960 -11.555   4.245  1.00  0.00     0.034 C 
ENDBRANCH  33  34
ENDBRANCH  30  33
ENDBRANCH   1  27
TORSDOF 7
ENDMDL
MODEL 5
REMARK VINA RESULT:      -8.5      1.922      2.885
REMARK  7 active torsions:
REMARK  status: ('A' for Active; 'I' for Inactive)
REMARK    1  A    between atoms: C_2  and  O_3 
REMARK    2  A    between atoms: O_3  and  C_4 
REMARK    3  A    between atoms: C_7  and  N_8 
REMARK    4  A    between atoms: C_9  and  C_11 
REMARK    5  A    between atoms: C_9  and  O_10 
REMARK       I    between atoms: C_11  and  N_12 
REMARK    6  A    between atoms: N_12  and  C_13 
REMARK    7  A    between atoms: C_13  and  C_14 
ROOT
HETATM    1  N   UNL     1      39.946 -13.522   2.664  1.00  0.00    -0.254 N 
HETATM    2  C   UNL     1      39.766 -14.413   1.500  1.00  0.00     0.256 C 
HETATM    3  C   UNL     1      39.031 -13.751   0.349  1.00  0.00     0.034 A 
HETATM    4  C   UNL     1      38.210 -12.665   0.635  1.00  0.00     0.048 A 
HETATM    5  N   UNL     1      38.151 -12.191   1.938  1.00  0.00    -0.308 N 
HETATM    6  C   UNL     1      38.975 -12.574   2.955  1.00  0.00     0.330 C 
HETATM    7  O   UNL     1      38.845 -12.002   4.038  1.00  0.00    -0.246 OA
HETATM    8  C   UNL     1      39.057 -14.232  -0.972  1.00  0.00     0.015 A 
HETATM    9  C   UNL     1      38.309 -13.610  -1.975  1.00  0.00     0.001 A 
HETATM   10  C   UNL     1      37.502 -12.518  -1.667  1.00  0.00     0.002 A 
HETATM   11  C   UNL     1      37.443 -12.049  -0.357  1.00  0.00     0.030 A 
HETATM   12  H   UNL     1      37.526 -11.431   2.172  1.00  0.00     0.170 HD
ENDROOT
BRANCH   2  13
HETATM   13  C   UNL     1      41.111 -15.069   0.969  1.00  0.00     0.279 C 
HETATM   14  N   UNL     1      41.210 -16.426   1.235  1.00  0.00    -0.352 N 
HETATM   15  H   UNL     1      40.344 -16.901   1.473  1.00  0.00     0.162 HD
HETATM   16  O   UNL     1      42.006 -14.452   0.393  1.00  0.00    -0.268 OA
BRANCH  14  17
HETATM   17  C   UNL     1      42.331 -17.201   0.771  1.00  0.00     0.161 C 
BRANCH  17  18
HETATM   18  C   UNL     1      43.015 -17.887   1.922  1.00  0.00    -0.040 A 
HETATM   19  C   UNL     1      43.494 -19.200   1.792  1.00  0.00     0.012 A 
HETATM   20  C   UNL     1      44.106 -19.838   2.873  1.00  0.00     0.043 A 
HETATM   21  C   UNL     1      44.233 -19.167   4.083  1.00  0.00     0.116 A 
HETATM   22  F   UNL     1      44.820 -19.781   5.118  1.00  0.00    -0.206 F 
HETATM   23  C   UNL     1      43.756 -17.871   4.237  1.00  0.00     0.043 A 
HETATM   24  C   UNL     1      43.142 -17.231   3.160  1.00  0.00     0.012 A 
ENDBRANCH  17  18
ENDBRANCH  14  17
ENDBRANCH   2  13
BRANCH   2  25
HETATM   25  O   UNL     1      38.897 -15.477   1.939  1.00  0.00    -0.359 OA
HETATM   26  H   UNL     1      39.262 -16.268   1.510  1.00  0.00     0.213 HD
ENDBRANCH   2  25
BRANCH   1  27
HETATM   27  C   UNL     1      40.848 -13.915   3.703  1.00  0.00     0.043 A 
HETATM   28  C   UNL     1      40.462 -14.835   4.687  1.00  0.00     0.032 A 
HETATM   29  C   UNL     1      41.343 -15.204   5.712  1.00  0.00     0.039 A 
HETATM   30  C   UNL     1      42.615 -14.639   5.780  1.00  0.00     0.068 A 
HETATM   31  C   UNL     1      42.997 -13.711   4.811  1.00  0.00     0.039 A 
HETATM   32  C   UNL     1      42.118 -13.341   3.790  1.00  0.00     0.032 A 
BRANCH  30  33
HETATM   33  O   UNL     1      43.564 -14.898   6.728  1.00  0.00    -0.352 OA
BRANCH  33  34
HETATM   34  C   UNL     1      44.764 -14.131   6.670  1.00  0.00     0.171 C 
HETATM   35  C   UNL     1      44.869 -13.332   7.956  1.00  0.00     0.034 C 
ENDBRANCH  33  34
ENDBRANCH  30  33
ENDBRANCH   1  27
TORSDOF 7
ENDMDL
MODEL 6
REMARK VINA RESULT:      -8.5      4.784      7.791
REMARK  7 active torsions:
REMARK  status: ('A' for Active; 'I' for Inactive)
REMARK    1  A    between atoms: C_2  and  O_3 
REMARK    2  A    between atoms: O_3  and  C_4 
REMARK    3  A    between atoms: C_7  and  N_8 
REMARK    4  A    between atoms: C_9  and  C_11 
REMARK    5  A    between atoms: C_9  and  O_10 
REMARK       I    between atoms: C_11  and  N_12 
REMARK    6  A    between atoms: N_12  and  C_13 
REMARK    7  A    between atoms: C_13  and  C_14 
ROOT
HETATM    1  N   UNL     1      41.254 -14.038   4.726  1.00  0.00    -0.254 N 
HETATM    2  C   UNL     1      42.242 -14.903   5.402  1.00  0.00     0.256 C 
HETATM    3  C   UNL     1      42.582 -16.153   4.612  1.00  0.00     0.034 A 
HETATM    4  C   UNL     1      41.657 -16.608   3.678  1.00  0.00     0.048 A 
HETATM    5  N   UNL     1      40.504 -15.868   3.457  1.00  0.00    -0.308 N 
HETATM    6  C   UNL     1      40.266 -14.616   3.941  1.00  0.00     0.330 C 
HETATM    7  O   UNL     1      39.224 -14.060   3.591  1.00  0.00    -0.246 OA
HETATM    8  C   UNL     1      43.732 -16.930   4.840  1.00  0.00     0.015 A 
HETATM    9  C   UNL     1      43.955 -18.105   4.117  1.00  0.00     0.001 A 
HETATM   10  C   UNL     1      43.021 -18.536   3.179  1.00  0.00     0.002 A 
HETATM   11  C   UNL     1      41.863 -17.792   2.965  1.00  0.00     0.030 A 
HETATM   12  H   UNL     1      39.801 -16.207   2.814  1.00  0.00     0.170 HD
ENDROOT
BRANCH   2  13
HETATM   13  C   UNL     1      43.579 -14.156   5.823  1.00  0.00     0.279 C 
HETATM   14  N   UNL     1      43.756 -14.064   7.195  1.00  0.00    -0.352 N 
HETATM   15  H   UNL     1      43.196 -14.694   7.763  1.00  0.00     0.162 HD
HETATM   16  O   UNL     1      44.387 -13.676   5.029  1.00  0.00    -0.268 OA
BRANCH  14  17
HETATM   17  C   UNL     1      44.944 -13.477   7.760  1.00  0.00     0.161 C 
BRANCH  17  18
HETATM   18  C   UNL     1      44.585 -12.366   8.710  1.00  0.00    -0.040 A 
HETATM   19  C   UNL     1      45.409 -12.069   9.807  1.00  0.00     0.012 A 
HETATM   20  C   UNL     1      45.057 -11.053  10.698  1.00  0.00     0.043 A 
HETATM   21  C   UNL     1      43.882 -10.339  10.495  1.00  0.00     0.116 A 
HETATM   22  F   UNL     1      43.547  -9.365  11.351  1.00  0.00    -0.206 F 
HETATM   23  C   UNL     1      43.047 -10.626   9.422  1.00  0.00     0.043 A 
HETATM   24  C   UNL     1      43.394 -11.641   8.530  1.00  0.00     0.012 A 
ENDBRANCH  17  18
ENDBRANCH  14  17
ENDBRANCH   2  13
BRANCH   2  25
HETATM   25  O   UNL     1      41.604 -15.379   6.604  1.00  0.00    -0.359 OA
HETATM   26  H   UNL     1      41.210 -14.580   6.991  1.00  0.00     0.213 HD
ENDBRANCH   2  25
BRANCH   1  27
HETATM   27  C   UNL     1      41.045 -12.710   5.217  1.00  0.00     0.043 A 
HETATM   28  C   UNL     1      40.293 -12.477   6.376  1.00  0.00     0.032 A 
HETATM   29  C   UNL     1      40.078 -11.173   6.843  1.00  0.00     0.039 A 
HETATM   30  C   UNL     1      40.593 -10.084   6.143  1.00  0.00     0.068 A 
HETATM   31  C   UNL     1      41.329 -10.312   4.980  1.00  0.00     0.039 A 
HETATM   32  C   UNL     1      41.542 -11.611   4.512  1.00  0.00     0.032 A 
BRANCH  30  33
HETATM   33  O   UNL     1      40.448  -8.767   6.477  1.00  0.00    -0.352 OA
BRANCH  33  34
HETATM   34  C   UNL     1      39.635  -8.473   7.611  1.00  0.00     0.171 C 
HETATM   35  C   UNL     1      40.545  -7.961   8.714  1.00  0.00     0.034 C 
ENDBRANCH  33  34
ENDBRANCH  30  33
ENDBRANCH   1  27
TORSDOF 7
ENDMDL
MODEL 7
REMARK VINA RESULT:      -8.4      3.180      6.836
REMARK  7 active torsions:
REMARK  status: ('A' for Active; 'I' for Inactive)
REMARK    1  A    between atoms: C_2  and  O_3 
REMARK    2  A    between atoms: O_3  and  C_4 
REMARK    3  A    between atoms: C_7  and  N_8 
REMARK    4  A    between atoms: C_9  and  C_11 
REMARK    5  A    between atoms: C_9  and  O_10 
REMARK       I    between atoms: C_11  and  N_12 
REMARK    6  A    between atoms: N_12  and  C_13 
REMARK    7  A    between atoms: C_13  and  C_14 
ROOT
HETATM    1  N   UNL     1      43.019 -16.747   4.583  1.00  0.00    -0.254 N 
HETATM    2  C   UNL     1      43.070 -17.183   3.173  1.00  0.00     0.256 C 
HETATM    3  C   UNL     1      43.452 -18.643   3.013  1.00  0.00     0.034 A 
HETATM    4  C   UNL     1      44.162 -19.251   4.044  1.00  0.00     0.048 A 
HETATM    5  N   UNL     1      44.427 -18.524   5.197  1.00  0.00    -0.308 N 
HETATM    6  C   UNL     1      43.893 -17.308   5.504  1.00  0.00     0.330 C 
HETATM    7  O   UNL     1      44.169 -16.827   6.604  1.00  0.00    -0.246 OA
HETATM    8  C   UNL     1      43.215 -19.387   1.844  1.00  0.00     0.015 A 
HETATM    9  C   UNL     1      43.647 -20.712   1.739  1.00  0.00     0.001 A 
HETATM   10  C   UNL     1      44.346 -21.302   2.788  1.00  0.00     0.002 A 
HETATM   11  C   UNL     1      44.614 -20.568   3.941  1.00  0.00     0.030 A 
HETATM   12  H   UNL     1      44.979 -18.936   5.938  1.00  0.00     0.170 HD
ENDROOT
BRANCH   2  13
HETATM   13  C   UNL     1      41.743 -16.884   2.352  1.00  0.00     0.279 C 
HETATM   14  N   UNL     1      41.916 -15.951   1.341  1.00  0.00    -0.352 N 
HETATM   15  H   UNL     1      42.873 -15.773   1.052  1.00  0.00     0.162 HD
HETATM   16  O   UNL     1      40.651 -17.400   2.584  1.00  0.00    -0.268 OA
BRANCH  14  17
HETATM   17  C   UNL     1      40.838 -15.604   0.451  1.00  0.00     0.161 C 
BRANCH  17  18
HETATM   18  C   UNL     1      40.049 -14.447   1.000  1.00  0.00    -0.040 A 
HETATM   19  C   UNL     1      38.653 -14.400   0.860  1.00  0.00     0.012 A 
HETATM   20  C   UNL     1      37.930 -13.311   1.350  1.00  0.00     0.043 A 
HETATM   21  C   UNL     1      38.603 -12.267   1.975  1.00  0.00     0.116 A 
HETATM   22  F   UNL     1      37.907 -11.224   2.445  1.00  0.00    -0.206 F 
HETATM   23  C   UNL     1      39.985 -12.288   2.114  1.00  0.00     0.043 A 
HETATM   24  C   UNL     1      40.711 -13.374   1.623  1.00  0.00     0.012 A 
ENDBRANCH  17  18
ENDBRANCH  14  17
ENDBRANCH   2  13
BRANCH   2  25
HETATM   25  O   UNL     1      44.146 -16.443   2.562  1.00  0.00    -0.359 OA
HETATM   26  H   UNL     1      44.932 -16.718   3.061  1.00  0.00     0.213 HD
ENDBRANCH   2  25
BRANCH   1  27
HETATM   27  C   UNL     1      42.416 -15.487   4.897  1.00  0.00     0.043 A 
HETATM   28  C   UNL     1      41.143 -15.419   5.480  1.00  0.00     0.032 A 
HETATM   29  C   UNL     1      40.550 -14.183   5.770  1.00  0.00     0.039 A 
HETATM   30  C   UNL     1      41.214 -12.998   5.460  1.00  0.00     0.068 A 
HETATM   31  C   UNL     1      42.475 -13.062   4.866  1.00  0.00     0.039 A 
HETATM   32  C   UNL     1      43.065 -14.294   4.574  1.00  0.00     0.032 A 
BRANCH  30  33
HETATM   33  O   UNL     1      40.749 -11.731   5.676  1.00  0.00    -0.352 OA
BRANCH  33  34
HETATM   34  C   UNL     1      40.442 -11.374   7.022  1.00  0.00     0.171 C 
HETATM   35  C   UNL     1      41.717 -10.864   7.669  1.00  0.00     0.034 C 
ENDBRANCH  33  34
ENDBRANCH  30  33
ENDBRANCH   1  27
TORSDOF 7
ENDMDL
MODEL 8
REMARK VINA RESULT:      -8.3      2.185      4.636
REMARK  7 active torsions:
REMARK  status: ('A' for Active; 'I' for Inactive)
REMARK    1  A    between atoms: C_2  and  O_3 
REMARK    2  A    between atoms: O_3  and  C_4 
REMARK    3  A    between atoms: C_7  and  N_8 
REMARK    4  A    between atoms: C_9  and  C_11 
REMARK    5  A    between atoms: C_9  and  O_10 
REMARK       I    between atoms: C_11  and  N_12 
REMARK    6  A    between atoms: N_12  and  C_13 
REMARK    7  A    between atoms: C_13  and  C_14 
ROOT
HETATM    1  N   UNL     1      41.578 -14.722   1.434  1.00  0.00    -0.254 N 
HETATM    2  C   UNL     1      41.729 -13.739   2.525  1.00  0.00     0.256 C 
HETATM    3  C   UNL     1      40.792 -12.553   2.394  1.00  0.00     0.034 A 
HETATM    4  C   UNL     1      40.295 -12.247   1.132  1.00  0.00     0.048 A 
HETATM    5  N   UNL     1      40.617 -13.073   0.064  1.00  0.00    -0.308 N 
HETATM    6  C   UNL     1      41.236 -14.284   0.162  1.00  0.00     0.330 C 
HETATM    7  O   UNL     1      41.383 -14.932  -0.875  1.00  0.00    -0.246 OA
HETATM    8  C   UNL     1      40.474 -11.690   3.459  1.00  0.00     0.015 A 
HETATM    9  C   UNL     1      39.650 -10.579   3.257  1.00  0.00     0.001 A 
HETATM   10  C   UNL     1      39.156 -10.299   1.987  1.00  0.00     0.002 A 
HETATM   11  C   UNL     1      39.486 -11.128   0.917  1.00  0.00     0.030 A 
HETATM   12  H   UNL     1      40.301 -12.841  -0.868  1.00  0.00     0.170 HD
ENDROOT
BRANCH   2  13
HETATM   13  C   UNL     1      41.608 -14.360   3.981  1.00  0.00     0.279 C 
HETATM   14  N   UNL     1      42.831 -14.568   4.600  1.00  0.00    -0.352 N 
HETATM   15  H   UNL     1      43.624 -14.070   4.206  1.00  0.00     0.162 HD
HETATM   16  O   UNL     1      40.545 -14.657   4.524  1.00  0.00    -0.268 OA
BRANCH  14  17
HETATM   17  C   UNL     1      42.914 -15.064   5.950  1.00  0.00     0.161 C 
BRANCH  17  18
HETATM   18  C   UNL     1      43.406 -16.486   5.963  1.00  0.00    -0.040 A 
HETATM   19  C   UNL     1      42.620 -17.520   5.430  1.00  0.00     0.012 A 
HETATM   20  C   UNL     1      43.073 -18.841   5.467  1.00  0.00     0.043 A 
HETATM   21  C   UNL     1      44.306 -19.127   6.041  1.00  0.00     0.116 A 
HETATM   22  F   UNL     1      44.738 -20.394   6.076  1.00  0.00    -0.206 F 
HETATM   23  C   UNL     1      45.094 -18.119   6.584  1.00  0.00     0.043 A 
HETATM   24  C   UNL     1      44.644 -16.799   6.550  1.00  0.00     0.012 A 
ENDBRANCH  17  18
ENDBRANCH  14  17
ENDBRANCH   2  13
BRANCH   2  25
HETATM   25  O   UNL     1      43.055 -13.187   2.388  1.00  0.00    -0.359 OA
HETATM   26  H   UNL     1      42.899 -12.278   2.085  1.00  0.00     0.213 HD
ENDBRANCH   2  25
BRANCH   1  27
HETATM   27  C   UNL     1      42.195 -16.006   1.568  1.00  0.00     0.043 A 
HETATM   28  C   UNL     1      41.430 -17.157   1.797  1.00  0.00     0.032 A 
HETATM   29  C   UNL     1      42.040 -18.410   1.944  1.00  0.00     0.039 A 
HETATM   30  C   UNL     1      43.428 -18.524   1.887  1.00  0.00     0.068 A 
HETATM   31  C   UNL     1      44.194 -17.378   1.674  1.00  0.00     0.039 A 
HETATM   32  C   UNL     1      43.587 -16.128   1.530  1.00  0.00     0.032 A 
BRANCH  30  33
HETATM   33  O   UNL     1      44.150 -19.676   2.026  1.00  0.00    -0.352 OA
BRANCH  33  34
HETATM   34  C   UNL     1      43.475 -20.901   1.750  1.00  0.00     0.171 C 
HETATM   35  C   UNL     1      44.459 -22.035   1.978  1.00  0.00     0.034 C 
ENDBRANCH  33  34
ENDBRANCH  30  33
ENDBRANCH   1  27
TORSDOF 7
ENDMDL
MODEL 9
REMARK VINA RESULT:      -8.3      1.726      5.854
REMARK  7 active torsions:
REMARK  status: ('A' for Active; 'I' for Inactive)
REMARK    1  A    between atoms: C_2  and  O_3 
REMARK    2  A    between atoms: O_3  and  C_4 
REMARK    3  A    between atoms: C_7  and  N_8 
REMARK    4  A    between atoms: C_9  and  C_11 
REMARK    5  A    between atoms: C_9  and  O_10 
REMARK       I    between atoms: C_11  and  N_12 
REMARK    6  A    between atoms: N_12  and  C_13 
REMARK    7  A    between atoms: C_13  and  C_14 
ROOT
HETATM    1  N   UNL     1      41.446 -15.169   4.296  1.00  0.00    -0.254 N 
HETATM    2  C   UNL     1      42.851 -15.622   4.284  1.00  0.00     0.256 C 
HETATM    3  C   UNL     1      43.235 -16.410   5.522  1.00  0.00     0.034 A 
HETATM    4  C   UNL     1      42.489 -16.216   6.680  1.00  0.00     0.048 A 
HETATM    5  N   UNL     1      41.389 -15.371   6.636  1.00  0.00    -0.308 N 
HETATM    6  C   UNL     1      40.844 -14.841   5.504  1.00  0.00     0.330 C 
HETATM    7  O   UNL     1      39.820 -14.169   5.626  1.00  0.00    -0.246 OA
HETATM    8  C   UNL     1      44.361 -17.251   5.592  1.00  0.00     0.015 A 
HETATM    9  C   UNL     1      44.693 -17.903   6.783  1.00  0.00     0.001 A 
HETATM   10  C   UNL     1      43.925 -17.701   7.926  1.00  0.00     0.002 A 
HETATM   11  C   UNL     1      42.824 -16.848   7.879  1.00  0.00     0.030 A 
HETATM   12  H   UNL     1      40.861 -15.184   7.479  1.00  0.00     0.170 HD
ENDROOT
BRANCH   2  13
HETATM   13  C   UNL     1      43.259 -16.436   2.983  1.00  0.00     0.279 C 
HETATM   14  N   UNL     1      42.690 -17.699   2.917  1.00  0.00    -0.352 N 
HETATM   15  H   UNL     1      41.891 -17.864   3.522  1.00  0.00     0.162 HD
HETATM   16  O   UNL     1      44.022 -16.020   2.112  1.00  0.00    -0.268 OA
BRANCH  14  17
HETATM   17  C   UNL     1      42.895 -18.555   1.777  1.00  0.00     0.161 C 
BRANCH  17  18
HETATM   18  C   UNL     1      43.517 -19.859   2.199  1.00  0.00    -0.040 A 
HETATM   19  C   UNL     1      43.376 -21.009   1.406  1.00  0.00     0.012 A 
HETATM   20  C   UNL     1      43.935 -22.221   1.816  1.00  0.00     0.043 A 
HETATM   21  C   UNL     1      44.628 -22.285   3.019  1.00  0.00     0.116 A 
HETATM   22  F   UNL     1      45.163 -23.449   3.410  1.00  0.00    -0.206 F 
HETATM   23  C   UNL     1      44.769 -21.161   3.824  1.00  0.00     0.043 A 
HETATM   24  C   UNL     1      44.211 -19.948   3.419  1.00  0.00     0.012 A 
ENDBRANCH  17  18
ENDBRANCH  14  17
ENDBRANCH   2  13
BRANCH   2  25
HETATM   25  O   UNL     1      43.659 -14.429   4.331  1.00  0.00    -0.359 OA
HETATM   26  H   UNL     1      44.536 -14.751   4.596  1.00  0.00     0.213 HD
ENDBRANCH   2  25
BRANCH   1  27
HETATM   27  C   UNL     1      40.872 -14.656   3.089  1.00  0.00     0.043 A 
HETATM   28  C   UNL     1      39.931 -15.397   2.363  1.00  0.00     0.032 A 
HETATM   29  C   UNL     1      39.385 -14.897   1.173  1.00  0.00     0.039 A 
HETATM   30  C   UNL     1      39.791 -13.658   0.682  1.00  0.00     0.068 A 
HETATM   31  C   UNL     1      40.740 -12.924   1.395  1.00  0.00     0.039 A 
HETATM   32  C   UNL     1      41.286 -13.422   2.580  1.00  0.00     0.032 A 
BRANCH  30  33
HETATM   33  O   UNL     1      39.352 -13.061  -0.466  1.00  0.00    -0.352 OA
BRANCH  33  34
HETATM   34  C   UNL     1      37.981 -13.248  -0.810  1.00  0.00     0.171 C 
HETATM   35  C   UNL     1      37.165 -12.228  -0.037  1.00  0.00     0.034 C 
ENDBRANCH  33  34
ENDBRANCH  30  33
ENDBRANCH   1  27
TORSDOF 7
ENDMDL
MODEL 10
REMARK VINA RESULT:      -8.1      3.348      6.170
REMARK  7 active torsions:
REMARK  status: ('A' for Active; 'I' for Inactive)
REMARK    1  A    between atoms: C_2  and  O_3 
REMARK    2  A    between atoms: O_3  and  C_4 
REMARK    3  A    between atoms: C_7  and  N_8 
REMARK    4  A    between atoms: C_9  and  C_11 
REMARK    5  A    between atoms: C_9  and  O_10 
REMARK       I    between atoms: C_11  and  N_12 
REMARK    6  A    between atoms: N_12  and  C_13 
REMARK    7  A    between atoms: C_13  and  C_14 
ROOT
HETATM    1  N   UNL     1      42.316 -15.281   4.047  1.00  0.00    -0.254 N 
HETATM    2  C   UNL     1      40.973 -14.995   3.504  1.00  0.00     0.256 C 
HETATM    3  C   UNL     1      40.709 -13.513   3.313  1.00  0.00     0.034 A 
HETATM    4  C   UNL     1      41.453 -12.613   4.069  1.00  0.00     0.048 A 
HETATM    5  N   UNL     1      42.446 -13.099   4.908  1.00  0.00    -0.308 N 
HETATM    6  C   UNL     1      42.901 -14.385   4.931  1.00  0.00     0.330 C 
HETATM    7  O   UNL     1      43.843 -14.641   5.681  1.00  0.00    -0.246 OA
HETATM    8  C   UNL     1      39.691 -13.003   2.487  1.00  0.00     0.015 A 
HETATM    9  C   UNL     1      39.463 -11.627   2.402  1.00  0.00     0.001 A 
HETATM   10  C   UNL     1      40.227 -10.744   3.160  1.00  0.00     0.002 A 
HETATM   11  C   UNL     1      41.219 -11.237   4.005  1.00  0.00     0.030 A 
HETATM   12  H   UNL     1      42.967 -12.463   5.497  1.00  0.00     0.170 HD
ENDROOT
BRANCH   2  13
HETATM   13  C   UNL     1      40.634 -15.776   2.163  1.00  0.00     0.279 C 
HETATM   14  N   UNL     1      41.414 -15.390   1.084  1.00  0.00    -0.352 N 
HETATM   15  H   UNL     1      42.267 -14.883   1.304  1.00  0.00     0.162 HD
HETATM   16  O   UNL     1      39.755 -16.631   2.059  1.00  0.00    -0.268 OA
BRANCH  14  17
HETATM   17  C   UNL     1      41.292 -16.036  -0.198  1.00  0.00     0.161 C 
BRANCH  17  18
HETATM   18  C   UNL     1      40.974 -15.030  -1.270  1.00  0.00    -0.040 A 
HETATM   19  C   UNL     1      40.904 -15.418  -2.617  1.00  0.00     0.012 A 
HETATM   20  C   UNL     1      40.632 -14.474  -3.610  1.00  0.00     0.043 A 
HETATM   21  C   UNL     1      40.437 -13.144  -3.256  1.00  0.00     0.116 A 
HETATM   22  F   UNL     1      40.176 -12.240  -4.210  1.00  0.00    -0.206 F 
HETATM   23  C   UNL     1      40.513 -12.737  -1.930  1.00  0.00     0.043 A 
HETATM   24  C   UNL     1      40.786 -13.677  -0.935  1.00  0.00     0.012 A 
ENDBRANCH  17  18
ENDBRANCH  14  17
ENDBRANCH   2  13
BRANCH   2  25
HETATM   25  O   UNL     1      40.033 -15.417   4.513  1.00  0.00    -0.359 OA
HETATM   26  H   UNL     1      39.601 -16.193   4.119  1.00  0.00     0.213 HD
ENDBRANCH   2  25
BRANCH   1  27
HETATM   27  C   UNL     1      42.800 -16.628   4.025  1.00  0.00     0.043 A 
HETATM   28  C   UNL     1      42.483 -17.528   5.051  1.00  0.00     0.032 A 
HETATM   29  C   UNL     1      42.973 -18.841   5.033  1.00  0.00     0.039 A 
HETATM   30  C   UNL     1      43.805 -19.264   3.998  1.00  0.00     0.068 A 
HETATM   31  C   UNL     1      44.134 -18.366   2.982  1.00  0.00     0.039 A 
HETATM   32  C   UNL     1      43.649 -17.056   3.001  1.00  0.00     0.032 A 
BRANCH  30  33
HETATM   33  O   UNL     1      44.360 -20.506   3.864  1.00  0.00    -0.352 OA
BRANCH  33  34
HETATM   34  C   UNL     1      44.901 -20.839   2.588  1.00  0.00     0.171 C 
HETATM   35  C   UNL     1      43.942 -21.804   1.914  1.00  0.00     0.034 C 
ENDBRANCH  33  34
ENDBRANCH  30  33
ENDBRANCH   1  27
TORSDOF 7
ENDMDL
