MODEL 1
REMARK VINA RESULT:      -8.6      0.000      0.000
REMARK  4 active torsions:
REMARK  status: ('A' for Active; 'I' for Inactive)
REMARK    1  A    between atoms: C_5  and  C_6 
REMARK    2  A    between atoms: C_16  and  C_17 
REMARK       I    between atoms: C_17  and  N_18 
REMARK    3  A    between atoms: N_18  and  C_19 
REMARK    4  A    between atoms: C_20  and  O_21 
ROOT
HETATM    1  C   UNL     1      41.083 -15.050   4.102  1.00  0.00     0.202 C 
HETATM    2  N   UNL     1      40.802 -13.817   4.850  1.00  0.00    -0.083 N 
HETATM    3  C   UNL     1      41.653 -13.280   5.770  1.00  0.00     0.726 A 
HETATM    4  N   UNL     1      41.169 -12.146   6.207  1.00  0.00    -0.046 NA
HETATM    5  C   UNL     1      39.969 -12.049   5.537  1.00  0.00     0.162 A 
HETATM    6  C   UNL     1      39.073 -10.888   5.702  1.00  0.00     0.096 C 
HETATM    7  N   UNL     1      39.679 -13.076   4.722  1.00  0.00    -0.141 NA
HETATM    8  N   UNL     1      42.765 -13.958   6.098  1.00  0.00    -0.192 N 
HETATM    9  C   UNL     1      42.983 -15.282   5.716  1.00  0.00     0.037 C 
HETATM   10  C   UNL     1      44.166 -15.939   6.391  1.00  0.00     0.070 C 
HETATM   11  C   UNL     1      42.173 -15.877   4.793  1.00  0.00     0.062 C 
HETATM   12  H   UNL     1      43.335 -13.595   6.856  1.00  0.00     0.184 HD
ENDROOT
BRANCH  11  13
HETATM   13  C   UNL     1      42.305 -17.347   4.490  1.00  0.00     0.256 C 
HETATM   14  N   UNL     1      43.326 -17.727   3.647  1.00  0.00    -0.321 N 
HETATM   15  H   UNL     1      43.882 -17.044   3.146  1.00  0.00     0.169 HD
HETATM   16  O   UNL     1      41.475 -18.136   4.935  1.00  0.00    -0.267 OA
BRANCH  14  17
HETATM   17  C   UNL     1      43.670 -19.060   3.295  1.00  0.00     0.068 A 
HETATM   18  C   UNL     1      44.428 -19.805   4.221  1.00  0.00     0.095 A 
HETATM   19  C   UNL     1      44.760 -21.137   3.943  1.00  0.00     0.039 A 
HETATM   20  C   UNL     1      44.362 -21.725   2.741  1.00  0.00     0.003 A 
HETATM   21  C   UNL     1      43.626 -20.988   1.818  1.00  0.00     0.002 A 
HETATM   22  C   UNL     1      43.281 -19.664   2.094  1.00  0.00     0.032 A 
BRANCH  18  23
HETATM   23  O   UNL     1      44.798 -19.144   5.371  1.00  0.00    -0.354 OA
HETATM   24  C   UNL     1      44.236 -19.661   6.575  1.00  0.00     0.210 C 
ENDBRANCH  18  23
ENDBRANCH  14  17
ENDBRANCH  11  13
BRANCH   1  25
HETATM   25  C   UNL     1      41.409 -14.662   2.653  1.00  0.00    -0.028 A 
HETATM   26  C   UNL     1      41.955 -13.412   2.311  1.00  0.00     0.010 A 
HETATM   27  C   UNL     1      42.128 -13.045   0.974  1.00  0.00     0.007 A 
HETATM   28  C   UNL     1      41.753 -13.912  -0.057  1.00  0.00    -0.062 A 
HETATM   29  C   UNL     1      41.848 -13.468  -1.487  1.00  0.00     0.048 C 
HETATM   30  C   UNL     1      41.208 -15.156   0.271  1.00  0.00     0.007 A 
HETATM   31  C   UNL     1      41.048 -15.531   1.608  1.00  0.00     0.010 A 
ENDBRANCH   1  25
TORSDOF 4
ENDMDL
MODEL 2
REMARK VINA RESULT:      -8.4      2.780      6.816
REMARK  4 active torsions:
REMARK  status: ('A' for Active; 'I' for Inactive)
REMARK    1  A    between atoms: C_5  and  C_6 
REMARK    2  A    between atoms: C_16  and  C_17 
REMARK       I    between atoms: C_17  and  N_18 
REMARK    3  A    between atoms: N_18  and  C_19 
REMARK    4  A    between atoms: C_20  and  O_21 
ROOT
HETATM    1  C   UNL     1      42.971 -15.029   2.706  1.00  0.00     0.202 C 
HETATM    2  N   UNL     1      43.007 -14.644   4.124  1.00  0.00    -0.083 N 
HETATM    3  C   UNL     1      41.894 -14.380   4.865  1.00  0.00     0.726 A 
HETATM    4  N   UNL     1      42.236 -14.146   6.106  1.00  0.00    -0.046 NA
HETATM    5  C   UNL     1      43.609 -14.242   6.065  1.00  0.00     0.162 A 
HETATM    6  C   UNL     1      44.441 -14.075   7.273  1.00  0.00     0.096 C 
HETATM    7  N   UNL     1      44.134 -14.505   4.857  1.00  0.00    -0.141 NA
HETATM    8  N   UNL     1      40.697 -14.363   4.254  1.00  0.00    -0.192 N 
HETATM    9  C   UNL     1      40.558 -14.380   2.866  1.00  0.00     0.037 C 
HETATM   10  C   UNL     1      39.154 -14.103   2.377  1.00  0.00     0.070 C 
HETATM   11  C   UNL     1      41.632 -14.647   2.066  1.00  0.00     0.062 C 
HETATM   12  H   UNL     1      39.892 -14.065   4.796  1.00  0.00     0.184 HD
ENDROOT
BRANCH  11  13
HETATM   13  C   UNL     1      41.525 -14.517   0.569  1.00  0.00     0.256 C 
HETATM   14  N   UNL     1      41.592 -13.246   0.042  1.00  0.00    -0.321 N 
HETATM   15  H   UNL     1      41.579 -12.425   0.634  1.00  0.00     0.169 HD
HETATM   16  O   UNL     1      41.315 -15.516  -0.114  1.00  0.00    -0.267 OA
BRANCH  14  17
HETATM   17  C   UNL     1      41.589 -12.910  -1.339  1.00  0.00     0.068 A 
HETATM   18  C   UNL     1      42.490 -11.918  -1.772  1.00  0.00     0.095 A 
HETATM   19  C   UNL     1      42.558 -11.577  -3.128  1.00  0.00     0.039 A 
HETATM   20  C   UNL     1      41.719 -12.202  -4.053  1.00  0.00     0.003 A 
HETATM   21  C   UNL     1      40.817 -13.172  -3.627  1.00  0.00     0.002 A 
HETATM   22  C   UNL     1      40.754 -13.525  -2.278  1.00  0.00     0.032 A 
BRANCH  18  23
HETATM   23  O   UNL     1      43.266 -11.336  -0.794  1.00  0.00    -0.354 OA
HETATM   24  C   UNL     1      43.628  -9.978  -1.034  1.00  0.00     0.210 C 
ENDBRANCH  18  23
ENDBRANCH  14  17
ENDBRANCH  11  13
BRANCH   1  25
HETATM   25  C   UNL     1      43.313 -16.522   2.611  1.00  0.00    -0.028 A 
HETATM   26  C   UNL     1      43.946 -17.081   1.487  1.00  0.00     0.010 A 
HETATM   27  C   UNL     1      44.136 -18.462   1.382  1.00  0.00     0.007 A 
HETATM   28  C   UNL     1      43.692 -19.321   2.391  1.00  0.00    -0.062 A 
HETATM   29  C   UNL     1      43.808 -20.807   2.222  1.00  0.00     0.048 C 
HETATM   30  C   UNL     1      43.060 -18.776   3.512  1.00  0.00     0.007 A 
HETATM   31  C   UNL     1      42.883 -17.395   3.626  1.00  0.00     0.010 A 
ENDBRANCH   1  25
TORSDOF 4
ENDMDL
MODEL 3
REMARK VINA RESULT:      -8.4      2.674      6.854
REMARK  4 active torsions:
REMARK  status: ('A' for Active; 'I' for Inactive)
REMARK    1  A    between atoms: C_5  and  C_6 
REMARK    2  A    between atoms: C_16  and  C_17 
REMARK       I    between atoms: C_17  and  N_18 
REMARK    3  A    between atoms: N_18  and  C_19 
REMARK    4  A    between atoms: C_20  and  O_21 
ROOT
HETATM    1  C   UNL     1      42.929 -15.095   2.725  1.00  0.00     0.202 C 
HETATM    2  N   UNL     1      42.981 -14.746   4.151  1.00  0.00    -0.083 N 
HETATM    3  C   UNL     1      41.877 -14.506   4.913  1.00  0.00     0.726 A 
HETATM    4  N   UNL     1      42.235 -14.300   6.155  1.00  0.00    -0.046 NA
HETATM    5  C   UNL     1      43.608 -14.387   6.094  1.00  0.00     0.162 A 
HETATM    6  C   UNL     1      44.455 -14.245   7.294  1.00  0.00     0.096 C 
HETATM    7  N   UNL     1      44.118 -14.618   4.872  1.00  0.00    -0.141 NA
HETATM    8  N   UNL     1      40.672 -14.480   4.318  1.00  0.00    -0.192 N 
HETATM    9  C   UNL     1      40.514 -14.464   2.932  1.00  0.00     0.037 C 
HETATM   10  C   UNL     1      39.102 -14.182   2.469  1.00  0.00     0.070 C 
HETATM   11  C   UNL     1      41.579 -14.706   2.113  1.00  0.00     0.062 C 
HETATM   12  H   UNL     1      39.873 -14.200   4.879  1.00  0.00     0.184 HD
ENDROOT
BRANCH  11  13
HETATM   13  C   UNL     1      41.452 -14.539   0.621  1.00  0.00     0.256 C 
HETATM   14  N   UNL     1      41.480 -13.254   0.126  1.00  0.00    -0.321 N 
HETATM   15  H   UNL     1      41.453 -12.449   0.740  1.00  0.00     0.169 HD
HETATM   16  O   UNL     1      41.260 -15.525  -0.086  1.00  0.00    -0.267 OA
BRANCH  14  17
HETATM   17  C   UNL     1      41.452 -12.883  -1.246  1.00  0.00     0.068 A 
HETATM   18  C   UNL     1      40.194 -12.631  -1.828  1.00  0.00     0.095 A 
HETATM   19  C   UNL     1      40.111 -12.223  -3.165  1.00  0.00     0.039 A 
HETATM   20  C   UNL     1      41.269 -12.084  -3.931  1.00  0.00     0.003 A 
HETATM   21  C   UNL     1      42.512 -12.346  -3.364  1.00  0.00     0.002 A 
HETATM   22  C   UNL     1      42.603 -12.741  -2.028  1.00  0.00     0.032 A 
BRANCH  18  23
HETATM   23  O   UNL     1      39.101 -12.811  -1.010  1.00  0.00    -0.354 OA
HETATM   24  C   UNL     1      38.181 -13.812  -1.439  1.00  0.00     0.210 C 
ENDBRANCH  18  23
ENDBRANCH  14  17
ENDBRANCH  11  13
BRANCH   1  25
HETATM   25  C   UNL     1      43.277 -16.584   2.589  1.00  0.00    -0.028 A 
HETATM   26  C   UNL     1      43.909 -17.110   1.448  1.00  0.00     0.010 A 
HETATM   27  C   UNL     1      44.104 -18.486   1.306  1.00  0.00     0.007 A 
HETATM   28  C   UNL     1      43.667 -19.375   2.293  1.00  0.00    -0.062 A 
HETATM   29  C   UNL     1      43.790 -20.855   2.083  1.00  0.00     0.048 C 
HETATM   30  C   UNL     1      43.037 -18.863   3.431  1.00  0.00     0.007 A 
HETATM   31  C   UNL     1      42.855 -17.486   3.582  1.00  0.00     0.010 A 
ENDBRANCH   1  25
TORSDOF 4
ENDMDL
MODEL 4
REMARK VINA RESULT:      -8.1      1.970      4.159
REMARK  4 active torsions:
REMARK  status: ('A' for Active; 'I' for Inactive)
REMARK    1  A    between atoms: C_5  and  C_6 
REMARK    2  A    between atoms: C_16  and  C_17 
REMARK       I    between atoms: C_17  and  N_18 
REMARK    3  A    between atoms: N_18  and  C_19 
REMARK    4  A    between atoms: C_20  and  O_21 
ROOT
HETATM    1  C   UNL     1      42.679 -15.115   3.831  1.00  0.00     0.202 C 
HETATM    2  N   UNL     1      41.937 -13.847   3.863  1.00  0.00    -0.083 N 
HETATM    3  C   UNL     1      40.631 -13.725   3.492  1.00  0.00     0.726 A 
HETATM    4  N   UNL     1      40.225 -12.499   3.703  1.00  0.00    -0.046 NA
HETATM    5  C   UNL     1      41.361 -11.882   4.180  1.00  0.00     0.162 A 
HETATM    6  C   UNL     1      41.367 -10.463   4.588  1.00  0.00     0.096 C 
HETATM    7  N   UNL     1      42.453 -12.661   4.256  1.00  0.00    -0.141 NA
HETATM    8  N   UNL     1      40.004 -14.791   2.967  1.00  0.00    -0.192 N 
HETATM    9  C   UNL     1      40.679 -15.948   2.575  1.00  0.00     0.037 C 
HETATM   10  C   UNL     1      39.838 -16.923   1.782  1.00  0.00     0.070 C 
HETATM   11  C   UNL     1      41.986 -16.136   2.922  1.00  0.00     0.062 C 
HETATM   12  H   UNL     1      39.066 -14.657   2.602  1.00  0.00     0.184 HD
ENDROOT
BRANCH  11  13
HETATM   13  C   UNL     1      42.765 -17.304   2.376  1.00  0.00     0.256 C 
HETATM   14  N   UNL     1      42.839 -18.434   3.160  1.00  0.00    -0.321 N 
HETATM   15  H   UNL     1      42.502 -18.439   4.115  1.00  0.00     0.169 HD
HETATM   16  O   UNL     1      43.357 -17.192   1.305  1.00  0.00    -0.267 OA
BRANCH  14  17
HETATM   17  C   UNL     1      43.455 -19.664   2.803  1.00  0.00     0.068 A 
HETATM   18  C   UNL     1      44.473 -20.153   3.645  1.00  0.00     0.095 A 
HETATM   19  C   UNL     1      45.086 -21.380   3.362  1.00  0.00     0.039 A 
HETATM   20  C   UNL     1      44.707 -22.112   2.236  1.00  0.00     0.003 A 
HETATM   21  C   UNL     1      43.712 -21.626   1.394  1.00  0.00     0.002 A 
HETATM   22  C   UNL     1      43.088 -20.409   1.677  1.00  0.00     0.032 A 
BRANCH  18  23
HETATM   23  O   UNL     1      44.802 -19.360   4.722  1.00  0.00    -0.354 OA
HETATM   24  C   UNL     1      44.354 -19.839   5.987  1.00  0.00     0.210 C 
ENDBRANCH  18  23
ENDBRANCH  14  17
ENDBRANCH  11  13
BRANCH   1  25
HETATM   25  C   UNL     1      42.871 -15.587   5.279  1.00  0.00    -0.028 A 
HETATM   26  C   UNL     1      44.008 -15.255   6.037  1.00  0.00     0.010 A 
HETATM   27  C   UNL     1      44.208 -15.799   7.308  1.00  0.00     0.007 A 
HETATM   28  C   UNL     1      43.284 -16.695   7.854  1.00  0.00    -0.062 A 
HETATM   29  C   UNL     1      43.559 -17.351   9.174  1.00  0.00     0.048 C 
HETATM   30  C   UNL     1      42.151 -17.033   7.109  1.00  0.00     0.007 A 
HETATM   31  C   UNL     1      41.941 -16.479   5.844  1.00  0.00     0.010 A 
ENDBRANCH   1  25
TORSDOF 4
ENDMDL
MODEL 5
REMARK VINA RESULT:      -7.9      2.494      4.874
REMARK  4 active torsions:
REMARK  status: ('A' for Active; 'I' for Inactive)
REMARK    1  A    between atoms: C_5  and  C_6 
REMARK    2  A    between atoms: C_16  and  C_17 
REMARK       I    between atoms: C_17  and  N_18 
REMARK    3  A    between atoms: N_18  and  C_19 
REMARK    4  A    between atoms: C_20  and  O_21 
ROOT
HETATM    1  C   UNL     1      42.396 -14.099   2.193  1.00  0.00     0.202 C 
HETATM    2  N   UNL     1      41.953 -13.479   0.937  1.00  0.00    -0.083 N 
HETATM    3  C   UNL     1      41.106 -14.079   0.055  1.00  0.00     0.726 A 
HETATM    4  N   UNL     1      40.833 -13.254  -0.924  1.00  0.00    -0.046 NA
HETATM    5  C   UNL     1      41.588 -12.146  -0.607  1.00  0.00     0.162 A 
HETATM    6  C   UNL     1      41.571 -10.925  -1.436  1.00  0.00     0.096 C 
HETATM    7  N   UNL     1      42.329 -12.253   0.508  1.00  0.00    -0.141 NA
HETATM    8  N   UNL     1      40.730 -15.349   0.278  1.00  0.00    -0.192 N 
HETATM    9  C   UNL     1      41.333 -16.157   1.242  1.00  0.00     0.037 C 
HETATM   10  C   UNL     1      40.943 -17.616   1.166  1.00  0.00     0.070 C 
HETATM   11  C   UNL     1      42.185 -15.617   2.161  1.00  0.00     0.062 C 
HETATM   12  H   UNL     1      40.182 -15.815  -0.439  1.00  0.00     0.184 HD
ENDROOT
BRANCH  11  13
HETATM   13  C   UNL     1      42.958 -16.502   3.104  1.00  0.00     0.256 C 
HETATM   14  N   UNL     1      42.457 -16.655   4.378  1.00  0.00    -0.321 N 
HETATM   15  H   UNL     1      41.681 -16.097   4.713  1.00  0.00     0.169 HD
HETATM   16  O   UNL     1      44.025 -16.992   2.740  1.00  0.00    -0.267 OA
BRANCH  14  17
HETATM   17  C   UNL     1      42.987 -17.499   5.392  1.00  0.00     0.068 A 
HETATM   18  C   UNL     1      43.348 -16.901   6.615  1.00  0.00     0.095 A 
HETATM   19  C   UNL     1      43.837 -17.692   7.663  1.00  0.00     0.039 A 
HETATM   20  C   UNL     1      43.989 -19.069   7.493  1.00  0.00     0.003 A 
HETATM   21  C   UNL     1      43.647 -19.660   6.281  1.00  0.00     0.002 A 
HETATM   22  C   UNL     1      43.147 -18.880   5.237  1.00  0.00     0.032 A 
BRANCH  18  23
HETATM   23  O   UNL     1      43.188 -15.536   6.694  1.00  0.00    -0.354 OA
HETATM   24  C   UNL     1      44.361 -14.806   7.047  1.00  0.00     0.210 C 
ENDBRANCH  18  23
ENDBRANCH  14  17
ENDBRANCH  11  13
BRANCH   1  25
HETATM   25  C   UNL     1      41.684 -13.387   3.351  1.00  0.00    -0.028 A 
HETATM   26  C   UNL     1      42.382 -12.806   4.424  1.00  0.00     0.010 A 
HETATM   27  C   UNL     1      41.699 -12.271   5.520  1.00  0.00     0.007 A 
HETATM   28  C   UNL     1      40.303 -12.310   5.579  1.00  0.00    -0.062 A 
HETATM   29  C   UNL     1      39.586 -11.826   6.804  1.00  0.00     0.048 C 
HETATM   30  C   UNL     1      39.599 -12.886   4.518  1.00  0.00     0.007 A 
HETATM   31  C   UNL     1      40.279 -13.408   3.415  1.00  0.00     0.010 A 
ENDBRANCH   1  25
TORSDOF 4
ENDMDL
MODEL 6
REMARK VINA RESULT:      -7.9      1.504      2.377
REMARK  4 active torsions:
REMARK  status: ('A' for Active; 'I' for Inactive)
REMARK    1  A    between atoms: C_5  and  C_6 
REMARK    2  A    between atoms: C_16  and  C_17 
REMARK       I    between atoms: C_17  and  N_18 
REMARK    3  A    between atoms: N_18  and  C_19 
REMARK    4  A    between atoms: C_20  and  O_21 
ROOT
HETATM    1  C   UNL     1      41.050 -14.003   5.153  1.00  0.00     0.202 C 
HETATM    2  N   UNL     1      40.895 -12.781   5.955  1.00  0.00    -0.083 N 
HETATM    3  C   UNL     1      41.904 -12.215   6.675  1.00  0.00     0.726 A 
HETATM    4  N   UNL     1      41.486 -11.099   7.216  1.00  0.00    -0.046 NA
HETATM    5  C   UNL     1      40.169 -11.044   6.819  1.00  0.00     0.162 A 
HETATM    6  C   UNL     1      39.289  -9.915   7.182  1.00  0.00     0.096 C 
HETATM    7  N   UNL     1      39.745 -12.080   6.077  1.00  0.00    -0.141 NA
HETATM    8  N   UNL     1      43.083 -12.854   6.752  1.00  0.00    -0.192 N 
HETATM    9  C   UNL     1      43.259 -14.169   6.320  1.00  0.00     0.037 C 
HETATM   10  C   UNL     1      44.581 -14.785   6.721  1.00  0.00     0.070 C 
HETATM   11  C   UNL     1      42.290 -14.791   5.587  1.00  0.00     0.062 C 
HETATM   12  H   UNL     1      43.790 -12.472   7.373  1.00  0.00     0.184 HD
ENDROOT
BRANCH  11  13
HETATM   13  C   UNL     1      42.404 -16.256   5.250  1.00  0.00     0.256 C 
HETATM   14  N   UNL     1      43.166 -16.592   4.153  1.00  0.00    -0.321 N 
HETATM   15  H   UNL     1      43.526 -15.887   3.521  1.00  0.00     0.169 HD
HETATM   16  O   UNL     1      41.771 -17.080   5.905  1.00  0.00    -0.267 OA
BRANCH  14  17
HETATM   17  C   UNL     1      43.463 -17.910   3.711  1.00  0.00     0.068 A 
HETATM   18  C   UNL     1      42.817 -18.368   2.546  1.00  0.00     0.095 A 
HETATM   19  C   UNL     1      43.103 -19.643   2.042  1.00  0.00     0.039 A 
HETATM   20  C   UNL     1      44.011 -20.472   2.703  1.00  0.00     0.003 A 
HETATM   21  C   UNL     1      44.640 -20.029   3.862  1.00  0.00     0.002 A 
HETATM   22  C   UNL     1      44.369 -18.754   4.362  1.00  0.00     0.032 A 
BRANCH  18  23
HETATM   23  O   UNL     1      41.921 -17.497   1.967  1.00  0.00    -0.354 OA
HETATM   24  C   UNL     1      42.329 -16.949   0.716  1.00  0.00     0.210 C 
ENDBRANCH  18  23
ENDBRANCH  14  17
ENDBRANCH  11  13
BRANCH   1  25
HETATM   25  C   UNL     1      41.044 -13.601   3.672  1.00  0.00    -0.028 A 
HETATM   26  C   UNL     1      39.952 -13.859   2.824  1.00  0.00     0.010 A 
HETATM   27  C   UNL     1      40.026 -13.588   1.455  1.00  0.00     0.007 A 
HETATM   28  C   UNL     1      41.193 -13.062   0.894  1.00  0.00    -0.062 A 
HETATM   29  C   UNL     1      41.297 -12.872  -0.590  1.00  0.00     0.048 C 
HETATM   30  C   UNL     1      42.285 -12.804   1.727  1.00  0.00     0.007 A 
HETATM   31  C   UNL     1      42.209 -13.060   3.098  1.00  0.00     0.010 A 
ENDBRANCH   1  25
TORSDOF 4
ENDMDL
MODEL 7
REMARK VINA RESULT:      -7.9      2.403      6.562
REMARK  4 active torsions:
REMARK  status: ('A' for Active; 'I' for Inactive)
REMARK    1  A    between atoms: C_5  and  C_6 
REMARK    2  A    between atoms: C_16  and  C_17 
REMARK       I    between atoms: C_17  and  N_18 
REMARK    3  A    between atoms: N_18  and  C_19 
REMARK    4  A    between atoms: C_20  and  O_21 
ROOT
HETATM    1  C   UNL     1      43.701 -16.586   4.737  1.00  0.00     0.202 C 
HETATM    2  N   UNL     1      43.535 -17.078   6.112  1.00  0.00    -0.083 N 
HETATM    3  C   UNL     1      42.382 -16.949   6.827  1.00  0.00     0.726 A 
HETATM    4  N   UNL     1      42.511 -17.551   7.982  1.00  0.00    -0.046 NA
HETATM    5  C   UNL     1      43.808 -18.011   7.941  1.00  0.00     0.162 A 
HETATM    6  C   UNL     1      44.396 -18.793   9.047  1.00  0.00     0.096 C 
HETATM    7  N   UNL     1      44.494 -17.707   6.827  1.00  0.00    -0.141 NA
HETATM    8  N   UNL     1      41.367 -16.244   6.300  1.00  0.00    -0.192 N 
HETATM    9  C   UNL     1      41.509 -15.452   5.160  1.00  0.00     0.037 C 
HETATM   10  C   UNL     1      40.329 -14.549   4.877  1.00  0.00     0.070 C 
HETATM   11  C   UNL     1      42.636 -15.539   4.394  1.00  0.00     0.062 C 
HETATM   12  H   UNL     1      40.555 -16.071   6.886  1.00  0.00     0.184 HD
ENDROOT
BRANCH  11  13
HETATM   13  C   UNL     1      42.864 -14.581   3.254  1.00  0.00     0.256 C 
HETATM   14  N   UNL     1      41.843 -14.434   2.341  1.00  0.00    -0.321 N 
HETATM   15  H   UNL     1      41.029 -15.036   2.355  1.00  0.00     0.169 HD
HETATM   16  O   UNL     1      43.955 -14.028   3.135  1.00  0.00    -0.267 OA
BRANCH  14  17
HETATM   17  C   UNL     1      41.825 -13.532   1.243  1.00  0.00     0.068 A 
HETATM   18  C   UNL     1      41.727 -14.082  -0.051  1.00  0.00     0.095 A 
HETATM   19  C   UNL     1      41.664 -13.238  -1.167  1.00  0.00     0.039 A 
HETATM   20  C   UNL     1      41.719 -11.853  -1.005  1.00  0.00     0.003 A 
HETATM   21  C   UNL     1      41.830 -11.307   0.270  1.00  0.00     0.002 A 
HETATM   22  C   UNL     1      41.880 -12.142   1.387  1.00  0.00     0.032 A 
BRANCH  18  23
HETATM   23  O   UNL     1      41.700 -15.456  -0.125  1.00  0.00    -0.354 OA
HETATM   24  C   UNL     1      41.052 -15.989  -1.278  1.00  0.00     0.210 C 
ENDBRANCH  18  23
ENDBRANCH  14  17
ENDBRANCH  11  13
BRANCH   1  25
HETATM   25  C   UNL     1      43.716 -17.801   3.798  1.00  0.00    -0.028 A 
HETATM   26  C   UNL     1      42.850 -17.915   2.697  1.00  0.00     0.010 A 
HETATM   27  C   UNL     1      42.808 -19.085   1.934  1.00  0.00     0.007 A 
HETATM   28  C   UNL     1      43.622 -20.175   2.254  1.00  0.00    -0.062 A 
HETATM   29  C   UNL     1      43.496 -21.461   1.493  1.00  0.00     0.048 C 
HETATM   30  C   UNL     1      44.486 -20.073   3.348  1.00  0.00     0.007 A 
HETATM   31  C   UNL     1      44.541 -18.899   4.103  1.00  0.00     0.010 A 
ENDBRANCH   1  25
TORSDOF 4
ENDMDL
MODEL 8
REMARK VINA RESULT:      -7.9      2.467      7.546
REMARK  4 active torsions:
REMARK  status: ('A' for Active; 'I' for Inactive)
REMARK    1  A    between atoms: C_5  and  C_6 
REMARK    2  A    between atoms: C_16  and  C_17 
REMARK       I    between atoms: C_17  and  N_18 
REMARK    3  A    between atoms: N_18  and  C_19 
REMARK    4  A    between atoms: C_20  and  O_21 
ROOT
HETATM    1  C   UNL     1      41.851 -16.681   3.247  1.00  0.00     0.202 C 
HETATM    2  N   UNL     1      42.634 -17.804   2.714  1.00  0.00    -0.083 N 
HETATM    3  C   UNL     1      43.204 -17.810   1.476  1.00  0.00     0.726 A 
HETATM    4  N   UNL     1      43.900 -18.906   1.317  1.00  0.00    -0.046 NA
HETATM    5  C   UNL     1      43.687 -19.576   2.502  1.00  0.00     0.162 A 
HETATM    6  C   UNL     1      44.316 -20.881   2.786  1.00  0.00     0.096 C 
HETATM    7  N   UNL     1      42.879 -18.957   3.378  1.00  0.00    -0.141 NA
HETATM    8  N   UNL     1      42.958 -16.784   0.645  1.00  0.00    -0.192 N 
HETATM    9  C   UNL     1      41.975 -15.826   0.897  1.00  0.00     0.037 C 
HETATM   10  C   UNL     1      41.685 -14.908  -0.270  1.00  0.00     0.070 C 
HETATM   11  C   UNL     1      41.371 -15.761   2.119  1.00  0.00     0.062 C 
HETATM   12  H   UNL     1      43.305 -16.851  -0.307  1.00  0.00     0.184 HD
ENDROOT
BRANCH  11  13
HETATM   13  C   UNL     1      40.206 -14.835   2.351  1.00  0.00     0.256 C 
HETATM   14  N   UNL     1      40.494 -13.534   2.700  1.00  0.00    -0.321 N 
HETATM   15  H   UNL     1      41.438 -13.242   2.923  1.00  0.00     0.169 HD
HETATM   16  O   UNL     1      39.060 -15.275   2.293  1.00  0.00    -0.267 OA
BRANCH  14  17
HETATM   17  C   UNL     1      39.551 -12.488   2.888  1.00  0.00     0.068 A 
HETATM   18  C   UNL     1      39.397 -11.974   4.192  1.00  0.00     0.095 A 
HETATM   19  C   UNL     1      38.511 -10.915   4.426  1.00  0.00     0.039 A 
HETATM   20  C   UNL     1      37.763 -10.379   3.377  1.00  0.00     0.003 A 
HETATM   21  C   UNL     1      37.901 -10.893   2.092  1.00  0.00     0.002 A 
HETATM   22  C   UNL     1      38.792 -11.940   1.849  1.00  0.00     0.032 A 
BRANCH  18  23
HETATM   23  O   UNL     1      40.156 -12.573   5.172  1.00  0.00    -0.354 OA
HETATM   24  C   UNL     1      39.557 -12.609   6.466  1.00  0.00     0.210 C 
ENDBRANCH  18  23
ENDBRANCH  14  17
ENDBRANCH  11  13
BRANCH   1  25
HETATM   25  C   UNL     1      42.698 -15.978   4.317  1.00  0.00    -0.028 A 
HETATM   26  C   UNL     1      42.776 -16.442   5.643  1.00  0.00     0.010 A 
HETATM   27  C   UNL     1      43.460 -15.713   6.619  1.00  0.00     0.007 A 
HETATM   28  C   UNL     1      44.076 -14.499   6.302  1.00  0.00    -0.062 A 
HETATM   29  C   UNL     1      44.718 -13.675   7.379  1.00  0.00     0.048 C 
HETATM   30  C   UNL     1      44.004 -14.028   4.988  1.00  0.00     0.007 A 
HETATM   31  C   UNL     1      43.334 -14.763   4.007  1.00  0.00     0.010 A 
ENDBRANCH   1  25
TORSDOF 4
ENDMDL
MODEL 9
REMARK VINA RESULT:      -7.7      2.714      6.662
REMARK  4 active torsions:
REMARK  status: ('A' for Active; 'I' for Inactive)
REMARK    1  A    between atoms: C_5  and  C_6 
REMARK    2  A    between atoms: C_16  and  C_17 
REMARK       I    between atoms: C_17  and  N_18 
REMARK    3  A    between atoms: N_18  and  C_19 
REMARK    4  A    between atoms: C_20  and  O_21 
ROOT
HETATM    1  C   UNL     1      42.840 -16.240   3.406  1.00  0.00     0.202 C 
HETATM    2  N   UNL     1      42.609 -16.337   4.854  1.00  0.00    -0.083 N 
HETATM    3  C   UNL     1      41.379 -16.233   5.432  1.00  0.00     0.726 A 
HETATM    4  N   UNL     1      41.479 -16.440   6.720  1.00  0.00    -0.046 NA
HETATM    5  C   UNL     1      42.832 -16.632   6.892  1.00  0.00     0.162 A 
HETATM    6  C   UNL     1      43.418 -16.933   8.214  1.00  0.00     0.096 C 
HETATM    7  N   UNL     1      43.576 -16.536   5.778  1.00  0.00    -0.141 NA
HETATM    8  N   UNL     1      40.325 -15.919   4.661  1.00  0.00    -0.192 N 
HETATM    9  C   UNL     1      40.456 -15.478   3.344  1.00  0.00     0.037 C 
HETATM   10  C   UNL     1      39.180 -14.940   2.736  1.00  0.00     0.070 C 
HETATM   11  C   UNL     1      41.659 -15.563   2.704  1.00  0.00     0.062 C 
HETATM   12  H   UNL     1      39.436 -15.745   5.121  1.00  0.00     0.184 HD
ENDROOT
BRANCH  11  13
HETATM   13  C   UNL     1      41.847 -14.949   1.341  1.00  0.00     0.256 C 
HETATM   14  N   UNL     1      40.925 -15.274   0.371  1.00  0.00    -0.321 N 
HETATM   15  H   UNL     1      40.229 -15.994   0.521  1.00  0.00     0.169 HD
HETATM   16  O   UNL     1      42.834 -14.251   1.121  1.00  0.00    -0.267 OA
BRANCH  14  17
HETATM   17  C   UNL     1      40.877 -14.749  -0.949  1.00  0.00     0.068 A 
HETATM   18  C   UNL     1      40.366 -13.446  -1.115  1.00  0.00     0.095 A 
HETATM   19  C   UNL     1      40.334 -12.864  -2.388  1.00  0.00     0.039 A 
HETATM   20  C   UNL     1      40.785 -13.579  -3.500  1.00  0.00     0.003 A 
HETATM   21  C   UNL     1      41.276 -14.871  -3.342  1.00  0.00     0.002 A 
HETATM   22  C   UNL     1      41.323 -15.452  -2.074  1.00  0.00     0.032 A 
BRANCH  18  23
HETATM   23  O   UNL     1      39.923 -12.820   0.028  1.00  0.00    -0.354 OA
HETATM   24  C   UNL     1      39.465 -11.481  -0.153  1.00  0.00     0.210 C 
ENDBRANCH  18  23
ENDBRANCH  14  17
ENDBRANCH  11  13
BRANCH   1  25
HETATM   25  C   UNL     1      43.163 -17.647   2.883  1.00  0.00    -0.028 A 
HETATM   26  C   UNL     1      42.418 -18.261   1.861  1.00  0.00     0.010 A 
HETATM   27  C   UNL     1      42.663 -19.586   1.490  1.00  0.00     0.007 A 
HETATM   28  C   UNL     1      43.651 -20.336   2.136  1.00  0.00    -0.062 A 
HETATM   29  C   UNL     1      43.835 -21.787   1.802  1.00  0.00     0.048 C 
HETATM   30  C   UNL     1      44.396 -19.736   3.154  1.00  0.00     0.007 A 
HETATM   31  C   UNL     1      44.163 -18.407   3.515  1.00  0.00     0.010 A 
ENDBRANCH   1  25
TORSDOF 4
ENDMDL
MODEL 10
REMARK VINA RESULT:      -7.7      1.676      2.206
REMARK  4 active torsions:
REMARK  status: ('A' for Active; 'I' for Inactive)
REMARK    1  A    between atoms: C_5  and  C_6 
REMARK    2  A    between atoms: C_16  and  C_17 
REMARK       I    between atoms: C_17  and  N_18 
REMARK    3  A    between atoms: N_18  and  C_19 
REMARK    4  A    between atoms: C_20  and  O_21 
ROOT
HETATM    1  C   UNL     1      40.216 -14.184   2.248  1.00  0.00     0.202 C 
HETATM    2  N   UNL     1      39.544 -12.956   2.696  1.00  0.00    -0.083 N 
HETATM    3  C   UNL     1      39.955 -12.215   3.763  1.00  0.00     0.726 A 
HETATM    4  N   UNL     1      39.212 -11.143   3.866  1.00  0.00    -0.046 NA
HETATM    5  C   UNL     1      38.312 -11.297   2.835  1.00  0.00     0.162 A 
HETATM    6  C   UNL     1      37.275 -10.287   2.544  1.00  0.00     0.096 C 
HETATM    7  N   UNL     1      38.449 -12.420   2.112  1.00  0.00    -0.141 NA
HETATM    8  N   UNL     1      40.962 -12.675   4.523  1.00  0.00    -0.192 N 
HETATM    9  C   UNL     1      41.462 -13.973   4.410  1.00  0.00     0.037 C 
HETATM   10  C   UNL     1      42.415 -14.373   5.514  1.00  0.00     0.070 C 
HETATM   11  C   UNL     1      41.098 -14.765   3.359  1.00  0.00     0.062 C 
HETATM   12  H   UNL     1      41.188 -12.165   5.371  1.00  0.00     0.184 HD
ENDROOT
BRANCH  11  13
HETATM   13  C   UNL     1      41.509 -16.213   3.311  1.00  0.00     0.256 C 
HETATM   14  N   UNL     1      42.855 -16.483   3.193  1.00  0.00    -0.321 N 
HETATM   15  H   UNL     1      43.528 -15.749   3.012  1.00  0.00     0.169 HD
HETATM   16  O   UNL     1      40.647 -17.089   3.307  1.00  0.00    -0.267 OA
BRANCH  14  17
HETATM   17  C   UNL     1      43.456 -17.771   3.206  1.00  0.00     0.068 A 
HETATM   18  C   UNL     1      43.910 -18.266   4.445  1.00  0.00     0.095 A 
HETATM   19  C   UNL     1      44.473 -19.546   4.522  1.00  0.00     0.039 A 
HETATM   20  C   UNL     1      44.607 -20.326   3.373  1.00  0.00     0.003 A 
HETATM   21  C   UNL     1      44.174 -19.835   2.146  1.00  0.00     0.002 A 
HETATM   22  C   UNL     1      43.599 -18.565   2.063  1.00  0.00     0.032 A 
BRANCH  18  23
HETATM   23  O   UNL     1      43.760 -17.426   5.525  1.00  0.00    -0.354 OA
HETATM   24  C   UNL     1      44.813 -17.479   6.485  1.00  0.00     0.210 C 
ENDBRANCH  18  23
ENDBRANCH  14  17
ENDBRANCH  11  13
BRANCH   1  25
HETATM   25  C   UNL     1      40.966 -13.867   0.947  1.00  0.00    -0.028 A 
HETATM   26  C   UNL     1      41.726 -12.695   0.781  1.00  0.00     0.010 A 
HETATM   27  C   UNL     1      42.298 -12.380  -0.455  1.00  0.00     0.007 A 
HETATM   28  C   UNL     1      42.121 -13.220  -1.558  1.00  0.00    -0.062 A 
HETATM   29  C   UNL     1      42.652 -12.822  -2.903  1.00  0.00     0.048 C 
HETATM   30  C   UNL     1      41.367 -14.387  -1.404  1.00  0.00     0.007 A 
HETATM   31  C   UNL     1      40.806 -14.712  -0.166  1.00  0.00     0.010 A 
ENDBRANCH   1  25
TORSDOF 4
ENDMDL
