MODEL 1
REMARK VINA RESULT:      -9.4      0.000      0.000
REMARK  9 active torsions:
REMARK  status: ('A' for Active; 'I' for Inactive)
REMARK    1  A    between atoms: C_2  and  O_3 
REMARK    2  A    between atoms: O_3  and  C_4 
REMARK    3  A    between atoms: C_7  and  N_8 
REMARK       I    between atoms: N_8  and  C_9 
REMARK    4  A    between atoms: C_9  and  C_10 
REMARK    5  A    between atoms: C_10  and  S_11 
REMARK    6  A    between atoms: S_11  and  C_12 
REMARK    7  A    between atoms: C_16  and  C_17 
REMARK       I    between atoms: C_17  and  N_18 
REMARK    8  A    between atoms: N_18  and  C_19 
REMARK    9  A    between atoms: C_27  and  C_28 
ROOT
HETATM    1  C   UNL     1      40.307 -12.697   5.910  1.00  0.00     0.087 C 
HETATM    2  N   UNL     1      40.043 -13.999   6.298  1.00  0.00    -0.353 N 
HETATM    3  C   UNL     1      40.725 -15.097   5.813  1.00  0.00     0.019 C 
HETATM    4  C   UNL     1      40.519 -16.384   6.573  1.00  0.00     0.069 C 
HETATM    5  C   UNL     1      41.537 -14.932   4.743  1.00  0.00     0.046 C 
HETATM    6  C   UNL     1      41.476 -13.644   3.912  1.00  0.00     0.104 C 
HETATM    7  C   UNL     1      40.929 -12.465   4.727  1.00  0.00     0.055 C 
HETATM    8  C   UNL     1      40.975 -11.069   4.127  1.00  0.00     0.019 C 
HETATM    9  N   UNL     1      41.013  -9.911   3.631  1.00  0.00    -0.096 N 
HETATM   10  H   UNL     1      39.559 -14.095   7.189  1.00  0.00     0.166 HD
ENDROOT
BRANCH   1  11
HETATM   11  S   UNL     1      39.962 -11.399   7.045  1.00  0.00    -0.102 SA
BRANCH  11  12
HETATM   12  C   UNL     1      41.705 -11.116   7.520  1.00  0.00     0.184 C 
BRANCH  12  13
HETATM   13  C   UNL     1      41.879 -10.404   8.843  1.00  0.00     0.231 C 
HETATM   14  N   UNL     1      42.390 -11.201   9.847  1.00  0.00    -0.327 N 
HETATM   15  H   UNL     1      42.890 -12.033   9.553  1.00  0.00     0.169 HD
HETATM   16  O   UNL     1      41.479  -9.248   8.966  1.00  0.00    -0.272 OA
BRANCH  14  17
HETATM   17  C   UNL     1      42.331 -10.948  11.232  1.00  0.00     0.034 A 
HETATM   18  C   UNL     1      43.343 -10.300  11.941  1.00  0.00     0.032 A 
HETATM   19  C   UNL     1      43.179 -10.009  13.298  1.00  0.00     0.039 A 
HETATM   20  C   UNL     1      42.006 -10.360  13.967  1.00  0.00     0.068 A 
HETATM   21  C   UNL     1      41.003 -11.029  13.268  1.00  0.00     0.039 A 
HETATM   22  C   UNL     1      41.162 -11.313  11.906  1.00  0.00     0.032 A 
BRANCH  20  23
HETATM   23  O   UNL     1      41.967  -9.992  15.282  1.00  0.00    -0.352 OA
BRANCH  23  24
HETATM   24  C   UNL     1      41.998  -8.594  15.563  1.00  0.00     0.171 C 
HETATM   25  C   UNL     1      40.582  -8.061  15.433  1.00  0.00     0.034 C 
ENDBRANCH  23  24
ENDBRANCH  20  23
ENDBRANCH  14  17
ENDBRANCH  12  13
ENDBRANCH  11  12
ENDBRANCH   1  11
BRANCH   6  26
HETATM   26  C   UNL     1      40.694 -13.864   2.618  1.00  0.00    -0.042 A 
HETATM   27  C   UNL     1      39.321 -14.146   2.615  1.00  0.00     0.027 A 
HETATM   28  C   UNL     1      38.682 -14.359   1.403  1.00  0.00     0.116 A 
HETATM   29  N   UNL     1      39.307 -14.328   0.208  1.00  0.00    -0.273 NA
HETATM   30  C   UNL     1      40.632 -14.078   0.228  1.00  0.00     0.116 A 
HETATM   31  C   UNL     1      41.358 -13.841   1.385  1.00  0.00     0.027 A 
ENDBRANCH   6  26
BRANCH   5  32
HETATM   32  C   UNL     1      42.619 -15.907   4.408  1.00  0.00     0.255 C 
HETATM   33  N   UNL     1      42.102 -17.116   3.972  1.00  0.00    -0.323 N 
HETATM   34  H   UNL     1      41.095 -17.191   3.933  1.00  0.00     0.169 HD
HETATM   35  O   UNL     1      43.792 -15.641   4.624  1.00  0.00    -0.268 OA
BRANCH  33  36
HETATM   36  C   UNL     1      42.794 -18.262   3.540  1.00  0.00     0.035 A 
HETATM   37  C   UNL     1      43.680 -18.989   4.335  1.00  0.00     0.031 A 
HETATM   38  C   UNL     1      44.326 -20.117   3.816  1.00  0.00     0.026 A 
HETATM   39  C   UNL     1      44.096 -20.513   2.500  1.00  0.00     0.034 A 
HETATM   40 CL   UNL     1      44.897 -21.896   1.863  1.00  0.00    -0.084 Cl
HETATM   41  C   UNL     1      43.219 -19.793   1.696  1.00  0.00     0.026 A 
HETATM   42  C   UNL     1      42.566 -18.674   2.218  1.00  0.00     0.031 A 
ENDBRANCH  33  36
ENDBRANCH   5  32
TORSDOF 9
ENDMDL
MODEL 2
REMARK VINA RESULT:      -9.3      2.066      4.003
REMARK  9 active torsions:
REMARK  status: ('A' for Active; 'I' for Inactive)
REMARK    1  A    between atoms: C_2  and  O_3 
REMARK    2  A    between atoms: O_3  and  C_4 
REMARK    3  A    between atoms: C_7  and  N_8 
REMARK       I    between atoms: N_8  and  C_9 
REMARK    4  A    between atoms: C_9  and  C_10 
REMARK    5  A    between atoms: C_10  and  S_11 
REMARK    6  A    between atoms: S_11  and  C_12 
REMARK    7  A    between atoms: C_16  and  C_17 
REMARK       I    between atoms: C_17  and  N_18 
REMARK    8  A    between atoms: N_18  and  C_19 
REMARK    9  A    between atoms: C_27  and  C_28 
ROOT
HETATM    1  C   UNL     1      40.059 -12.664   3.831  1.00  0.00     0.087 C 
HETATM    2  N   UNL     1      40.794 -12.943   2.692  1.00  0.00    -0.353 N 
HETATM    3  C   UNL     1      41.300 -14.191   2.392  1.00  0.00     0.019 C 
HETATM    4  C   UNL     1      41.794 -14.377   0.979  1.00  0.00     0.069 C 
HETATM    5  C   UNL     1      41.280 -15.144   3.353  1.00  0.00     0.046 C 
HETATM    6  C   UNL     1      40.983 -14.771   4.812  1.00  0.00     0.104 C 
HETATM    7  C   UNL     1      40.173 -13.473   4.915  1.00  0.00     0.055 C 
HETATM    8  C   UNL     1      39.624 -13.050   6.267  1.00  0.00     0.019 C 
HETATM    9  N   UNL     1      39.168 -12.699   7.389  1.00  0.00    -0.096 N 
HETATM   10  H   UNL     1      40.671 -12.284   1.925  1.00  0.00     0.166 HD
ENDROOT
BRANCH   1  11
HETATM   11  S   UNL     1      38.887 -11.355   3.772  1.00  0.00    -0.102 SA
BRANCH  11  12
HETATM   12  C   UNL     1      40.072 -10.040   4.229  1.00  0.00     0.184 C 
BRANCH  12  13
HETATM   13  C   UNL     1      39.998  -9.615   5.679  1.00  0.00     0.231 C 
HETATM   14  N   UNL     1      41.224  -9.548   6.308  1.00  0.00    -0.327 N 
HETATM   15  H   UNL     1      42.036  -9.459   5.707  1.00  0.00     0.169 HD
HETATM   16  O   UNL     1      38.900  -9.464   6.211  1.00  0.00    -0.272 OA
BRANCH  14  17
HETATM   17  C   UNL     1      41.455  -9.538   7.698  1.00  0.00     0.034 A 
HETATM   18  C   UNL     1      41.002  -8.528   8.548  1.00  0.00     0.032 A 
HETATM   19  C   UNL     1      41.197  -8.628   9.928  1.00  0.00     0.039 A 
HETATM   20  C   UNL     1      41.847  -9.732  10.481  1.00  0.00     0.068 A 
HETATM   21  C   UNL     1      42.324 -10.730   9.632  1.00  0.00     0.039 A 
HETATM   22  C   UNL     1      42.121 -10.637   8.250  1.00  0.00     0.032 A 
BRANCH  20  23
HETATM   23  O   UNL     1      41.946  -9.714  11.842  1.00  0.00    -0.352 OA
BRANCH  23  24
HETATM   24  C   UNL     1      43.195 -10.111  12.406  1.00  0.00     0.171 C 
HETATM   25  C   UNL     1      43.375  -9.362  13.714  1.00  0.00     0.034 C 
ENDBRANCH  23  24
ENDBRANCH  20  23
ENDBRANCH  14  17
ENDBRANCH  12  13
ENDBRANCH  11  12
ENDBRANCH   1  11
BRANCH   6  26
HETATM   26  C   UNL     1      42.268 -14.717   5.635  1.00  0.00    -0.042 A 
HETATM   27  C   UNL     1      43.161 -13.640   5.553  1.00  0.00     0.027 A 
HETATM   28  C   UNL     1      44.322 -13.670   6.313  1.00  0.00     0.116 A 
HETATM   29  N   UNL     1      44.661 -14.691   7.126  1.00  0.00    -0.273 NA
HETATM   30  C   UNL     1      43.803 -15.731   7.178  1.00  0.00     0.116 A 
HETATM   31  C   UNL     1      42.614 -15.789   6.468  1.00  0.00     0.027 A 
ENDBRANCH   6  26
BRANCH   5  32
HETATM   32  C   UNL     1      41.393 -16.600   3.033  1.00  0.00     0.255 C 
HETATM   33  N   UNL     1      42.686 -17.064   3.211  1.00  0.00    -0.323 N 
HETATM   34  H   UNL     1      43.371 -16.390   3.524  1.00  0.00     0.169 HD
HETATM   35  O   UNL     1      40.445 -17.216   2.569  1.00  0.00    -0.268 OA
BRANCH  33  36
HETATM   36  C   UNL     1      43.181 -18.370   3.042  1.00  0.00     0.035 A 
HETATM   37  C   UNL     1      42.981 -19.143   1.898  1.00  0.00     0.031 A 
HETATM   38  C   UNL     1      43.510 -20.437   1.823  1.00  0.00     0.026 A 
HETATM   39  C   UNL     1      44.230 -20.963   2.894  1.00  0.00     0.034 A 
HETATM   40 CL   UNL     1      44.873 -22.555   2.801  1.00  0.00    -0.084 Cl
HETATM   41  C   UNL     1      44.432 -20.204   4.042  1.00  0.00     0.026 A 
HETATM   42  C   UNL     1      43.913 -18.909   4.111  1.00  0.00     0.031 A 
ENDBRANCH  33  36
ENDBRANCH   5  32
TORSDOF 9
ENDMDL
MODEL 3
REMARK VINA RESULT:      -8.8      4.909      6.128
REMARK  9 active torsions:
REMARK  status: ('A' for Active; 'I' for Inactive)
REMARK    1  A    between atoms: C_2  and  O_3 
REMARK    2  A    between atoms: O_3  and  C_4 
REMARK    3  A    between atoms: C_7  and  N_8 
REMARK       I    between atoms: N_8  and  C_9 
REMARK    4  A    between atoms: C_9  and  C_10 
REMARK    5  A    between atoms: C_10  and  S_11 
REMARK    6  A    between atoms: S_11  and  C_12 
REMARK    7  A    between atoms: C_16  and  C_17 
REMARK       I    between atoms: C_17  and  N_18 
REMARK    8  A    between atoms: N_18  and  C_19 
REMARK    9  A    between atoms: C_27  and  C_28 
ROOT
HETATM    1  C   UNL     1      39.674 -11.345   1.524  1.00  0.00     0.087 C 
HETATM    2  N   UNL     1      38.836 -12.444   1.459  1.00  0.00    -0.353 N 
HETATM    3  C   UNL     1      39.252 -13.704   1.076  1.00  0.00     0.019 C 
HETATM    4  C   UNL     1      38.288 -14.828   1.364  1.00  0.00     0.069 C 
HETATM    5  C   UNL     1      40.479 -13.838   0.520  1.00  0.00     0.046 C 
HETATM    6  C   UNL     1      41.261 -12.603   0.056  1.00  0.00     0.104 C 
HETATM    7  C   UNL     1      40.824 -11.336   0.803  1.00  0.00     0.055 C 
HETATM    8  C   UNL     1      41.618 -10.054   0.612  1.00  0.00     0.019 C 
HETATM    9  N   UNL     1      42.276  -8.991   0.455  1.00  0.00    -0.096 N 
HETATM   10  H   UNL     1      37.984 -12.373   2.013  1.00  0.00     0.166 HD
ENDROOT
BRANCH   1  11
HETATM   11  S   UNL     1      39.287 -10.064   2.665  1.00  0.00    -0.102 SA
BRANCH  11  12
HETATM   12  C   UNL     1      38.974 -11.180   4.079  1.00  0.00     0.184 C 
BRANCH  12  13
HETATM   13  C   UNL     1      40.226 -11.754   4.706  1.00  0.00     0.231 C 
HETATM   14  N   UNL     1      40.480 -13.064   4.357  1.00  0.00    -0.327 N 
HETATM   15  H   UNL     1      40.037 -13.399   3.508  1.00  0.00     0.169 HD
HETATM   16  O   UNL     1      40.852 -11.087   5.528  1.00  0.00    -0.272 OA
BRANCH  14  17
HETATM   17  C   UNL     1      41.330 -13.963   5.030  1.00  0.00     0.034 A 
HETATM   18  C   UNL     1      40.869 -15.002   5.840  1.00  0.00     0.032 A 
HETATM   19  C   UNL     1      41.770 -15.905   6.409  1.00  0.00     0.039 A 
HETATM   20  C   UNL     1      43.142 -15.787   6.182  1.00  0.00     0.068 A 
HETATM   21  C   UNL     1      43.608 -14.735   5.394  1.00  0.00     0.039 A 
HETATM   22  C   UNL     1      42.706 -13.834   4.815  1.00  0.00     0.032 A 
BRANCH  20  23
HETATM   23  O   UNL     1      43.904 -16.751   6.775  1.00  0.00    -0.352 OA
BRANCH  23  24
HETATM   24  C   UNL     1      43.224 -17.698   7.598  1.00  0.00     0.171 C 
HETATM   25  C   UNL     1      43.621 -19.088   7.134  1.00  0.00     0.034 C 
ENDBRANCH  23  24
ENDBRANCH  20  23
ENDBRANCH  14  17
ENDBRANCH  12  13
ENDBRANCH  11  12
ENDBRANCH   1  11
BRANCH   6  26
HETATM   26  C   UNL     1      41.174 -12.438  -1.461  1.00  0.00    -0.042 A 
HETATM   27  C   UNL     1      42.316 -12.318  -2.264  1.00  0.00     0.027 A 
HETATM   28  C   UNL     1      42.161 -12.147  -3.631  1.00  0.00     0.116 A 
HETATM   29  N   UNL     1      40.964 -12.070  -4.247  1.00  0.00    -0.273 NA
HETATM   30  C   UNL     1      39.873 -12.163  -3.459  1.00  0.00     0.116 A 
HETATM   31  C   UNL     1      39.925 -12.348  -2.086  1.00  0.00     0.027 A 
ENDBRANCH   6  26
BRANCH   5  32
HETATM   32  C   UNL     1      41.189 -15.153   0.466  1.00  0.00     0.255 C 
HETATM   33  N   UNL     1      41.801 -15.452   1.672  1.00  0.00    -0.323 N 
HETATM   34  H   UNL     1      41.697 -14.775   2.415  1.00  0.00     0.169 HD
HETATM   35  O   UNL     1      41.273 -15.778  -0.580  1.00  0.00    -0.268 OA
BRANCH  33  36
HETATM   36  C   UNL     1      42.533 -16.602   2.022  1.00  0.00     0.035 A 
HETATM   37  C   UNL     1      43.686 -17.028   1.364  1.00  0.00     0.031 A 
HETATM   38  C   UNL     1      44.346 -18.189   1.784  1.00  0.00     0.026 A 
HETATM   39  C   UNL     1      43.849 -18.930   2.854  1.00  0.00     0.034 A 
HETATM   40 CL   UNL     1      44.659 -20.359   3.362  1.00  0.00    -0.084 Cl
HETATM   41  C   UNL     1      42.697 -18.517   3.516  1.00  0.00     0.026 A 
HETATM   42  C   UNL     1      42.046 -17.353   3.103  1.00  0.00     0.031 A 
ENDBRANCH  33  36
ENDBRANCH   5  32
TORSDOF 9
ENDMDL
MODEL 4
REMARK VINA RESULT:      -8.7      3.744     10.059
REMARK  9 active torsions:
REMARK  status: ('A' for Active; 'I' for Inactive)
REMARK    1  A    between atoms: C_2  and  O_3 
REMARK    2  A    between atoms: O_3  and  C_4 
REMARK    3  A    between atoms: C_7  and  N_8 
REMARK       I    between atoms: N_8  and  C_9 
REMARK    4  A    between atoms: C_9  and  C_10 
REMARK    5  A    between atoms: C_10  and  S_11 
REMARK    6  A    between atoms: S_11  and  C_12 
REMARK    7  A    between atoms: C_16  and  C_17 
REMARK       I    between atoms: C_17  and  N_18 
REMARK    8  A    between atoms: N_18  and  C_19 
REMARK    9  A    between atoms: C_27  and  C_28 
ROOT
HETATM    1  C   UNL     1      40.226 -12.812   3.855  1.00  0.00     0.087 C 
HETATM    2  N   UNL     1      39.445 -12.603   4.979  1.00  0.00    -0.353 N 
HETATM    3  C   UNL     1      39.920 -12.048   6.150  1.00  0.00     0.019 C 
HETATM    4  C   UNL     1      38.870 -11.613   7.142  1.00  0.00     0.069 C 
HETATM    5  C   UNL     1      41.257 -11.903   6.301  1.00  0.00     0.046 C 
HETATM    6  C   UNL     1      42.228 -12.600   5.339  1.00  0.00     0.104 C 
HETATM    7  C   UNL     1      41.574 -12.896   3.983  1.00  0.00     0.055 C 
HETATM    8  C   UNL     1      42.437 -13.410   2.843  1.00  0.00     0.019 C 
HETATM    9  N   UNL     1      43.152 -13.836   1.897  1.00  0.00    -0.096 N 
HETATM   10  H   UNL     1      38.442 -12.567   4.809  1.00  0.00     0.166 HD
ENDROOT
BRANCH   1  11
HETATM   11  S   UNL     1      39.444 -12.802   2.280  1.00  0.00    -0.102 SA
BRANCH  11  12
HETATM   12  C   UNL     1      38.902 -14.547   2.345  1.00  0.00     0.184 C 
BRANCH  12  13
HETATM   13  C   UNL     1      39.936 -15.536   1.855  1.00  0.00     0.231 C 
HETATM   14  N   UNL     1      40.331 -16.454   2.806  1.00  0.00    -0.327 N 
HETATM   15  H   UNL     1      39.698 -16.598   3.585  1.00  0.00     0.169 HD
HETATM   16  O   UNL     1      40.415 -15.405   0.730  1.00  0.00    -0.272 OA
BRANCH  14  17
HETATM   17  C   UNL     1      41.497 -17.245   2.777  1.00  0.00     0.034 A 
HETATM   18  C   UNL     1      41.978 -17.952   3.880  1.00  0.00     0.032 A 
HETATM   19  C   UNL     1      43.094 -18.783   3.754  1.00  0.00     0.039 A 
HETATM   20  C   UNL     1      43.748 -18.920   2.529  1.00  0.00     0.068 A 
HETATM   21  C   UNL     1      43.286 -18.197   1.431  1.00  0.00     0.039 A 
HETATM   22  C   UNL     1      42.162 -17.371   1.553  1.00  0.00     0.032 A 
BRANCH  20  23
HETATM   23  O   UNL     1      44.806 -19.784   2.541  1.00  0.00    -0.352 OA
BRANCH  23  24
HETATM   24  C   UNL     1      44.529 -21.141   2.884  1.00  0.00     0.171 C 
HETATM   25  C   UNL     1      43.933 -21.817   1.662  1.00  0.00     0.034 C 
ENDBRANCH  23  24
ENDBRANCH  20  23
ENDBRANCH  14  17
ENDBRANCH  12  13
ENDBRANCH  11  12
ENDBRANCH   1  11
BRANCH   6  26
HETATM   26  C   UNL     1      42.826 -13.852   5.977  1.00  0.00    -0.042 A 
HETATM   27  C   UNL     1      42.095 -15.040   6.115  1.00  0.00     0.027 A 
HETATM   28  C   UNL     1      42.696 -16.131   6.727  1.00  0.00     0.116 A 
HETATM   29  N   UNL     1      43.950 -16.118   7.222  1.00  0.00    -0.273 NA
HETATM   30  C   UNL     1      44.633 -14.961   7.103  1.00  0.00     0.116 A 
HETATM   31  C   UNL     1      44.126 -13.822   6.496  1.00  0.00     0.027 A 
ENDBRANCH   6  26
BRANCH   5  32
HETATM   32  C   UNL     1      41.848 -10.955   7.295  1.00  0.00     0.255 C 
HETATM   33  N   UNL     1      41.929 -11.523   8.556  1.00  0.00    -0.323 N 
HETATM   34  H   UNL     1      41.594 -12.471   8.649  1.00  0.00     0.169 HD
HETATM   35  O   UNL     1      42.102  -9.800   6.988  1.00  0.00    -0.268 OA
BRANCH  33  36
HETATM   36  C   UNL     1      42.449 -10.964   9.738  1.00  0.00     0.035 A 
HETATM   37  C   UNL     1      43.802 -10.964  10.076  1.00  0.00     0.031 A 
HETATM   38  C   UNL     1      44.225 -10.385  11.279  1.00  0.00     0.026 A 
HETATM   39  C   UNL     1      43.297  -9.816  12.148  1.00  0.00     0.034 A 
HETATM   40 CL   UNL     1      43.820  -9.112  13.627  1.00  0.00    -0.084 Cl
HETATM   41  C   UNL     1      41.944  -9.815  11.824  1.00  0.00     0.026 A 
HETATM   42  C   UNL     1      41.524 -10.383  10.619  1.00  0.00     0.031 A 
ENDBRANCH  33  36
ENDBRANCH   5  32
TORSDOF 9
ENDMDL
MODEL 5
REMARK VINA RESULT:      -8.7      5.246     10.276
REMARK  9 active torsions:
REMARK  status: ('A' for Active; 'I' for Inactive)
REMARK    1  A    between atoms: C_2  and  O_3 
REMARK    2  A    between atoms: O_3  and  C_4 
REMARK    3  A    between atoms: C_7  and  N_8 
REMARK       I    between atoms: N_8  and  C_9 
REMARK    4  A    between atoms: C_9  and  C_10 
REMARK    5  A    between atoms: C_10  and  S_11 
REMARK    6  A    between atoms: S_11  and  C_12 
REMARK    7  A    between atoms: C_16  and  C_17 
REMARK       I    between atoms: C_17  and  N_18 
REMARK    8  A    between atoms: N_18  and  C_19 
REMARK    9  A    between atoms: C_27  and  C_28 
ROOT
HETATM    1  C   UNL     1      40.197 -12.961   3.200  1.00  0.00     0.087 C 
HETATM    2  N   UNL     1      40.983 -13.340   2.126  1.00  0.00    -0.353 N 
HETATM    3  C   UNL     1      41.493 -14.612   1.960  1.00  0.00     0.019 C 
HETATM    4  C   UNL     1      42.053 -14.921   0.593  1.00  0.00     0.069 C 
HETATM    5  C   UNL     1      41.418 -15.479   2.997  1.00  0.00     0.046 C 
HETATM    6  C   UNL     1      41.053 -14.980   4.402  1.00  0.00     0.104 C 
HETATM    7  C   UNL     1      40.250 -13.674   4.353  1.00  0.00     0.055 C 
HETATM    8  C   UNL     1      39.640 -13.134   5.635  1.00  0.00     0.019 C 
HETATM    9  N   UNL     1      39.133 -12.685   6.699  1.00  0.00    -0.096 N 
HETATM   10  H   UNL     1      40.904 -12.749   1.300  1.00  0.00     0.166 HD
ENDROOT
BRANCH   1  11
HETATM   11  S   UNL     1      39.040 -11.657   2.970  1.00  0.00    -0.102 SA
BRANCH  11  12
HETATM   12  C   UNL     1      39.280 -11.528   1.162  1.00  0.00     0.184 C 
BRANCH  12  13
HETATM   13  C   UNL     1      38.347 -12.397   0.349  1.00  0.00     0.231 C 
HETATM   14  N   UNL     1      38.809 -12.687  -0.917  1.00  0.00    -0.327 N 
HETATM   15  H   UNL     1      39.808 -12.592  -1.066  1.00  0.00     0.169 HD
HETATM   16  O   UNL     1      37.242 -12.691   0.803  1.00  0.00    -0.272 OA
BRANCH  14  17
HETATM   17  C   UNL     1      38.044 -13.150  -2.006  1.00  0.00     0.034 A 
HETATM   18  C   UNL     1      37.237 -12.324  -2.789  1.00  0.00     0.032 A 
HETATM   19  C   UNL     1      36.571 -12.839  -3.904  1.00  0.00     0.039 A 
HETATM   20  C   UNL     1      36.698 -14.184  -4.254  1.00  0.00     0.068 A 
HETATM   21  C   UNL     1      37.482 -15.018  -3.460  1.00  0.00     0.039 A 
HETATM   22  C   UNL     1      38.158 -14.502  -2.347  1.00  0.00     0.032 A 
BRANCH  20  23
HETATM   23  O   UNL     1      36.016 -14.547  -5.380  1.00  0.00    -0.352 OA
BRANCH  23  24
HETATM   24  C   UNL     1      35.304 -13.518  -6.065  1.00  0.00     0.171 C 
HETATM   25  C   UNL     1      35.335 -13.837  -7.549  1.00  0.00     0.034 C 
ENDBRANCH  23  24
ENDBRANCH  20  23
ENDBRANCH  14  17
ENDBRANCH  12  13
ENDBRANCH  11  12
ENDBRANCH   1  11
BRANCH   6  26
HETATM   26  C   UNL     1      42.297 -14.861   5.280  1.00  0.00    -0.042 A 
HETATM   27  C   UNL     1      43.234 -13.832   5.110  1.00  0.00     0.027 A 
HETATM   28  C   UNL     1      44.353 -13.801   5.928  1.00  0.00     0.116 A 
HETATM   29  N   UNL     1      44.612 -14.719   6.882  1.00  0.00    -0.273 NA
HETATM   30  C   UNL     1      43.714 -15.715   7.019  1.00  0.00     0.116 A 
HETATM   31  C   UNL     1      42.560 -15.827   6.259  1.00  0.00     0.027 A 
ENDBRANCH   6  26
BRANCH   5  32
HETATM   32  C   UNL     1      41.533 -16.958   2.809  1.00  0.00     0.255 C 
HETATM   33  N   UNL     1      42.820 -17.406   3.060  1.00  0.00    -0.323 N 
HETATM   34  H   UNL     1      43.499 -16.708   3.331  1.00  0.00     0.169 HD
HETATM   35  O   UNL     1      40.595 -17.610   2.377  1.00  0.00    -0.268 OA
BRANCH  33  36
HETATM   36  C   UNL     1      43.314 -18.722   3.019  1.00  0.00     0.035 A 
HETATM   37  C   UNL     1      43.156 -19.586   1.935  1.00  0.00     0.031 A 
HETATM   38  C   UNL     1      43.681 -20.883   1.989  1.00  0.00     0.026 A 
HETATM   39  C   UNL     1      44.354 -21.320   3.128  1.00  0.00     0.034 A 
HETATM   40 CL   UNL     1      44.991 -22.917   3.192  1.00  0.00    -0.084 Cl
HETATM   41  C   UNL     1      44.513 -20.470   4.217  1.00  0.00     0.026 A 
HETATM   42  C   UNL     1      43.998 -19.173   4.159  1.00  0.00     0.031 A 
ENDBRANCH  33  36
ENDBRANCH   5  32
TORSDOF 9
ENDMDL
MODEL 6
REMARK VINA RESULT:      -8.7      3.749      7.308
REMARK  9 active torsions:
REMARK  status: ('A' for Active; 'I' for Inactive)
REMARK    1  A    between atoms: C_2  and  O_3 
REMARK    2  A    between atoms: O_3  and  C_4 
REMARK    3  A    between atoms: C_7  and  N_8 
REMARK       I    between atoms: N_8  and  C_9 
REMARK    4  A    between atoms: C_9  and  C_10 
REMARK    5  A    between atoms: C_10  and  S_11 
REMARK    6  A    between atoms: S_11  and  C_12 
REMARK    7  A    between atoms: C_16  and  C_17 
REMARK       I    between atoms: C_17  and  N_18 
REMARK    8  A    between atoms: N_18  and  C_19 
REMARK    9  A    between atoms: C_27  and  C_28 
ROOT
HETATM    1  C   UNL     1      41.254 -17.031   3.134  1.00  0.00     0.087 C 
HETATM    2  N   UNL     1      40.592 -16.984   4.348  1.00  0.00    -0.353 N 
HETATM    3  C   UNL     1      41.213 -16.715   5.551  1.00  0.00     0.019 C 
HETATM    4  C   UNL     1      40.296 -16.397   6.706  1.00  0.00     0.069 C 
HETATM    5  C   UNL     1      42.566 -16.718   5.595  1.00  0.00     0.046 C 
HETATM    6  C   UNL     1      43.380 -17.291   4.427  1.00  0.00     0.104 C 
HETATM    7  C   UNL     1      42.592 -17.254   3.110  1.00  0.00     0.055 C 
HETATM    8  C   UNL     1      43.304 -17.604   1.814  1.00  0.00     0.019 C 
HETATM    9  N   UNL     1      43.894 -17.893   0.738  1.00  0.00    -0.096 N 
HETATM   10  H   UNL     1      39.587 -16.829   4.288  1.00  0.00     0.166 HD
ENDROOT
BRANCH   1  11
HETATM   11  S   UNL     1      40.355 -16.642   1.674  1.00  0.00    -0.102 SA
BRANCH  11  12
HETATM   12  C   UNL     1      41.041 -14.957   1.491  1.00  0.00     0.184 C 
BRANCH  12  13
HETATM   13  C   UNL     1      40.388 -13.922   2.379  1.00  0.00     0.231 C 
HETATM   14  N   UNL     1      41.213 -13.429   3.369  1.00  0.00    -0.327 N 
HETATM   15  H   UNL     1      42.211 -13.535   3.219  1.00  0.00     0.169 HD
HETATM   16  O   UNL     1      39.193 -13.671   2.240  1.00  0.00    -0.272 OA
BRANCH  14  17
HETATM   17  C   UNL     1      40.812 -12.751   4.537  1.00  0.00     0.034 A 
HETATM   18  C   UNL     1      39.784 -13.191   5.370  1.00  0.00     0.032 A 
HETATM   19  C   UNL     1      39.497 -12.511   6.557  1.00  0.00     0.039 A 
HETATM   20  C   UNL     1      40.228 -11.383   6.929  1.00  0.00     0.068 A 
HETATM   21  C   UNL     1      41.239 -10.925   6.086  1.00  0.00     0.039 A 
HETATM   22  C   UNL     1      41.535 -11.610   4.902  1.00  0.00     0.032 A 
BRANCH  20  23
HETATM   23  O   UNL     1      39.861 -10.833   8.123  1.00  0.00    -0.352 OA
BRANCH  23  24
HETATM   24  C   UNL     1      40.910 -10.490   9.027  1.00  0.00     0.171 C 
HETATM   25  C   UNL     1      40.506 -10.965  10.412  1.00  0.00     0.034 C 
ENDBRANCH  23  24
ENDBRANCH  20  23
ENDBRANCH  14  17
ENDBRANCH  12  13
ENDBRANCH  11  12
ENDBRANCH   1  11
BRANCH   6  26
HETATM   26  C   UNL     1      43.895 -18.691   4.754  1.00  0.00    -0.042 A 
HETATM   27  C   UNL     1      44.726 -19.402   3.878  1.00  0.00     0.027 A 
HETATM   28  C   UNL     1      45.135 -20.680   4.230  1.00  0.00     0.116 A 
HETATM   29  N   UNL     1      44.768 -21.299   5.370  1.00  0.00    -0.273 NA
HETATM   30  C   UNL     1      43.949 -20.612   6.193  1.00  0.00     0.116 A 
HETATM   31  C   UNL     1      43.496 -19.326   5.936  1.00  0.00     0.027 A 
ENDBRANCH   6  26
BRANCH   5  32
HETATM   32  C   UNL     1      43.329 -16.041   6.688  1.00  0.00     0.255 C 
HETATM   33  N   UNL     1      43.707 -14.758   6.328  1.00  0.00    -0.323 N 
HETATM   34  H   UNL     1      43.432 -14.444   5.408  1.00  0.00     0.169 HD
HETATM   35  O   UNL     1      43.641 -16.646   7.702  1.00  0.00    -0.268 OA
BRANCH  33  36
HETATM   36  C   UNL     1      44.406 -13.803   7.090  1.00  0.00     0.035 A 
HETATM   37  C   UNL     1      45.783 -13.591   7.010  1.00  0.00     0.031 A 
HETATM   38  C   UNL     1      46.391 -12.618   7.812  1.00  0.00     0.026 A 
HETATM   39  C   UNL     1      45.627 -11.866   8.702  1.00  0.00     0.034 A 
HETATM   40 CL   UNL     1      46.380 -10.677   9.691  1.00  0.00    -0.084 Cl
HETATM   41  C   UNL     1      44.255 -12.072   8.795  1.00  0.00     0.026 A 
HETATM   42  C   UNL     1      43.647 -13.035   7.986  1.00  0.00     0.031 A 
ENDBRANCH  33  36
ENDBRANCH   5  32
TORSDOF 9
ENDMDL
MODEL 7
REMARK VINA RESULT:      -8.5      1.378      1.793
REMARK  9 active torsions:
REMARK  status: ('A' for Active; 'I' for Inactive)
REMARK    1  A    between atoms: C_2  and  O_3 
REMARK    2  A    between atoms: O_3  and  C_4 
REMARK    3  A    between atoms: C_7  and  N_8 
REMARK       I    between atoms: N_8  and  C_9 
REMARK    4  A    between atoms: C_9  and  C_10 
REMARK    5  A    between atoms: C_10  and  S_11 
REMARK    6  A    between atoms: S_11  and  C_12 
REMARK    7  A    between atoms: C_16  and  C_17 
REMARK       I    between atoms: C_17  and  N_18 
REMARK    8  A    between atoms: N_18  and  C_19 
REMARK    9  A    between atoms: C_27  and  C_28 
ROOT
HETATM    1  C   UNL     1      40.276 -11.484   4.404  1.00  0.00     0.087 C 
HETATM    2  N   UNL     1      40.096 -12.674   5.089  1.00  0.00    -0.353 N 
HETATM    3  C   UNL     1      40.732 -13.853   4.757  1.00  0.00     0.019 C 
HETATM    4  C   UNL     1      40.660 -14.950   5.791  1.00  0.00     0.069 C 
HETATM    5  C   UNL     1      41.389 -13.923   3.576  1.00  0.00     0.046 C 
HETATM    6  C   UNL     1      41.187 -12.839   2.509  1.00  0.00     0.104 C 
HETATM    7  C   UNL     1      40.728 -11.511   3.125  1.00  0.00     0.055 C 
HETATM    8  C   UNL     1      40.661 -10.273   2.246  1.00  0.00     0.019 C 
HETATM    9  N   UNL     1      40.606  -9.246   1.518  1.00  0.00    -0.096 N 
HETATM   10  H   UNL     1      39.739 -12.577   6.038  1.00  0.00     0.166 HD
ENDROOT
BRANCH   1  11
HETATM   11  S   UNL     1      40.057  -9.974   5.278  1.00  0.00    -0.102 SA
BRANCH  11  12
HETATM   12  C   UNL     1      40.021 -10.738   6.939  1.00  0.00     0.184 C 
BRANCH  12  13
HETATM   13  C   UNL     1      41.161 -10.319   7.839  1.00  0.00     0.231 C 
HETATM   14  N   UNL     1      41.127 -10.893   9.093  1.00  0.00    -0.327 N 
HETATM   15  H   UNL     1      40.583 -11.744   9.186  1.00  0.00     0.169 HD
HETATM   16  O   UNL     1      41.950  -9.457   7.457  1.00  0.00    -0.272 OA
BRANCH  14  17
HETATM   17  C   UNL     1      41.813 -10.446  10.240  1.00  0.00     0.034 A 
HETATM   18  C   UNL     1      41.552  -9.228  10.869  1.00  0.00     0.032 A 
HETATM   19  C   UNL     1      42.213  -8.888  12.052  1.00  0.00     0.039 A 
HETATM   20  C   UNL     1      43.145  -9.756  12.625  1.00  0.00     0.068 A 
HETATM   21  C   UNL     1      43.427 -10.962  11.986  1.00  0.00     0.039 A 
HETATM   22  C   UNL     1      42.758 -11.308  10.806  1.00  0.00     0.032 A 
BRANCH  20  23
HETATM   23  O   UNL     1      43.695  -9.312  13.792  1.00  0.00    -0.352 OA
BRANCH  23  24
HETATM   24  C   UNL     1      42.806  -8.739  14.750  1.00  0.00     0.171 C 
HETATM   25  C   UNL     1      42.016  -9.869  15.386  1.00  0.00     0.034 C 
ENDBRANCH  23  24
ENDBRANCH  20  23
ENDBRANCH  14  17
ENDBRANCH  12  13
ENDBRANCH  11  12
ENDBRANCH   1  11
BRANCH   6  26
HETATM   26  C   UNL     1      40.244 -13.322   1.409  1.00  0.00    -0.042 A 
HETATM   27  C   UNL     1      40.674 -13.508   0.088  1.00  0.00     0.027 A 
HETATM   28  C   UNL     1      39.756 -13.926  -0.864  1.00  0.00     0.116 A 
HETATM   29  N   UNL     1      38.453 -14.153  -0.603  1.00  0.00    -0.273 NA
HETATM   30  C   UNL     1      38.049 -13.949   0.668  1.00  0.00     0.116 A 
HETATM   31  C   UNL     1      38.891 -13.544   1.692  1.00  0.00     0.027 A 
ENDBRANCH   6  26
BRANCH   5  32
HETATM   32  C   UNL     1      42.438 -14.954   3.308  1.00  0.00     0.255 C 
HETATM   33  N   UNL     1      41.939 -16.239   3.443  1.00  0.00    -0.323 N 
HETATM   34  H   UNL     1      40.964 -16.323   3.694  1.00  0.00     0.169 HD
HETATM   35  O   UNL     1      43.600 -14.630   3.111  1.00  0.00    -0.268 OA
BRANCH  33  36
HETATM   36  C   UNL     1      42.603 -17.463   3.246  1.00  0.00     0.035 A 
HETATM   37  C   UNL     1      43.289 -18.153   4.245  1.00  0.00     0.031 A 
HETATM   38  C   UNL     1      43.924 -19.366   3.952  1.00  0.00     0.026 A 
HETATM   39  C   UNL     1      43.883 -19.884   2.659  1.00  0.00     0.034 A 
HETATM   40 CL   UNL     1      44.670 -21.371   2.301  1.00  0.00    -0.084 Cl
HETATM   41  C   UNL     1      43.207 -19.203   1.653  1.00  0.00     0.026 A 
HETATM   42  C   UNL     1      42.564 -17.998   1.949  1.00  0.00     0.031 A 
ENDBRANCH  33  36
ENDBRANCH   5  32
TORSDOF 9
ENDMDL
MODEL 8
REMARK VINA RESULT:      -8.4      5.041      9.498
REMARK  9 active torsions:
REMARK  status: ('A' for Active; 'I' for Inactive)
REMARK    1  A    between atoms: C_2  and  O_3 
REMARK    2  A    between atoms: O_3  and  C_4 
REMARK    3  A    between atoms: C_7  and  N_8 
REMARK       I    between atoms: N_8  and  C_9 
REMARK    4  A    between atoms: C_9  and  C_10 
REMARK    5  A    between atoms: C_10  and  S_11 
REMARK    6  A    between atoms: S_11  and  C_12 
REMARK    7  A    between atoms: C_16  and  C_17 
REMARK       I    between atoms: C_17  and  N_18 
REMARK    8  A    between atoms: N_18  and  C_19 
REMARK    9  A    between atoms: C_27  and  C_28 
ROOT
HETATM    1  C   UNL     1      40.416 -12.809   3.536  1.00  0.00     0.087 C 
HETATM    2  N   UNL     1      41.227 -13.172   2.475  1.00  0.00    -0.353 N 
HETATM    3  C   UNL     1      41.698 -14.454   2.273  1.00  0.00     0.019 C 
HETATM    4  C   UNL     1      42.297 -14.727   0.915  1.00  0.00     0.069 C 
HETATM    5  C   UNL     1      41.554 -15.360   3.269  1.00  0.00     0.046 C 
HETATM    6  C   UNL     1      41.156 -14.906   4.680  1.00  0.00     0.104 C 
HETATM    7  C   UNL     1      40.402 -13.570   4.659  1.00  0.00     0.055 C 
HETATM    8  C   UNL     1      39.765 -13.061   5.941  1.00  0.00     0.019 C 
HETATM    9  N   UNL     1      39.235 -12.639   7.004  1.00  0.00    -0.096 N 
HETATM   10  H   UNL     1      41.199 -12.545   1.673  1.00  0.00     0.166 HD
ENDROOT
BRANCH   1  11
HETATM   11  S   UNL     1      39.315 -11.455   3.322  1.00  0.00    -0.102 SA
BRANCH  11  12
HETATM   12  C   UNL     1      38.419 -12.182   1.903  1.00  0.00     0.184 C 
BRANCH  12  13
HETATM   13  C   UNL     1      38.829 -11.624   0.559  1.00  0.00     0.231 C 
HETATM   14  N   UNL     1      39.360 -12.563  -0.301  1.00  0.00    -0.327 N 
HETATM   15  H   UNL     1      39.132 -13.532  -0.108  1.00  0.00     0.169 HD
HETATM   16  O   UNL     1      38.766 -10.412   0.361  1.00  0.00    -0.272 OA
BRANCH  14  17
HETATM   17  C   UNL     1      40.141 -12.307  -1.446  1.00  0.00     0.034 A 
HETATM   18  C   UNL     1      39.620 -12.257  -2.740  1.00  0.00     0.032 A 
HETATM   19  C   UNL     1      40.440 -11.915  -3.818  1.00  0.00     0.039 A 
HETATM   20  C   UNL     1      41.790 -11.620  -3.623  1.00  0.00     0.068 A 
HETATM   21  C   UNL     1      42.320 -11.694  -2.336  1.00  0.00     0.039 A 
HETATM   22  C   UNL     1      41.497 -12.027  -1.253  1.00  0.00     0.032 A 
BRANCH  20  23
HETATM   23  O   UNL     1      42.468 -11.276  -4.758  1.00  0.00    -0.352 OA
BRANCH  23  24
HETATM   24  C   UNL     1      42.479  -9.894  -5.111  1.00  0.00     0.171 C 
HETATM   25  C   UNL     1      41.829  -9.757  -6.476  1.00  0.00     0.034 C 
ENDBRANCH  23  24
ENDBRANCH  20  23
ENDBRANCH  14  17
ENDBRANCH  12  13
ENDBRANCH  11  12
ENDBRANCH   1  11
BRANCH   6  26
HETATM   26  C   UNL     1      42.371 -14.869   5.606  1.00  0.00    -0.042 A 
HETATM   27  C   UNL     1      43.307 -13.827   5.565  1.00  0.00     0.027 A 
HETATM   28  C   UNL     1      44.400 -13.872   6.419  1.00  0.00     0.116 A 
HETATM   29  N   UNL     1      44.632 -14.876   7.288  1.00  0.00    -0.273 NA
HETATM   30  C   UNL     1      43.735 -15.882   7.301  1.00  0.00     0.116 A 
HETATM   31  C   UNL     1      42.607 -15.923   6.496  1.00  0.00     0.027 A 
ENDBRANCH   6  26
BRANCH   5  32
HETATM   32  C   UNL     1      41.625 -16.832   3.023  1.00  0.00     0.255 C 
HETATM   33  N   UNL     1      42.908 -17.320   3.206  1.00  0.00    -0.323 N 
HETATM   34  H   UNL     1      43.615 -16.650   3.475  1.00  0.00     0.169 HD
HETATM   35  O   UNL     1      40.654 -17.446   2.605  1.00  0.00    -0.268 OA
BRANCH  33  36
HETATM   36  C   UNL     1      43.366 -18.646   3.097  1.00  0.00     0.035 A 
HETATM   37  C   UNL     1      43.186 -19.449   1.971  1.00  0.00     0.031 A 
HETATM   38  C   UNL     1      43.676 -20.760   1.958  1.00  0.00     0.026 A 
HETATM   39  C   UNL     1      44.336 -21.274   3.072  1.00  0.00     0.034 A 
HETATM   40 CL   UNL     1      44.930 -22.888   3.054  1.00  0.00    -0.084 Cl
HETATM   41  C   UNL     1      44.517 -20.485   4.203  1.00  0.00     0.026 A 
HETATM   42  C   UNL     1      44.038 -19.173   4.211  1.00  0.00     0.031 A 
ENDBRANCH  33  36
ENDBRANCH   5  32
TORSDOF 9
ENDMDL
MODEL 9
REMARK VINA RESULT:      -8.2      4.763     10.554
REMARK  9 active torsions:
REMARK  status: ('A' for Active; 'I' for Inactive)
REMARK    1  A    between atoms: C_2  and  O_3 
REMARK    2  A    between atoms: O_3  and  C_4 
REMARK    3  A    between atoms: C_7  and  N_8 
REMARK       I    between atoms: N_8  and  C_9 
REMARK    4  A    between atoms: C_9  and  C_10 
REMARK    5  A    between atoms: C_10  and  S_11 
REMARK    6  A    between atoms: S_11  and  C_12 
REMARK    7  A    between atoms: C_16  and  C_17 
REMARK       I    between atoms: C_17  and  N_18 
REMARK    8  A    between atoms: N_18  and  C_19 
REMARK    9  A    between atoms: C_27  and  C_28 
ROOT
HETATM    1  C   UNL     1      41.278 -17.142   3.133  1.00  0.00     0.087 C 
HETATM    2  N   UNL     1      40.619 -17.071   4.348  1.00  0.00    -0.353 N 
HETATM    3  C   UNL     1      41.247 -16.790   5.545  1.00  0.00     0.019 C 
HETATM    4  C   UNL     1      40.337 -16.447   6.698  1.00  0.00     0.069 C 
HETATM    5  C   UNL     1      42.600 -16.804   5.584  1.00  0.00     0.046 C 
HETATM    6  C   UNL     1      43.405 -17.402   4.423  1.00  0.00     0.104 C 
HETATM    7  C   UNL     1      42.613 -17.378   3.108  1.00  0.00     0.055 C 
HETATM    8  C   UNL     1      43.318 -17.753   1.815  1.00  0.00     0.019 C 
HETATM    9  N   UNL     1      43.902 -18.064   0.742  1.00  0.00    -0.096 N 
HETATM   10  H   UNL     1      39.616 -16.908   4.289  1.00  0.00     0.166 HD
ENDROOT
BRANCH   1  11
HETATM   11  S   UNL     1      40.377 -16.767   1.670  1.00  0.00    -0.102 SA
BRANCH  11  12
HETATM   12  C   UNL     1      39.763 -15.147   2.255  1.00  0.00     0.184 C 
BRANCH  12  13
HETATM   13  C   UNL     1      39.824 -14.049   1.218  1.00  0.00     0.231 C 
HETATM   14  N   UNL     1      39.587 -14.480  -0.071  1.00  0.00    -0.327 N 
HETATM   15  H   UNL     1      39.091 -15.359  -0.170  1.00  0.00     0.169 HD
HETATM   16  O   UNL     1      40.166 -12.917   1.553  1.00  0.00    -0.272 OA
BRANCH  14  17
HETATM   17  C   UNL     1      39.918 -13.798  -1.259  1.00  0.00     0.034 A 
HETATM   18  C   UNL     1      39.079 -12.869  -1.875  1.00  0.00     0.032 A 
HETATM   19  C   UNL     1      39.509 -12.170  -3.006  1.00  0.00     0.039 A 
HETATM   20  C   UNL     1      40.780 -12.386  -3.539  1.00  0.00     0.068 A 
HETATM   21  C   UNL     1      41.612 -13.331  -2.942  1.00  0.00     0.039 A 
HETATM   22  C   UNL     1      41.186 -14.026  -1.803  1.00  0.00     0.032 A 
BRANCH  20  23
HETATM   23  O   UNL     1      41.081 -11.617  -4.627  1.00  0.00    -0.352 OA
BRANCH  23  24
HETATM   24  C   UNL     1      42.391 -11.055  -4.679  1.00  0.00     0.171 C 
HETATM   25  C   UNL     1      42.405  -9.825  -3.789  1.00  0.00     0.034 C 
ENDBRANCH  23  24
ENDBRANCH  20  23
ENDBRANCH  14  17
ENDBRANCH  12  13
ENDBRANCH  11  12
ENDBRANCH   1  11
BRANCH   6  26
HETATM   26  C   UNL     1      43.908 -18.802   4.769  1.00  0.00    -0.042 A 
HETATM   27  C   UNL     1      44.772 -19.513   3.925  1.00  0.00     0.027 A 
HETATM   28  C   UNL     1      45.168 -20.791   4.292  1.00  0.00     0.116 A 
HETATM   29  N   UNL     1      44.759 -21.410   5.418  1.00  0.00    -0.273 NA
HETATM   30  C   UNL     1      43.911 -20.722   6.210  1.00  0.00     0.116 A 
HETATM   31  C   UNL     1      43.467 -19.437   5.936  1.00  0.00     0.027 A 
ENDBRANCH   6  26
BRANCH   5  32
HETATM   32  C   UNL     1      43.373 -16.119   6.665  1.00  0.00     0.255 C 
HETATM   33  N   UNL     1      43.721 -14.827   6.303  1.00  0.00    -0.323 N 
HETATM   34  H   UNL     1      43.422 -14.516   5.390  1.00  0.00     0.169 HD
HETATM   35  O   UNL     1      43.716 -16.722   7.671  1.00  0.00    -0.268 OA
BRANCH  33  36
HETATM   36  C   UNL     1      44.418 -13.864   7.055  1.00  0.00     0.035 A 
HETATM   37  C   UNL     1      45.780 -13.596   6.917  1.00  0.00     0.031 A 
HETATM   38  C   UNL     1      46.388 -12.618   7.714  1.00  0.00     0.026 A 
HETATM   39  C   UNL     1      45.638 -11.916   8.656  1.00  0.00     0.034 A 
HETATM   40 CL   UNL     1      46.391 -10.721   9.638  1.00  0.00    -0.084 Cl
HETATM   41  C   UNL     1      44.281 -12.179   8.807  1.00  0.00     0.026 A 
HETATM   42  C   UNL     1      43.673 -13.146   8.003  1.00  0.00     0.031 A 
ENDBRANCH  33  36
ENDBRANCH   5  32
TORSDOF 9
ENDMDL
MODEL 10
REMARK VINA RESULT:      -8.1      4.623     10.115
REMARK  9 active torsions:
REMARK  status: ('A' for Active; 'I' for Inactive)
REMARK    1  A    between atoms: C_2  and  O_3 
REMARK    2  A    between atoms: O_3  and  C_4 
REMARK    3  A    between atoms: C_7  and  N_8 
REMARK       I    between atoms: N_8  and  C_9 
REMARK    4  A    between atoms: C_9  and  C_10 
REMARK    5  A    between atoms: C_10  and  S_11 
REMARK    6  A    between atoms: S_11  and  C_12 
REMARK    7  A    between atoms: C_16  and  C_17 
REMARK       I    between atoms: C_17  and  N_18 
REMARK    8  A    between atoms: N_18  and  C_19 
REMARK    9  A    between atoms: C_27  and  C_28 
ROOT
HETATM    1  C   UNL     1      41.426 -17.037   2.678  1.00  0.00     0.087 C 
HETATM    2  N   UNL     1      40.712 -16.177   3.495  1.00  0.00    -0.353 N 
HETATM    3  C   UNL     1      41.300 -15.277   4.361  1.00  0.00     0.019 C 
HETATM    4  C   UNL     1      40.385 -14.220   4.929  1.00  0.00     0.069 C 
HETATM    5  C   UNL     1      42.628 -15.382   4.599  1.00  0.00     0.046 C 
HETATM    6  C   UNL     1      43.399 -16.635   4.162  1.00  0.00     0.104 C 
HETATM    7  C   UNL     1      42.706 -17.354   2.997  1.00  0.00     0.055 C 
HETATM    8  C   UNL     1      43.422 -18.503   2.308  1.00  0.00     0.019 C 
HETATM    9  N   UNL     1      44.016 -19.457   1.736  1.00  0.00    -0.096 N 
HETATM   10  H   UNL     1      39.753 -15.999   3.203  1.00  0.00     0.166 HD
ENDROOT
BRANCH   1  11
HETATM   11  S   UNL     1      40.691 -17.562   1.170  1.00  0.00    -0.102 SA
BRANCH  11  12
HETATM   12  C   UNL     1      41.232 -16.111   0.199  1.00  0.00     0.184 C 
BRANCH  12  13
HETATM   13  C   UNL     1      40.474 -14.839   0.508  1.00  0.00     0.231 C 
HETATM   14  N   UNL     1      39.231 -14.767  -0.086  1.00  0.00    -0.327 N 
HETATM   15  H   UNL     1      38.817 -15.647  -0.374  1.00  0.00     0.169 HD
HETATM   16  O   UNL     1      41.025 -13.947   1.150  1.00  0.00    -0.272 OA
BRANCH  14  17
HETATM   17  C   UNL     1      38.461 -13.604  -0.283  1.00  0.00     0.034 A 
HETATM   18  C   UNL     1      38.495 -12.845  -1.454  1.00  0.00     0.032 A 
HETATM   19  C   UNL     1      37.640 -11.751  -1.610  1.00  0.00     0.039 A 
HETATM   20  C   UNL     1      36.741 -11.396  -0.604  1.00  0.00     0.068 A 
HETATM   21  C   UNL     1      36.722 -12.136   0.577  1.00  0.00     0.039 A 
HETATM   22  C   UNL     1      37.571 -13.239   0.732  1.00  0.00     0.032 A 
BRANCH  20  23
HETATM   23  O   UNL     1      35.948 -10.325  -0.900  1.00  0.00    -0.352 OA
BRANCH  23  24
HETATM   24  C   UNL     1      34.961 -10.511  -1.912  1.00  0.00     0.171 C 
HETATM   25  C   UNL     1      33.627 -10.740  -1.225  1.00  0.00     0.034 C 
ENDBRANCH  23  24
ENDBRANCH  20  23
ENDBRANCH  14  17
ENDBRANCH  12  13
ENDBRANCH  11  12
ENDBRANCH   1  11
BRANCH   6  26
HETATM   26  C   UNL     1      43.651 -17.564   5.348  1.00  0.00    -0.042 A 
HETATM   27  C   UNL     1      42.726 -18.544   5.735  1.00  0.00     0.027 A 
HETATM   28  C   UNL     1      43.010 -19.336   6.838  1.00  0.00     0.116 A 
HETATM   29  N   UNL     1      44.128 -19.214   7.583  1.00  0.00    -0.273 NA
HETATM   30  C   UNL     1      44.998 -18.253   7.211  1.00  0.00     0.116 A 
HETATM   31  C   UNL     1      44.810 -17.419   6.119  1.00  0.00     0.027 A 
ENDBRANCH   6  26
BRANCH   5  32
HETATM   32  C   UNL     1      43.430 -14.248   5.152  1.00  0.00     0.255 C 
HETATM   33  N   UNL     1      43.393 -14.223   6.537  1.00  0.00    -0.323 N 
HETATM   34  H   UNL     1      42.852 -14.946   6.989  1.00  0.00     0.169 HD
HETATM   35  O   UNL     1      43.937 -13.418   4.412  1.00  0.00    -0.268 OA
BRANCH  33  36
HETATM   36  C   UNL     1      44.040 -13.335   7.415  1.00  0.00     0.035 A 
HETATM   37  C   UNL     1      45.406 -13.365   7.696  1.00  0.00     0.031 A 
HETATM   38  C   UNL     1      45.960 -12.440   8.589  1.00  0.00     0.026 A 
HETATM   39  C   UNL     1      45.148 -11.492   9.210  1.00  0.00     0.034 A 
HETATM   40 CL   UNL     1      45.831 -10.362  10.312  1.00  0.00    -0.084 Cl
HETATM   41  C   UNL     1      43.784 -11.456   8.942  1.00  0.00     0.026 A 
HETATM   42  C   UNL     1      43.234 -12.373   8.043  1.00  0.00     0.031 A 
ENDBRANCH  33  36
ENDBRANCH   5  32
TORSDOF 9
ENDMDL
