MODEL 1
REMARK VINA RESULT:      -9.5      0.000      0.000
REMARK  4 active torsions:
REMARK  status: ('A' for Active; 'I' for Inactive)
REMARK    1  A    between atoms: C_8  and  C_9 
REMARK    2  A    between atoms: N_10  and  N_11 
REMARK       I    between atoms: N_11  and  C_12 
REMARK    3  A    between atoms: C_12  and  C_13 
REMARK    4  A    between atoms: C_17  and  C_18 
ROOT
HETATM    1  N   UNL     1      43.862 -13.980   7.103  1.00  0.00    -0.242 N 
HETATM    2  C   UNL     1      45.010 -13.270   7.420  1.00  0.00     0.292 C 
HETATM    3  O   UNL     1      46.036 -13.233   6.745  1.00  0.00    -0.264 OA
HETATM    4  H   UNL     1      43.081 -13.919   7.751  1.00  0.00     0.192 HD
ENDROOT
BRANCH   2   5
HETATM    5  C   UNL     1      44.884 -12.527   8.684  1.00  0.00     0.148 A 
HETATM    6  N   UNL     1      45.786 -12.621   9.682  1.00  0.00    -0.169 NA
HETATM    7  N   UNL     1      45.297 -11.799  10.633  1.00  0.00    -0.277 N 
HETATM    8  H   UNL     1      45.807 -11.720  11.506  1.00  0.00     0.189 HD
HETATM    9  C   UNL     1      44.124 -11.172  10.297  1.00  0.00     0.063 A 
HETATM   10  C   UNL     1      43.836 -11.638   9.031  1.00  0.00     0.071 A 
BRANCH   9  11
HETATM   11  C   UNL     1      43.398 -10.247  11.168  1.00  0.00    -0.005 A 
HETATM   12  C   UNL     1      42.299  -9.512  10.697  1.00  0.00     0.053 A 
HETATM   13  C   UNL     1      41.648  -8.671  11.579  1.00  0.00     0.106 A 
HETATM   14  C   UNL     1      42.046  -8.538  12.888  1.00  0.00     0.105 A 
HETATM   15  O   UNL     1      40.567  -7.899  11.287  1.00  0.00    -0.323 OA
HETATM   16  O   UNL     1      41.269  -7.667  13.583  1.00  0.00    -0.323 OA
HETATM   17  C   UNL     1      43.119  -9.239  13.390  1.00  0.00     0.040 A 
HETATM   18  C   UNL     1      40.323  -7.277  12.567  1.00  0.00     0.352 A 
HETATM   19  C   UNL     1      43.795 -10.100  12.519  1.00  0.00     0.017 A 
ENDBRANCH   9  11
ENDBRANCH   2   5
BRANCH   1  20
HETATM   20  N   UNL     1      43.799 -14.717   5.959  1.00  0.00    -0.183 NA
HETATM   21  C   UNL     1      43.146 -15.831   6.030  1.00  0.00     0.152 C 
BRANCH  21  22
HETATM   22  C   UNL     1      43.043 -16.657   4.843  1.00  0.00     0.011 A 
HETATM   23  C   UNL     1      43.686 -17.909   4.581  1.00  0.00     0.004 A 
HETATM   24  C   UNL     1      44.574 -18.735   5.304  1.00  0.00     0.014 A 
HETATM   25  C   UNL     1      43.285 -18.327   3.309  1.00  0.00     0.043 A 
HETATM   26  C   UNL     1      45.022 -19.934   4.735  1.00  0.00     0.001 A 
HETATM   27  C   UNL     1      44.602 -20.319   3.464  1.00  0.00     0.002 A 
HETATM   28  C   UNL     1      43.724 -19.522   2.726  1.00  0.00     0.030 A 
HETATM   29  N   UNL     1      42.433 -17.366   2.816  1.00  0.00    -0.364 N 
HETATM   30  H   UNL     1      41.985 -17.403   1.910  1.00  0.00     0.165 HD
HETATM   31  C   UNL     1      42.280 -16.362   3.727  1.00  0.00     0.102 A 
ENDBRANCH  21  22
ENDBRANCH   1  20
TORSDOF 4
ENDMDL
MODEL 2
REMARK VINA RESULT:      -9.5      1.290      1.900
REMARK  4 active torsions:
REMARK  status: ('A' for Active; 'I' for Inactive)
REMARK    1  A    between atoms: C_8  and  C_9 
REMARK    2  A    between atoms: N_10  and  N_11 
REMARK       I    between atoms: N_11  and  C_12 
REMARK    3  A    between atoms: C_12  and  C_13 
REMARK    4  A    between atoms: C_17  and  C_18 
ROOT
HETATM    1  N   UNL     1      44.426 -13.824   7.741  1.00  0.00    -0.242 N 
HETATM    2  C   UNL     1      45.457 -12.911   7.901  1.00  0.00     0.292 C 
HETATM    3  O   UNL     1      46.519 -12.916   7.284  1.00  0.00    -0.264 OA
HETATM    4  H   UNL     1      43.597 -13.699   8.317  1.00  0.00     0.192 HD
ENDROOT
BRANCH   2   5
HETATM    5  C   UNL     1      45.152 -11.887   8.914  1.00  0.00     0.148 A 
HETATM    6  N   UNL     1      46.019 -10.912   9.255  1.00  0.00    -0.169 NA
HETATM    7  N   UNL     1      45.357 -10.212  10.198  1.00  0.00    -0.277 N 
HETATM    8  H   UNL     1      45.829  -9.422  10.628  1.00  0.00     0.189 HD
HETATM    9  C   UNL     1      44.100 -10.681  10.481  1.00  0.00     0.063 A 
HETATM   10  C   UNL     1      43.950 -11.777   9.656  1.00  0.00     0.071 A 
BRANCH   9  11
HETATM   11  C   UNL     1      43.198 -10.095  11.474  1.00  0.00    -0.005 A 
HETATM   12  C   UNL     1      41.896  -9.700  11.133  1.00  0.00     0.053 A 
HETATM   13  C   UNL     1      41.092  -9.172  12.125  1.00  0.00     0.106 A 
HETATM   14  C   UNL     1      41.531  -9.026  13.419  1.00  0.00     0.105 A 
HETATM   15  O   UNL     1      39.809  -8.751  11.965  1.00  0.00    -0.323 OA
HETATM   16  O   UNL     1      40.584  -8.494  14.234  1.00  0.00    -0.323 OA
HETATM   17  C   UNL     1      42.802  -9.399  13.795  1.00  0.00     0.040 A 
HETATM   18  C   UNL     1      39.489  -8.336  13.310  1.00  0.00     0.352 A 
HETATM   19  C   UNL     1      43.637  -9.939  12.810  1.00  0.00     0.017 A 
ENDBRANCH   9  11
ENDBRANCH   2   5
BRANCH   1  20
HETATM   20  N   UNL     1      44.534 -14.836   6.835  1.00  0.00    -0.183 NA
HETATM   21  C   UNL     1      44.184 -16.012   7.244  1.00  0.00     0.152 C 
BRANCH  21  22
HETATM   22  C   UNL     1      44.275 -17.127   6.323  1.00  0.00     0.011 A 
HETATM   23  C   UNL     1      43.598 -17.297   5.073  1.00  0.00     0.004 A 
HETATM   24  C   UNL     1      42.677 -16.523   4.334  1.00  0.00     0.014 A 
HETATM   25  C   UNL     1      44.002 -18.525   4.543  1.00  0.00     0.043 A 
HETATM   26  C   UNL     1      42.200 -17.001   3.107  1.00  0.00     0.001 A 
HETATM   27  C   UNL     1      42.623 -18.230   2.609  1.00  0.00     0.002 A 
HETATM   28  C   UNL     1      43.534 -19.017   3.318  1.00  0.00     0.030 A 
HETATM   29  N   UNL     1      44.888 -19.082   5.436  1.00  0.00    -0.364 N 
HETATM   30  H   UNL     1      45.345 -19.975   5.312  1.00  0.00     0.165 HD
HETATM   31  C   UNL     1      45.060 -18.252   6.505  1.00  0.00     0.102 A 
ENDBRANCH  21  22
ENDBRANCH   1  20
TORSDOF 4
ENDMDL
MODEL 3
REMARK VINA RESULT:      -8.9      8.239     11.194
REMARK  4 active torsions:
REMARK  status: ('A' for Active; 'I' for Inactive)
REMARK    1  A    between atoms: C_8  and  C_9 
REMARK    2  A    between atoms: N_10  and  N_11 
REMARK       I    between atoms: N_11  and  C_12 
REMARK    3  A    between atoms: C_12  and  C_13 
REMARK    4  A    between atoms: C_17  and  C_18 
ROOT
HETATM    1  N   UNL     1      42.567 -16.849   0.470  1.00  0.00    -0.242 N 
HETATM    2  C   UNL     1      41.425 -16.067   0.397  1.00  0.00     0.292 C 
HETATM    3  O   UNL     1      40.503 -16.072   1.210  1.00  0.00    -0.264 OA
HETATM    4  H   UNL     1      43.255 -16.741  -0.271  1.00  0.00     0.192 HD
ENDROOT
BRANCH   2   5
HETATM    5  C   UNL     1      41.415 -15.190  -0.784  1.00  0.00     0.148 A 
HETATM    6  N   UNL     1      40.965 -15.590  -1.991  1.00  0.00    -0.169 NA
HETATM    7  N   UNL     1      41.135 -14.504  -2.771  1.00  0.00    -0.277 N 
HETATM    8  H   UNL     1      40.879 -14.573  -3.751  1.00  0.00     0.189 HD
HETATM    9  C   UNL     1      41.667 -13.416  -2.128  1.00  0.00     0.063 A 
HETATM   10  C   UNL     1      41.862 -13.846  -0.831  1.00  0.00     0.071 A 
BRANCH   9  11
HETATM   11  C   UNL     1      41.954 -12.131  -2.767  1.00  0.00    -0.005 A 
HETATM   12  C   UNL     1      41.748 -11.937  -4.141  1.00  0.00     0.053 A 
HETATM   13  C   UNL     1      42.022 -10.692  -4.674  1.00  0.00     0.106 A 
HETATM   14  C   UNL     1      42.486  -9.654  -3.902  1.00  0.00     0.105 A 
HETATM   15  O   UNL     1      41.869 -10.337  -5.978  1.00  0.00    -0.323 OA
HETATM   16  O   UNL     1      42.686  -8.519  -4.620  1.00  0.00    -0.323 OA
HETATM   17  C   UNL     1      42.704  -9.802  -2.551  1.00  0.00     0.040 A 
HETATM   18  C   UNL     1      42.277  -8.953  -5.933  1.00  0.00     0.352 A 
HETATM   19  C   UNL     1      42.432 -11.053  -1.984  1.00  0.00     0.017 A 
ENDBRANCH   9  11
ENDBRANCH   2   5
BRANCH   1  20
HETATM   20  N   UNL     1      42.748 -17.714   1.508  1.00  0.00    -0.183 NA
HETATM   21  C   UNL     1      43.833 -17.565   2.195  1.00  0.00     0.152 C 
BRANCH  21  22
HETATM   22  C   UNL     1      44.079 -18.455   3.313  1.00  0.00     0.011 A 
HETATM   23  C   UNL     1      44.256 -19.876   3.287  1.00  0.00     0.004 A 
HETATM   24  C   UNL     1      44.261 -20.853   2.268  1.00  0.00     0.014 A 
HETATM   25  C   UNL     1      44.466 -20.294   4.603  1.00  0.00     0.043 A 
HETATM   26  C   UNL     1      44.473 -22.197   2.601  1.00  0.00     0.001 A 
HETATM   27  C   UNL     1      44.679 -22.579   3.923  1.00  0.00     0.002 A 
HETATM   28  C   UNL     1      44.679 -21.634   4.953  1.00  0.00     0.030 A 
HETATM   29  N   UNL     1      44.416 -19.173   5.399  1.00  0.00    -0.364 N 
HETATM   30  H   UNL     1      44.536 -19.174   6.403  1.00  0.00     0.165 HD
HETATM   31  C   UNL     1      44.186 -18.066   4.636  1.00  0.00     0.102 A 
ENDBRANCH  21  22
ENDBRANCH   1  20
TORSDOF 4
ENDMDL
MODEL 4
REMARK VINA RESULT:      -8.9      8.269     12.500
REMARK  4 active torsions:
REMARK  status: ('A' for Active; 'I' for Inactive)
REMARK    1  A    between atoms: C_8  and  C_9 
REMARK    2  A    between atoms: N_10  and  N_11 
REMARK       I    between atoms: N_11  and  C_12 
REMARK    3  A    between atoms: C_12  and  C_13 
REMARK    4  A    between atoms: C_17  and  C_18 
ROOT
HETATM    1  N   UNL     1      41.324 -16.261  -0.568  1.00  0.00    -0.242 N 
HETATM    2  C   UNL     1      41.248 -14.950  -1.013  1.00  0.00     0.292 C 
HETATM    3  O   UNL     1      41.901 -14.007  -0.573  1.00  0.00    -0.264 OA
HETATM    4  H   UNL     1      40.727 -16.945  -1.026  1.00  0.00     0.192 HD
ENDROOT
BRANCH   2   5
HETATM    5  C   UNL     1      40.281 -14.781  -2.109  1.00  0.00     0.148 A 
HETATM    6  N   UNL     1      40.485 -15.268  -3.350  1.00  0.00    -0.169 NA
HETATM    7  N   UNL     1      39.381 -14.894  -4.027  1.00  0.00    -0.277 N 
HETATM    8  H   UNL     1      39.317 -15.137  -5.010  1.00  0.00     0.189 HD
HETATM    9  C   UNL     1      38.466 -14.192  -3.284  1.00  0.00     0.063 A 
HETATM   10  C   UNL     1      39.038 -14.104  -2.031  1.00  0.00     0.071 A 
BRANCH   9  11
HETATM   11  C   UNL     1      37.200 -13.671  -3.800  1.00  0.00    -0.005 A 
HETATM   12  C   UNL     1      36.824 -12.335  -3.597  1.00  0.00     0.053 A 
HETATM   13  C   UNL     1      35.623 -11.905  -4.129  1.00  0.00     0.106 A 
HETATM   14  C   UNL     1      34.800 -12.743  -4.842  1.00  0.00     0.105 A 
HETATM   15  O   UNL     1      35.118 -10.646  -4.030  1.00  0.00    -0.323 OA
HETATM   16  O   UNL     1      33.675 -12.121  -5.279  1.00  0.00    -0.323 OA
HETATM   17  C   UNL     1      35.130 -14.061  -5.063  1.00  0.00     0.040 A 
HETATM   18  C   UNL     1      33.890 -10.787  -4.775  1.00  0.00     0.352 A 
HETATM   19  C   UNL     1      36.343 -14.523  -4.537  1.00  0.00     0.017 A 
ENDBRANCH   9  11
ENDBRANCH   2   5
BRANCH   1  20
HETATM   20  N   UNL     1      42.179 -16.601   0.437  1.00  0.00    -0.183 NA
HETATM   21  C   UNL     1      41.745 -17.473   1.288  1.00  0.00     0.152 C 
BRANCH  21  22
HETATM   22  C   UNL     1      42.612 -17.875   2.378  1.00  0.00     0.011 A 
HETATM   23  C   UNL     1      43.273 -19.132   2.563  1.00  0.00     0.004 A 
HETATM   24  C   UNL     1      43.329 -20.336   1.828  1.00  0.00     0.014 A 
HETATM   25  C   UNL     1      43.997 -19.051   3.755  1.00  0.00     0.043 A 
HETATM   26  C   UNL     1      44.098 -21.404   2.309  1.00  0.00     0.001 A 
HETATM   27  C   UNL     1      44.807 -21.289   3.502  1.00  0.00     0.002 A 
HETATM   28  C   UNL     1      44.770 -20.109   4.249  1.00  0.00     0.030 A 
HETATM   29  N   UNL     1      43.783 -17.797   4.277  1.00  0.00    -0.364 N 
HETATM   30  H   UNL     1      44.185 -17.456   5.140  1.00  0.00     0.165 HD
HETATM   31  C   UNL     1      42.956 -17.083   3.459  1.00  0.00     0.102 A 
ENDBRANCH  21  22
ENDBRANCH   1  20
TORSDOF 4
ENDMDL
MODEL 5
REMARK VINA RESULT:      -8.7      3.131     11.004
REMARK  4 active torsions:
REMARK  status: ('A' for Active; 'I' for Inactive)
REMARK    1  A    between atoms: C_8  and  C_9 
REMARK    2  A    between atoms: N_10  and  N_11 
REMARK       I    between atoms: N_11  and  C_12 
REMARK    3  A    between atoms: C_12  and  C_13 
REMARK    4  A    between atoms: C_17  and  C_18 
ROOT
HETATM    1  N   UNL     1      42.439 -12.183   6.635  1.00  0.00    -0.242 N 
HETATM    2  C   UNL     1      41.584 -12.952   5.860  1.00  0.00     0.292 C 
HETATM    3  O   UNL     1      40.360 -12.849   5.829  1.00  0.00    -0.264 OA
HETATM    4  H   UNL     1      43.436 -12.372   6.559  1.00  0.00     0.192 HD
ENDROOT
BRANCH   2   5
HETATM    5  C   UNL     1      42.302 -13.940   5.038  1.00  0.00     0.148 A 
HETATM    6  N   UNL     1      42.979 -13.610   3.919  1.00  0.00    -0.169 NA
HETATM    7  N   UNL     1      43.471 -14.788   3.485  1.00  0.00    -0.277 N 
HETATM    8  H   UNL     1      44.011 -14.793   2.626  1.00  0.00     0.189 HD
HETATM    9  C   UNL     1      43.151 -15.865   4.271  1.00  0.00     0.063 A 
HETATM   10  C   UNL     1      42.384 -15.333   5.287  1.00  0.00     0.071 A 
BRANCH   9  11
HETATM   11  C   UNL     1      43.559 -17.244   3.997  1.00  0.00    -0.005 A 
HETATM   12  C   UNL     1      43.927 -18.115   5.033  1.00  0.00     0.053 A 
HETATM   13  C   UNL     1      44.282 -19.409   4.705  1.00  0.00     0.106 A 
HETATM   14  C   UNL     1      44.285 -19.857   3.405  1.00  0.00     0.105 A 
HETATM   15  O   UNL     1      44.655 -20.377   5.585  1.00  0.00    -0.323 OA
HETATM   16  O   UNL     1      44.661 -21.158   3.303  1.00  0.00    -0.323 OA
HETATM   17  C   UNL     1      43.933 -19.035   2.359  1.00  0.00     0.040 A 
HETATM   18  C   UNL     1      44.878 -21.487   4.690  1.00  0.00     0.352 A 
HETATM   19  C   UNL     1      43.565 -17.719   2.664  1.00  0.00     0.017 A 
ENDBRANCH   9  11
ENDBRANCH   2   5
BRANCH   1  20
HETATM   20  N   UNL     1      41.945 -11.209   7.450  1.00  0.00    -0.183 NA
HETATM   21  C   UNL     1      42.588 -11.005   8.554  1.00  0.00     0.152 C 
BRANCH  21  22
HETATM   22  C   UNL     1      42.110  -9.981   9.460  1.00  0.00     0.011 A 
HETATM   23  C   UNL     1      42.518  -9.737  10.811  1.00  0.00     0.004 A 
HETATM   24  C   UNL     1      43.448 -10.339  11.687  1.00  0.00     0.014 A 
HETATM   25  C   UNL     1      41.782  -8.646  11.279  1.00  0.00     0.043 A 
HETATM   26  C   UNL     1      43.604  -9.832  12.983  1.00  0.00     0.001 A 
HETATM   27  C   UNL     1      42.853  -8.743  13.417  1.00  0.00     0.002 A 
HETATM   28  C   UNL     1      41.926  -8.128  12.572  1.00  0.00     0.030 A 
HETATM   29  N   UNL     1      40.956  -8.242  10.255  1.00  0.00    -0.364 N 
HETATM   30  H   UNL     1      40.307  -7.470  10.310  1.00  0.00     0.165 HD
HETATM   31  C   UNL     1      41.146  -9.035   9.161  1.00  0.00     0.102 A 
ENDBRANCH  21  22
ENDBRANCH   1  20
TORSDOF 4
ENDMDL
MODEL 6
REMARK VINA RESULT:      -8.7      9.053     12.401
REMARK  4 active torsions:
REMARK  status: ('A' for Active; 'I' for Inactive)
REMARK    1  A    between atoms: C_8  and  C_9 
REMARK    2  A    between atoms: N_10  and  N_11 
REMARK       I    between atoms: N_11  and  C_12 
REMARK    3  A    between atoms: C_12  and  C_13 
REMARK    4  A    between atoms: C_17  and  C_18 
ROOT
HETATM    1  N   UNL     1      41.672 -15.159  -0.941  1.00  0.00    -0.242 N 
HETATM    2  C   UNL     1      41.238 -15.502   0.331  1.00  0.00     0.292 C 
HETATM    3  O   UNL     1      40.167 -15.170   0.834  1.00  0.00    -0.264 OA
HETATM    4  H   UNL     1      42.582 -15.507  -1.233  1.00  0.00     0.192 HD
ENDROOT
BRANCH   2   5
HETATM    5  C   UNL     1      42.209 -16.340   1.053  1.00  0.00     0.148 A 
HETATM    6  N   UNL     1      43.337 -15.846   1.603  1.00  0.00    -0.169 NA
HETATM    7  N   UNL     1      43.926 -16.929   2.149  1.00  0.00    -0.277 N 
HETATM    8  H   UNL     1      44.821 -16.804   2.613  1.00  0.00     0.189 HD
HETATM    9  C   UNL     1      43.233 -18.100   1.985  1.00  0.00     0.063 A 
HETATM   10  C   UNL     1      42.111 -17.737   1.268  1.00  0.00     0.071 A 
BRANCH   9  11
HETATM   11  C   UNL     1      43.676 -19.405   2.478  1.00  0.00    -0.005 A 
HETATM   12  C   UNL     1      44.124 -19.573   3.797  1.00  0.00     0.053 A 
HETATM   13  C   UNL     1      44.511 -20.837   4.201  1.00  0.00     0.106 A 
HETATM   14  C   UNL     1      44.468 -21.918   3.353  1.00  0.00     0.105 A 
HETATM   15  O   UNL     1      44.959 -21.170   5.440  1.00  0.00    -0.323 OA
HETATM   16  O   UNL     1      44.885 -23.065   3.949  1.00  0.00    -0.323 OA
HETATM   17  C   UNL     1      44.037 -21.796   2.051  1.00  0.00     0.040 A 
HETATM   18  C   UNL     1      45.180 -22.588   5.278  1.00  0.00     0.352 A 
HETATM   19  C   UNL     1      43.638 -20.527   1.616  1.00  0.00     0.017 A 
ENDBRANCH   9  11
ENDBRANCH   2   5
BRANCH   1  20
HETATM   20  N   UNL     1      40.892 -14.394  -1.754  1.00  0.00    -0.183 NA
HETATM   21  C   UNL     1      41.491 -13.447  -2.399  1.00  0.00     0.152 C 
BRANCH  21  22
HETATM   22  C   UNL     1      40.712 -12.602  -3.282  1.00  0.00     0.011 A 
HETATM   23  C   UNL     1      41.177 -11.543  -4.127  1.00  0.00     0.004 A 
HETATM   24  C   UNL     1      42.441 -10.975  -4.396  1.00  0.00     0.014 A 
HETATM   25  C   UNL     1      40.063 -11.019  -4.789  1.00  0.00     0.043 A 
HETATM   26  C   UNL     1      42.543  -9.917  -5.308  1.00  0.00     0.001 A 
HETATM   27  C   UNL     1      41.413  -9.419  -5.950  1.00  0.00     0.002 A 
HETATM   28  C   UNL     1      40.149  -9.961  -5.703  1.00  0.00     0.030 A 
HETATM   29  N   UNL     1      38.965 -11.729  -4.364  1.00  0.00    -0.364 N 
HETATM   30  H   UNL     1      38.018 -11.568  -4.678  1.00  0.00     0.165 HD
HETATM   31  C   UNL     1      39.343 -12.681  -3.461  1.00  0.00     0.102 A 
ENDBRANCH  21  22
ENDBRANCH   1  20
TORSDOF 4
ENDMDL
MODEL 7
REMARK VINA RESULT:      -8.7      2.863     10.795
REMARK  4 active torsions:
REMARK  status: ('A' for Active; 'I' for Inactive)
REMARK    1  A    between atoms: C_8  and  C_9 
REMARK    2  A    between atoms: N_10  and  N_11 
REMARK       I    between atoms: N_11  and  C_12 
REMARK    3  A    between atoms: C_12  and  C_13 
REMARK    4  A    between atoms: C_17  and  C_18 
ROOT
HETATM    1  N   UNL     1      43.171 -12.065   7.997  1.00  0.00    -0.242 N 
HETATM    2  C   UNL     1      44.344 -12.804   7.961  1.00  0.00     0.292 C 
HETATM    3  O   UNL     1      45.386 -12.520   8.546  1.00  0.00    -0.264 OA
HETATM    4  H   UNL     1      42.379 -12.420   7.468  1.00  0.00     0.192 HD
ENDROOT
BRANCH   2   5
HETATM    5  C   UNL     1      44.224 -14.014   7.132  1.00  0.00     0.148 A 
HETATM    6  N   UNL     1      43.977 -13.973   5.806  1.00  0.00    -0.169 NA
HETATM    7  N   UNL     1      43.942 -15.272   5.448  1.00  0.00    -0.277 N 
HETATM    8  H   UNL     1      43.747 -15.496   4.477  1.00  0.00     0.189 HD
HETATM    9  C   UNL     1      44.162 -16.154   6.475  1.00  0.00     0.063 A 
HETATM   10  C   UNL     1      44.342 -15.352   7.583  1.00  0.00     0.071 A 
BRANCH   9  11
HETATM   11  C   UNL     1      44.160 -17.611   6.334  1.00  0.00    -0.005 A 
HETATM   12  C   UNL     1      44.650 -18.232   5.175  1.00  0.00     0.053 A 
HETATM   13  C   UNL     1      44.636 -19.613   5.117  1.00  0.00     0.106 A 
HETATM   14  C   UNL     1      44.160 -20.381   6.153  1.00  0.00     0.105 A 
HETATM   15  O   UNL     1      45.079 -20.367   4.076  1.00  0.00    -0.323 OA
HETATM   16  O   UNL     1      44.241 -21.712   5.894  1.00  0.00    -0.323 OA
HETATM   17  C   UNL     1      43.670 -19.812   7.305  1.00  0.00     0.040 A 
HETATM   18  C   UNL     1      44.840 -21.698   4.582  1.00  0.00     0.352 A 
HETATM   19  C   UNL     1      43.674 -18.415   7.392  1.00  0.00     0.017 A 
ENDBRANCH   9  11
ENDBRANCH   2   5
BRANCH   1  20
HETATM   20  N   UNL     1      43.100 -10.917   8.728  1.00  0.00    -0.183 NA
HETATM   21  C   UNL     1      41.996 -10.715   9.371  1.00  0.00     0.152 C 
BRANCH  21  22
HETATM   22  C   UNL     1      41.864  -9.511  10.168  1.00  0.00     0.011 A 
HETATM   23  C   UNL     1      42.338  -9.277  11.499  1.00  0.00     0.004 A 
HETATM   24  C   UNL     1      43.045 -10.049  12.447  1.00  0.00     0.014 A 
HETATM   25  C   UNL     1      41.977  -7.973  11.847  1.00  0.00     0.043 A 
HETATM   26  C   UNL     1      43.360  -9.493  13.694  1.00  0.00     0.001 A 
HETATM   27  C   UNL     1      42.983  -8.190  14.007  1.00  0.00     0.002 A 
HETATM   28  C   UNL     1      42.283  -7.403  13.089  1.00  0.00     0.030 A 
HETATM   29  N   UNL     1      41.307  -7.435  10.772  1.00  0.00    -0.364 N 
HETATM   30  H   UNL     1      40.927  -6.499  10.740  1.00  0.00     0.165 HD
HETATM   31  C   UNL     1      41.235  -8.348   9.760  1.00  0.00     0.102 A 
ENDBRANCH  21  22
ENDBRANCH   1  20
TORSDOF 4
ENDMDL
MODEL 8
REMARK VINA RESULT:      -8.3      4.226     11.137
REMARK  4 active torsions:
REMARK  status: ('A' for Active; 'I' for Inactive)
REMARK    1  A    between atoms: C_8  and  C_9 
REMARK    2  A    between atoms: N_10  and  N_11 
REMARK       I    between atoms: N_11  and  C_12 
REMARK    3  A    between atoms: C_12  and  C_13 
REMARK    4  A    between atoms: C_17  and  C_18 
ROOT
HETATM    1  N   UNL     1      39.563 -13.136   6.848  1.00  0.00    -0.242 N 
HETATM    2  C   UNL     1      39.461 -13.059   5.467  1.00  0.00     0.292 C 
HETATM    3  O   UNL     1      38.963 -12.128   4.838  1.00  0.00    -0.264 OA
HETATM    4  H   UNL     1      40.004 -13.965   7.238  1.00  0.00     0.192 HD
ENDROOT
BRANCH   2   5
HETATM    5  C   UNL     1      40.031 -14.235   4.792  1.00  0.00     0.148 A 
HETATM    6  N   UNL     1      39.659 -14.623   3.555  1.00  0.00    -0.169 NA
HETATM    7  N   UNL     1      40.407 -15.721   3.326  1.00  0.00    -0.277 N 
HETATM    8  H   UNL     1      40.283 -16.210   2.445  1.00  0.00     0.189 HD
HETATM    9  C   UNL     1      41.251 -16.062   4.352  1.00  0.00     0.063 A 
HETATM   10  C   UNL     1      41.016 -15.107   5.320  1.00  0.00     0.071 A 
BRANCH   9  11
HETATM   11  C   UNL     1      42.148 -17.218   4.341  1.00  0.00    -0.005 A 
HETATM   12  C   UNL     1      42.462 -17.886   3.148  1.00  0.00     0.053 A 
HETATM   13  C   UNL     1      43.332 -18.959   3.209  1.00  0.00     0.106 A 
HETATM   14  C   UNL     1      43.888 -19.380   4.393  1.00  0.00     0.105 A 
HETATM   15  O   UNL     1      43.744 -19.705   2.150  1.00  0.00    -0.323 OA
HETATM   16  O   UNL     1      44.716 -20.444   4.230  1.00  0.00    -0.323 OA
HETATM   17  C   UNL     1      43.605 -18.754   5.585  1.00  0.00     0.040 A 
HETATM   18  C   UNL     1      44.634 -20.636   2.803  1.00  0.00     0.352 A 
HETATM   19  C   UNL     1      42.729 -17.663   5.553  1.00  0.00     0.017 A 
ENDBRANCH   9  11
ENDBRANCH   2   5
BRANCH   1  20
HETATM   20  N   UNL     1      39.096 -12.125   7.633  1.00  0.00    -0.183 NA
HETATM   21  C   UNL     1      39.964 -11.246   8.014  1.00  0.00     0.152 C 
BRANCH  21  22
HETATM   22  C   UNL     1      39.524 -10.146   8.849  1.00  0.00     0.011 A 
HETATM   23  C   UNL     1      39.742  -9.962  10.252  1.00  0.00     0.004 A 
HETATM   24  C   UNL     1      40.402 -10.704  11.256  1.00  0.00     0.014 A 
HETATM   25  C   UNL     1      39.134  -8.758  10.615  1.00  0.00     0.043 A 
HETATM   26  C   UNL     1      40.428 -10.218  12.570  1.00  0.00     0.001 A 
HETATM   27  C   UNL     1      39.811  -9.014  12.896  1.00  0.00     0.002 A 
HETATM   28  C   UNL     1      39.150  -8.259  11.923  1.00  0.00     0.030 A 
HETATM   29  N   UNL     1      38.566  -8.230   9.478  1.00  0.00    -0.364 N 
HETATM   30  H   UNL     1      38.056  -7.358   9.440  1.00  0.00     0.165 HD
HETATM   31  C   UNL     1      38.795  -9.054   8.414  1.00  0.00     0.102 A 
ENDBRANCH  21  22
ENDBRANCH   1  20
TORSDOF 4
ENDMDL
MODEL 9
REMARK VINA RESULT:      -8.3      7.887     12.338
REMARK  4 active torsions:
REMARK  status: ('A' for Active; 'I' for Inactive)
REMARK    1  A    between atoms: C_8  and  C_9 
REMARK    2  A    between atoms: N_10  and  N_11 
REMARK       I    between atoms: N_11  and  C_12 
REMARK    3  A    between atoms: C_12  and  C_13 
REMARK    4  A    between atoms: C_17  and  C_18 
ROOT
HETATM    1  N   UNL     1      40.619 -16.035   0.826  1.00  0.00    -0.242 N 
HETATM    2  C   UNL     1      40.904 -14.927   0.043  1.00  0.00     0.292 C 
HETATM    3  O   UNL     1      42.024 -14.467  -0.165  1.00  0.00    -0.264 OA
HETATM    4  H   UNL     1      39.644 -16.311   0.909  1.00  0.00     0.192 HD
ENDROOT
BRANCH   2   5
HETATM    5  C   UNL     1      39.696 -14.327  -0.547  1.00  0.00     0.148 A 
HETATM    6  N   UNL     1      38.675 -13.852   0.195  1.00  0.00    -0.169 NA
HETATM    7  N   UNL     1      37.794 -13.407  -0.723  1.00  0.00    -0.277 N 
HETATM    8  H   UNL     1      36.917 -13.015  -0.393  1.00  0.00     0.189 HD
HETATM    9  C   UNL     1      38.196 -13.563  -2.024  1.00  0.00     0.063 A 
HETATM   10  C   UNL     1      39.433 -14.167  -1.931  1.00  0.00     0.071 A 
BRANCH   9  11
HETATM   11  C   UNL     1      37.406 -13.168  -3.192  1.00  0.00    -0.005 A 
HETATM   12  C   UNL     1      36.920 -14.120  -4.099  1.00  0.00     0.053 A 
HETATM   13  C   UNL     1      36.165 -13.679  -5.169  1.00  0.00     0.106 A 
HETATM   14  C   UNL     1      35.883 -12.348  -5.362  1.00  0.00     0.105 A 
HETATM   15  O   UNL     1      35.614 -14.468  -6.130  1.00  0.00    -0.323 OA
HETATM   16  O   UNL     1      35.125 -12.130  -6.468  1.00  0.00    -0.323 OA
HETATM   17  C   UNL     1      36.342 -11.381  -4.497  1.00  0.00     0.040 A 
HETATM   18  C   UNL     1      34.943 -13.480  -6.942  1.00  0.00     0.352 A 
HETATM   19  C   UNL     1      37.108 -11.801  -3.403  1.00  0.00     0.017 A 
ENDBRANCH   9  11
ENDBRANCH   2   5
BRANCH   1  20
HETATM   20  N   UNL     1      41.622 -16.722   1.441  1.00  0.00    -0.183 NA
HETATM   21  C   UNL     1      41.478 -16.934   2.709  1.00  0.00     0.152 C 
BRANCH  21  22
HETATM   22  C   UNL     1      42.512 -17.661   3.417  1.00  0.00     0.011 A 
HETATM   23  C   UNL     1      43.144 -18.890   3.040  1.00  0.00     0.004 A 
HETATM   24  C   UNL     1      43.014 -19.772   1.945  1.00  0.00     0.014 A 
HETATM   25  C   UNL     1      44.077 -19.202   4.032  1.00  0.00     0.043 A 
HETATM   26  C   UNL     1      43.814 -20.920   1.884  1.00  0.00     0.001 A 
HETATM   27  C   UNL     1      44.734 -21.201   2.891  1.00  0.00     0.002 A 
HETATM   28  C   UNL     1      44.883 -20.346   3.987  1.00  0.00     0.030 A 
HETATM   29  N   UNL     1      44.015 -18.204   4.977  1.00  0.00    -0.364 N 
HETATM   30  H   UNL     1      44.582 -18.167   5.813  1.00  0.00     0.165 HD
HETATM   31  C   UNL     1      43.082 -17.275   4.618  1.00  0.00     0.102 A 
ENDBRANCH  21  22
ENDBRANCH   1  20
TORSDOF 4
ENDMDL
MODEL 10
REMARK VINA RESULT:      -8.2      3.399      4.368
REMARK  4 active torsions:
REMARK  status: ('A' for Active; 'I' for Inactive)
REMARK    1  A    between atoms: C_8  and  C_9 
REMARK    2  A    between atoms: N_10  and  N_11 
REMARK       I    between atoms: N_11  and  C_12 
REMARK    3  A    between atoms: C_12  and  C_13 
REMARK    4  A    between atoms: C_17  and  C_18 
ROOT
HETATM    1  N   UNL     1      42.061 -15.766   4.023  1.00  0.00    -0.242 N 
HETATM    2  C   UNL     1      42.096 -14.632   3.226  1.00  0.00     0.292 C 
HETATM    3  O   UNL     1      42.294 -14.616   2.013  1.00  0.00    -0.264 OA
HETATM    4  H   UNL     1      41.882 -15.634   5.015  1.00  0.00     0.192 HD
ENDROOT
BRANCH   2   5
HETATM    5  C   UNL     1      41.858 -13.396   3.990  1.00  0.00     0.148 A 
HETATM    6  N   UNL     1      41.947 -12.167   3.442  1.00  0.00    -0.169 NA
HETATM    7  N   UNL     1      41.664 -11.339   4.468  1.00  0.00    -0.277 N 
HETATM    8  H   UNL     1      41.690 -10.339   4.298  1.00  0.00     0.189 HD
HETATM    9  C   UNL     1      41.390 -11.972   5.654  1.00  0.00     0.063 A 
HETATM   10  C   UNL     1      41.517 -13.315   5.363  1.00  0.00     0.071 A 
BRANCH   9  11
HETATM   11  C   UNL     1      41.069 -11.287   6.907  1.00  0.00    -0.005 A 
HETATM   12  C   UNL     1      39.740 -11.070   7.299  1.00  0.00     0.053 A 
HETATM   13  C   UNL     1      39.509 -10.434   8.504  1.00  0.00     0.106 A 
HETATM   14  C   UNL     1      40.536 -10.014   9.315  1.00  0.00     0.105 A 
HETATM   15  O   UNL     1      38.287 -10.155   9.031  1.00  0.00    -0.323 OA
HETATM   16  O   UNL     1      40.091  -9.418  10.452  1.00  0.00    -0.323 OA
HETATM   17  C   UNL     1      41.853 -10.206   8.967  1.00  0.00     0.040 A 
HETATM   18  C   UNL     1      38.664  -9.525  10.274  1.00  0.00     0.352 A 
HETATM   19  C   UNL     1      42.116 -10.850   7.753  1.00  0.00     0.017 A 
ENDBRANCH   9  11
ENDBRANCH   2   5
BRANCH   1  20
HETATM   20  N   UNL     1      42.250 -17.000   3.478  1.00  0.00    -0.183 NA
HETATM   21  C   UNL     1      43.404 -17.546   3.682  1.00  0.00     0.152 C 
BRANCH  21  22
HETATM   22  C   UNL     1      43.663 -18.860   3.128  1.00  0.00     0.011 A 
HETATM   23  C   UNL     1      44.077 -20.044   3.819  1.00  0.00     0.004 A 
HETATM   24  C   UNL     1      44.362 -20.353   5.167  1.00  0.00     0.014 A 
HETATM   25  C   UNL     1      44.197 -21.061   2.869  1.00  0.00     0.043 A 
HETATM   26  C   UNL     1      44.751 -21.654   5.510  1.00  0.00     0.001 A 
HETATM   27  C   UNL     1      44.861 -22.644   4.537  1.00  0.00     0.002 A 
HETATM   28  C   UNL     1      44.586 -22.367   3.195  1.00  0.00     0.030 A 
HETATM   29  N   UNL     1      43.871 -20.519   1.648  1.00  0.00    -0.364 N 
HETATM   30  H   UNL     1      43.870 -21.026   0.774  1.00  0.00     0.165 HD
HETATM   31  C   UNL     1      43.548 -19.200   1.792  1.00  0.00     0.102 A 
ENDBRANCH  21  22
ENDBRANCH   1  20
TORSDOF 4
ENDMDL
