MODEL 1
REMARK VINA RESULT:      -8.6      0.000      0.000
REMARK  2 active torsions:
REMARK  status: ('A' for Active; 'I' for Inactive)
REMARK       I    between atoms: C_2  and  N_3 
REMARK    1  A    between atoms: N_3  and  C_4 
REMARK    2  A    between atoms: C_11  and  N_12 
REMARK       I    between atoms: N_12  and  C_13 
ROOT
HETATM    1  C   UNL     1      43.946 -14.055   7.139  1.00  0.00     0.035 A 
HETATM    2  C   UNL     1      44.307 -15.399   7.257  1.00  0.00     0.038 A 
HETATM    3  C   UNL     1      44.126 -16.232   6.161  1.00  0.00    -0.041 A 
HETATM    4  C   UNL     1      43.593 -15.757   4.946  1.00  0.00    -0.019 A 
HETATM    5  C   UNL     1      43.527 -16.855   4.007  1.00  0.00    -0.019 A 
HETATM    6  C   UNL     1      44.016 -18.019   4.632  1.00  0.00    -0.041 A 
HETATM    7  C   UNL     1      44.074 -19.242   3.972  1.00  0.00     0.038 A 
HETATM    8  C   UNL     1      43.631 -19.310   2.651  1.00  0.00     0.035 A 
HETATM    9  C   UNL     1      43.152 -18.133   2.027  1.00  0.00     0.030 A 
HETATM   10  C   UNL     1      43.094 -16.905   2.698  1.00  0.00     0.015 A 
HETATM   11  C   UNL     1      44.441 -17.710   6.056  1.00  0.00     0.079 A 
HETATM   12  C   UNL     1      43.232 -14.429   4.817  1.00  0.00     0.015 A 
HETATM   13  C   UNL     1      43.412 -13.582   5.919  1.00  0.00     0.030 A 
ENDROOT
BRANCH   1  14
HETATM   14  N   UNL     1      44.079 -13.113   8.183  1.00  0.00    -0.328 N 
HETATM   15  C   UNL     1      45.229 -12.460   8.585  1.00  0.00     0.218 C 
HETATM   16  C   UNL     1      44.988 -11.523   9.744  1.00  0.00     0.117 C 
HETATM   17  O   UNL     1      46.346 -12.558   8.088  1.00  0.00    -0.274 OA
HETATM   18  H   UNL     1      43.229 -12.891   8.685  1.00  0.00     0.169 HD
ENDBRANCH   1  14
BRANCH   8  19
HETATM   19  N   UNL     1      43.628 -20.467   1.849  1.00  0.00    -0.328 N 
HETATM   20  C   UNL     1      44.039 -21.752   2.025  1.00  0.00     0.218 C 
HETATM   21  C   UNL     1      44.580 -22.244   3.333  1.00  0.00     0.117 C 
HETATM   22  O   UNL     1      43.939 -22.525   1.067  1.00  0.00    -0.274 OA
HETATM   23  H   UNL     1      43.237 -20.357   0.920  1.00  0.00     0.169 HD
ENDBRANCH   8  19
TORSDOF 2
ENDMDL
MODEL 2
REMARK VINA RESULT:      -8.2      2.853      3.811
REMARK  2 active torsions:
REMARK  status: ('A' for Active; 'I' for Inactive)
REMARK       I    between atoms: C_2  and  N_3 
REMARK    1  A    between atoms: N_3  and  C_4 
REMARK    2  A    between atoms: C_11  and  N_12 
REMARK       I    between atoms: N_12  and  C_13 
ROOT
HETATM    1  C   UNL     1      42.351 -13.014   4.095  1.00  0.00     0.035 A 
HETATM    2  C   UNL     1      42.683 -13.859   3.035  1.00  0.00     0.038 A 
HETATM    3  C   UNL     1      43.030 -15.173   3.318  1.00  0.00    -0.041 A 
HETATM    4  C   UNL     1      43.053 -15.668   4.638  1.00  0.00    -0.019 A 
HETATM    5  C   UNL     1      43.451 -17.058   4.606  1.00  0.00    -0.019 A 
HETATM    6  C   UNL     1      43.681 -17.436   3.268  1.00  0.00    -0.041 A 
HETATM    7  C   UNL     1      44.078 -18.723   2.923  1.00  0.00     0.038 A 
HETATM    8  C   UNL     1      44.258 -19.662   3.939  1.00  0.00     0.035 A 
HETATM    9  C   UNL     1      44.014 -19.278   5.279  1.00  0.00     0.030 A 
HETATM   10  C   UNL     1      43.615 -17.979   5.621  1.00  0.00     0.015 A 
HETATM   11  C   UNL     1      43.424 -16.262   2.341  1.00  0.00     0.079 A 
HETATM   12  C   UNL     1      42.726 -14.841   5.695  1.00  0.00     0.015 A 
HETATM   13  C   UNL     1      42.375 -13.513   5.417  1.00  0.00     0.030 A 
ENDROOT
BRANCH   1  14
HETATM   14  N   UNL     1      41.987 -11.660   3.933  1.00  0.00    -0.328 N 
HETATM   15  C   UNL     1      40.721 -11.151   3.704  1.00  0.00     0.218 C 
HETATM   16  C   UNL     1      40.716  -9.646   3.580  1.00  0.00     0.117 C 
HETATM   17  O   UNL     1      39.674 -11.783   3.627  1.00  0.00    -0.274 OA
HETATM   18  H   UNL     1      42.742 -10.990   4.001  1.00  0.00     0.169 HD
ENDBRANCH   1  14
BRANCH   8  19
HETATM   19  N   UNL     1      44.653 -21.000   3.754  1.00  0.00    -0.328 N 
HETATM   20  C   UNL     1      44.377 -21.958   2.827  1.00  0.00     0.218 C 
HETATM   21  C   UNL     1      43.534 -21.680   1.620  1.00  0.00     0.117 C 
HETATM   22  O   UNL     1      44.863 -23.082   2.998  1.00  0.00    -0.274 OA
HETATM   23  H   UNL     1      45.289 -21.372   4.450  1.00  0.00     0.169 HD
ENDBRANCH   8  19
TORSDOF 2
ENDMDL
MODEL 3
REMARK VINA RESULT:      -8.2      2.971      3.110
REMARK  2 active torsions:
REMARK  status: ('A' for Active; 'I' for Inactive)
REMARK       I    between atoms: C_2  and  N_3 
REMARK    1  A    between atoms: N_3  and  C_4 
REMARK    2  A    between atoms: C_11  and  N_12 
REMARK       I    between atoms: N_12  and  C_13 
ROOT
HETATM    1  C   UNL     1      41.516 -13.261   5.669  1.00  0.00     0.035 A 
HETATM    2  C   UNL     1      41.146 -14.596   5.848  1.00  0.00     0.038 A 
HETATM    3  C   UNL     1      41.689 -15.553   5.001  1.00  0.00    -0.041 A 
HETATM    4  C   UNL     1      42.596 -15.211   3.977  1.00  0.00    -0.019 A 
HETATM    5  C   UNL     1      42.977 -16.416   3.273  1.00  0.00    -0.019 A 
HETATM    6  C   UNL     1      42.308 -17.513   3.852  1.00  0.00    -0.041 A 
HETATM    7  C   UNL     1      42.477 -18.811   3.382  1.00  0.00     0.038 A 
HETATM    8  C   UNL     1      43.334 -19.024   2.302  1.00  0.00     0.035 A 
HETATM    9  C   UNL     1      44.010 -17.918   1.733  1.00  0.00     0.030 A 
HETATM   10  C   UNL     1      43.834 -16.612   2.210  1.00  0.00     0.015 A 
HETATM   11  C   UNL     1      41.437 -17.047   5.004  1.00  0.00     0.079 A 
HETATM   12  C   UNL     1      42.969 -13.894   3.791  1.00  0.00     0.015 A 
HETATM   13  C   UNL     1      42.424 -12.922   4.642  1.00  0.00     0.030 A 
ENDROOT
BRANCH   1  14
HETATM   14  N   UNL     1      41.028 -12.201   6.463  1.00  0.00    -0.328 N 
HETATM   15  C   UNL     1      39.744 -11.688   6.486  1.00  0.00     0.218 C 
HETATM   16  C   UNL     1      39.594 -10.547   7.464  1.00  0.00     0.117 C 
HETATM   17  O   UNL     1      38.781 -12.081   5.839  1.00  0.00    -0.274 OA
HETATM   18  H   UNL     1      41.700 -11.776   7.089  1.00  0.00     0.169 HD
ENDBRANCH   1  14
BRANCH   8  19
HETATM   19  N   UNL     1      43.612 -20.273   1.715  1.00  0.00    -0.328 N 
HETATM   20  C   UNL     1      44.199 -21.422   2.147  1.00  0.00     0.218 C 
HETATM   21  C   UNL     1      44.650 -21.602   3.565  1.00  0.00     0.117 C 
HETATM   22  O   UNL     1      44.339 -22.340   1.332  1.00  0.00    -0.274 OA
HETATM   23  H   UNL     1      43.324 -20.379   0.748  1.00  0.00     0.169 HD
ENDBRANCH   8  19
TORSDOF 2
ENDMDL
MODEL 4
REMARK VINA RESULT:      -8.1      4.589      6.077
REMARK  2 active torsions:
REMARK  status: ('A' for Active; 'I' for Inactive)
REMARK       I    between atoms: C_2  and  N_3 
REMARK    1  A    between atoms: N_3  and  C_4 
REMARK    2  A    between atoms: C_11  and  N_12 
REMARK       I    between atoms: N_12  and  C_13 
ROOT
HETATM    1  C   UNL     1      40.164 -14.663   0.900  1.00  0.00     0.035 A 
HETATM    2  C   UNL     1      40.228 -15.099   2.225  1.00  0.00     0.038 A 
HETATM    3  C   UNL     1      41.098 -16.134   2.541  1.00  0.00    -0.041 A 
HETATM    4  C   UNL     1      41.910 -16.747   1.566  1.00  0.00    -0.019 A 
HETATM    5  C   UNL     1      42.696 -17.782   2.199  1.00  0.00    -0.019 A 
HETATM    6  C   UNL     1      42.377 -17.822   3.571  1.00  0.00    -0.041 A 
HETATM    7  C   UNL     1      42.978 -18.723   4.443  1.00  0.00     0.038 A 
HETATM    8  C   UNL     1      43.922 -19.615   3.935  1.00  0.00     0.035 A 
HETATM    9  C   UNL     1      44.246 -19.561   2.557  1.00  0.00     0.030 A 
HETATM   10  C   UNL     1      43.635 -18.652   1.684  1.00  0.00     0.015 A 
HETATM   11  C   UNL     1      41.334 -16.768   3.896  1.00  0.00     0.079 A 
HETATM   12  C   UNL     1      41.856 -16.324   0.251  1.00  0.00     0.015 A 
HETATM   13  C   UNL     1      40.980 -15.280  -0.076  1.00  0.00     0.030 A 
ENDROOT
BRANCH   1  14
HETATM   14  N   UNL     1      39.318 -13.624   0.456  1.00  0.00    -0.328 N 
HETATM   15  C   UNL     1      37.935 -13.608   0.457  1.00  0.00     0.218 C 
HETATM   16  C   UNL     1      37.371 -12.322  -0.099  1.00  0.00     0.117 C 
HETATM   17  O   UNL     1      37.186 -14.486   0.870  1.00  0.00    -0.274 OA
HETATM   18  H   UNL     1      39.783 -12.797   0.106  1.00  0.00     0.169 HD
ENDBRANCH   1  14
BRANCH   8  19
HETATM   19  N   UNL     1      44.618 -20.582   4.684  1.00  0.00    -0.328 N 
HETATM   20  C   UNL     1      44.913 -21.898   4.506  1.00  0.00     0.218 C 
HETATM   21  C   UNL     1      44.553 -22.633   3.251  1.00  0.00     0.117 C 
HETATM   22  O   UNL     1      45.513 -22.483   5.415  1.00  0.00    -0.274 OA
HETATM   23  H   UNL     1      45.004 -20.262   5.566  1.00  0.00     0.169 HD
ENDBRANCH   8  19
TORSDOF 2
ENDMDL
MODEL 5
REMARK VINA RESULT:      -7.9      4.644      6.774
REMARK  2 active torsions:
REMARK  status: ('A' for Active; 'I' for Inactive)
REMARK       I    between atoms: C_2  and  N_3 
REMARK    1  A    between atoms: N_3  and  C_4 
REMARK    2  A    between atoms: C_11  and  N_12 
REMARK       I    between atoms: N_12  and  C_13 
ROOT
HETATM    1  C   UNL     1      40.268 -14.592  -0.036  1.00  0.00     0.035 A 
HETATM    2  C   UNL     1      41.386 -15.385  -0.300  1.00  0.00     0.038 A 
HETATM    3  C   UNL     1      41.846 -16.235   0.698  1.00  0.00    -0.041 A 
HETATM    4  C   UNL     1      41.215 -16.315   1.956  1.00  0.00    -0.019 A 
HETATM    5  C   UNL     1      41.922 -17.278   2.770  1.00  0.00    -0.019 A 
HETATM    6  C   UNL     1      42.998 -17.802   2.025  1.00  0.00    -0.041 A 
HETATM    7  C   UNL     1      43.863 -18.756   2.550  1.00  0.00     0.038 A 
HETATM    8  C   UNL     1      43.655 -19.200   3.856  1.00  0.00     0.035 A 
HETATM    9  C   UNL     1      42.565 -18.678   4.593  1.00  0.00     0.030 A 
HETATM   10  C   UNL     1      41.698 -17.715   4.059  1.00  0.00     0.015 A 
HETATM   11  C   UNL     1      43.029 -17.179   0.641  1.00  0.00     0.079 A 
HETATM   12  C   UNL     1      40.107 -15.534   2.228  1.00  0.00     0.015 A 
HETATM   13  C   UNL     1      39.638 -14.674   1.226  1.00  0.00     0.030 A 
ENDROOT
BRANCH   1  14
HETATM   14  N   UNL     1      39.712 -13.688  -0.967  1.00  0.00    -0.328 N 
HETATM   15  C   UNL     1      39.248 -13.970  -2.239  1.00  0.00     0.218 C 
HETATM   16  C   UNL     1      38.723 -12.745  -2.948  1.00  0.00     0.117 C 
HETATM   17  O   UNL     1      39.208 -15.067  -2.784  1.00  0.00    -0.274 OA
HETATM   18  H   UNL     1      39.641 -12.727  -0.659  1.00  0.00     0.169 HD
ENDBRANCH   1  14
BRANCH   8  19
HETATM   19  N   UNL     1      44.436 -20.159   4.527  1.00  0.00    -0.328 N 
HETATM   20  C   UNL     1      44.776 -21.455   4.283  1.00  0.00     0.218 C 
HETATM   21  C   UNL     1      44.371 -22.162   3.026  1.00  0.00     0.117 C 
HETATM   22  O   UNL     1      45.455 -22.042   5.132  1.00  0.00    -0.274 OA
HETATM   23  H   UNL     1      44.861 -19.852   5.395  1.00  0.00     0.169 HD
ENDBRANCH   8  19
TORSDOF 2
ENDMDL
MODEL 6
REMARK VINA RESULT:      -7.7      2.700      3.578
REMARK  2 active torsions:
REMARK  status: ('A' for Active; 'I' for Inactive)
REMARK       I    between atoms: C_2  and  N_3 
REMARK    1  A    between atoms: N_3  and  C_4 
REMARK    2  A    between atoms: C_11  and  N_12 
REMARK       I    between atoms: N_12  and  C_13 
ROOT
HETATM    1  C   UNL     1      41.678 -13.378   5.225  1.00  0.00     0.035 A 
HETATM    2  C   UNL     1      41.318 -14.400   4.344  1.00  0.00     0.038 A 
HETATM    3  C   UNL     1      42.018 -15.597   4.397  1.00  0.00    -0.041 A 
HETATM    4  C   UNL     1      43.072 -15.803   5.309  1.00  0.00    -0.019 A 
HETATM    5  C   UNL     1      43.598 -17.137   5.119  1.00  0.00    -0.019 A 
HETATM    6  C   UNL     1      42.877 -17.768   4.086  1.00  0.00    -0.041 A 
HETATM    7  C   UNL     1      43.159 -19.066   3.676  1.00  0.00     0.038 A 
HETATM    8  C   UNL     1      44.192 -19.757   4.309  1.00  0.00     0.035 A 
HETATM    9  C   UNL     1      44.904 -19.120   5.354  1.00  0.00     0.030 A 
HETATM   10  C   UNL     1      44.616 -17.811   5.761  1.00  0.00     0.015 A 
HETATM   11  C   UNL     1      41.808 -16.834   3.547  1.00  0.00     0.079 A 
HETATM   12  C   UNL     1      43.437 -14.799   6.186  1.00  0.00     0.015 A 
HETATM   13  C   UNL     1      42.735 -13.587   6.139  1.00  0.00     0.030 A 
ENDROOT
BRANCH   1  14
HETATM   14  N   UNL     1      41.044 -12.117   5.264  1.00  0.00    -0.328 N 
HETATM   15  C   UNL     1      39.762 -11.833   5.700  1.00  0.00     0.218 C 
HETATM   16  C   UNL     1      39.426 -10.365   5.591  1.00  0.00     0.117 C 
HETATM   17  O   UNL     1      38.947 -12.624   6.162  1.00  0.00    -0.274 OA
HETATM   18  H   UNL     1      41.599 -11.336   4.941  1.00  0.00     0.169 HD
ENDBRANCH   1  14
BRANCH   8  19
HETATM   19  N   UNL     1      44.597 -21.073   4.014  1.00  0.00    -0.328 N 
HETATM   20  C   UNL     1      44.421 -21.911   2.957  1.00  0.00     0.218 C 
HETATM   21  C   UNL     1      43.719 -21.479   1.705  1.00  0.00     0.117 C 
HETATM   22  O   UNL     1      44.877 -23.056   3.047  1.00  0.00    -0.274 OA
HETATM   23  H   UNL     1      45.149 -21.535   4.728  1.00  0.00     0.169 HD
ENDBRANCH   8  19
TORSDOF 2
ENDMDL
MODEL 7
REMARK VINA RESULT:      -7.6      4.570      7.621
REMARK  2 active torsions:
REMARK  status: ('A' for Active; 'I' for Inactive)
REMARK       I    between atoms: C_2  and  N_3 
REMARK    1  A    between atoms: N_3  and  C_4 
REMARK    2  A    between atoms: C_11  and  N_12 
REMARK       I    between atoms: N_12  and  C_13 
ROOT
HETATM    1  C   UNL     1      43.947 -19.602   3.715  1.00  0.00     0.035 A 
HETATM    2  C   UNL     1      43.086 -18.664   4.288  1.00  0.00     0.038 A 
HETATM    3  C   UNL     1      42.502 -17.711   3.464  1.00  0.00    -0.041 A 
HETATM    4  C   UNL     1      42.755 -17.669   2.079  1.00  0.00    -0.019 A 
HETATM    5  C   UNL     1      42.010 -16.572   1.502  1.00  0.00    -0.019 A 
HETATM    6  C   UNL     1      41.291 -15.923   2.525  1.00  0.00    -0.041 A 
HETATM    7  C   UNL     1      40.478 -14.823   2.272  1.00  0.00     0.038 A 
HETATM    8  C   UNL     1      40.380 -14.352   0.963  1.00  0.00     0.035 A 
HETATM    9  C   UNL     1      41.097 -15.017  -0.061  1.00  0.00     0.030 A 
HETATM   10  C   UNL     1      41.915 -16.124   0.201  1.00  0.00     0.015 A 
HETATM   11  C   UNL     1      41.546 -16.604   3.858  1.00  0.00     0.079 A 
HETATM   12  C   UNL     1      43.605 -18.593   1.500  1.00  0.00     0.015 A 
HETATM   13  C   UNL     1      44.199 -19.558   2.325  1.00  0.00     0.030 A 
ENDROOT
BRANCH   1  14
HETATM   14  N   UNL     1      44.602 -20.616   4.448  1.00  0.00    -0.328 N 
HETATM   15  C   UNL     1      44.711 -21.955   4.119  1.00  0.00     0.218 C 
HETATM   16  C   UNL     1      45.484 -22.742   5.150  1.00  0.00     0.117 C 
HETATM   17  O   UNL     1      44.282 -22.505   3.112  1.00  0.00    -0.274 OA
HETATM   18  H   UNL     1      45.045 -20.319   5.307  1.00  0.00     0.169 HD
ENDBRANCH   1  14
BRANCH   8  19
HETATM   19  N   UNL     1      39.601 -13.257   0.545  1.00  0.00    -0.328 N 
HETATM   20  C   UNL     1      38.269 -13.047   0.362  1.00  0.00     0.218 C 
HETATM   21  C   UNL     1      37.244 -14.086   0.701  1.00  0.00     0.117 C 
HETATM   22  O   UNL     1      37.914 -11.949  -0.081  1.00  0.00    -0.274 OA
HETATM   23  H   UNL     1      40.114 -12.412   0.319  1.00  0.00     0.169 HD
ENDBRANCH   8  19
TORSDOF 2
ENDMDL
MODEL 8
REMARK VINA RESULT:      -7.6      3.058      8.180
REMARK  2 active torsions:
REMARK  status: ('A' for Active; 'I' for Inactive)
REMARK       I    between atoms: C_2  and  N_3 
REMARK    1  A    between atoms: N_3  and  C_4 
REMARK    2  A    between atoms: C_11  and  N_12 
REMARK       I    between atoms: N_12  and  C_13 
ROOT
HETATM    1  C   UNL     1      43.742 -18.785   3.008  1.00  0.00     0.035 A 
HETATM    2  C   UNL     1      42.923 -18.611   4.125  1.00  0.00     0.038 A 
HETATM    3  C   UNL     1      42.361 -17.361   4.347  1.00  0.00    -0.041 A 
HETATM    4  C   UNL     1      42.595 -16.276   3.480  1.00  0.00    -0.019 A 
HETATM    5  C   UNL     1      41.879 -15.121   3.976  1.00  0.00    -0.019 A 
HETATM    6  C   UNL     1      41.198 -15.480   5.156  1.00  0.00    -0.041 A 
HETATM    7  C   UNL     1      40.420 -14.571   5.864  1.00  0.00     0.038 A 
HETATM    8  C   UNL     1      40.320 -13.264   5.387  1.00  0.00     0.035 A 
HETATM    9  C   UNL     1      40.998 -12.914   4.195  1.00  0.00     0.030 A 
HETATM   10  C   UNL     1      41.782 -13.835   3.487  1.00  0.00     0.015 A 
HETATM   11  C   UNL     1      41.449 -16.941   5.482  1.00  0.00     0.079 A 
HETATM   12  C   UNL     1      43.404 -16.436   2.370  1.00  0.00     0.015 A 
HETATM   13  C   UNL     1      43.975 -17.694   2.140  1.00  0.00     0.030 A 
ENDROOT
BRANCH   1  14
HETATM   14  N   UNL     1      44.372 -20.005   2.680  1.00  0.00    -0.328 N 
HETATM   15  C   UNL     1      43.804 -21.107   2.068  1.00  0.00     0.218 C 
HETATM   16  C   UNL     1      44.788 -22.236   1.880  1.00  0.00     0.117 C 
HETATM   17  O   UNL     1      42.649 -21.218   1.671  1.00  0.00    -0.274 OA
HETATM   18  H   UNL     1      45.354 -20.070   2.916  1.00  0.00     0.169 HD
ENDBRANCH   1  14
BRANCH   8  19
HETATM   19  N   UNL     1      39.573 -12.231   5.985  1.00  0.00    -0.328 N 
HETATM   20  C   UNL     1      39.862 -11.219   6.848  1.00  0.00     0.218 C 
HETATM   21  C   UNL     1      41.259 -10.948   7.319  1.00  0.00     0.117 C 
HETATM   22  O   UNL     1      38.931 -10.502   7.228  1.00  0.00    -0.274 OA
HETATM   23  H   UNL     1      38.589 -12.202   5.742  1.00  0.00     0.169 HD
ENDBRANCH   8  19
TORSDOF 2
ENDMDL
MODEL 9
REMARK VINA RESULT:      -7.6      4.661      7.426
REMARK  2 active torsions:
REMARK  status: ('A' for Active; 'I' for Inactive)
REMARK       I    between atoms: C_2  and  N_3 
REMARK    1  A    between atoms: N_3  and  C_4 
REMARK    2  A    between atoms: C_11  and  N_12 
REMARK       I    between atoms: N_12  and  C_13 
ROOT
HETATM    1  C   UNL     1      43.643 -19.286   3.982  1.00  0.00     0.035 A 
HETATM    2  C   UNL     1      43.859 -18.884   2.663  1.00  0.00     0.038 A 
HETATM    3  C   UNL     1      43.033 -17.906   2.124  1.00  0.00    -0.041 A 
HETATM    4  C   UNL     1      41.995 -17.316   2.871  1.00  0.00    -0.019 A 
HETATM    5  C   UNL     1      41.319 -16.344   2.041  1.00  0.00    -0.019 A 
HETATM    6  C   UNL     1      41.931 -16.325   0.772  1.00  0.00    -0.041 A 
HETATM    7  C   UNL     1      41.495 -15.483  -0.245  1.00  0.00     0.038 A 
HETATM    8  C   UNL     1      40.414 -14.637   0.006  1.00  0.00     0.035 A 
HETATM    9  C   UNL     1      39.812 -14.654   1.287  1.00  0.00     0.030 A 
HETATM   10  C   UNL     1      40.255 -15.506   2.307  1.00  0.00     0.015 A 
HETATM   11  C   UNL     1      43.078 -17.318   0.729  1.00  0.00     0.079 A 
HETATM   12  C   UNL     1      41.771 -17.706   4.179  1.00  0.00     0.015 A 
HETATM   13  C   UNL     1      42.601 -18.692   4.729  1.00  0.00     0.030 A 
ENDROOT
BRANCH   1  14
HETATM   14  N   UNL     1      44.413 -20.272   4.637  1.00  0.00    -0.328 N 
HETATM   15  C   UNL     1      44.658 -21.566   4.215  1.00  0.00     0.218 C 
HETATM   16  C   UNL     1      45.526 -22.335   5.182  1.00  0.00     0.117 C 
HETATM   17  O   UNL     1      44.272 -22.088   3.176  1.00  0.00    -0.274 OA
HETATM   18  H   UNL     1      44.836 -19.989   5.511  1.00  0.00     0.169 HD
ENDBRANCH   1  14
BRANCH   8  19
HETATM   19  N   UNL     1      39.858 -13.728  -0.914  1.00  0.00    -0.328 N 
HETATM   20  C   UNL     1      39.557 -13.775  -2.241  1.00  0.00     0.218 C 
HETATM   21  C   UNL     1      39.727 -15.023  -3.053  1.00  0.00     0.117 C 
HETATM   22  O   UNL     1      39.116 -12.748  -2.768  1.00  0.00    -0.274 OA
HETATM   23  H   UNL     1      39.611 -12.818  -0.540  1.00  0.00     0.169 HD
ENDBRANCH   8  19
TORSDOF 2
ENDMDL
MODEL 10
REMARK VINA RESULT:      -7.5      3.183      7.905
REMARK  2 active torsions:
REMARK  status: ('A' for Active; 'I' for Inactive)
REMARK       I    between atoms: C_2  and  N_3 
REMARK    1  A    between atoms: N_3  and  C_4 
REMARK    2  A    between atoms: C_11  and  N_12 
REMARK       I    between atoms: N_12  and  C_13 
ROOT
HETATM    1  C   UNL     1      43.989 -19.076   5.878  1.00  0.00     0.035 A 
HETATM    2  C   UNL     1      42.682 -18.680   5.585  1.00  0.00     0.038 A 
HETATM    3  C   UNL     1      42.368 -17.329   5.653  1.00  0.00    -0.041 A 
HETATM    4  C   UNL     1      43.328 -16.359   6.006  1.00  0.00    -0.019 A 
HETATM    5  C   UNL     1      42.701 -15.056   5.990  1.00  0.00    -0.019 A 
HETATM    6  C   UNL     1      41.347 -15.207   5.630  1.00  0.00    -0.041 A 
HETATM    7  C   UNL     1      40.484 -14.121   5.532  1.00  0.00     0.038 A 
HETATM    8  C   UNL     1      40.982 -12.846   5.803  1.00  0.00     0.035 A 
HETATM    9  C   UNL     1      42.346 -12.702   6.152  1.00  0.00     0.030 A 
HETATM   10  C   UNL     1      43.209 -13.801   6.251  1.00  0.00     0.015 A 
HETATM   11  C   UNL     1      41.031 -16.671   5.383  1.00  0.00     0.079 A 
HETATM   12  C   UNL     1      44.625 -16.739   6.297  1.00  0.00     0.015 A 
HETATM   13  C   UNL     1      44.949 -18.101   6.231  1.00  0.00     0.030 A 
ENDROOT
BRANCH   1  14
HETATM   14  N   UNL     1      44.426 -20.418   5.847  1.00  0.00    -0.328 N 
HETATM   15  C   UNL     1      44.870 -21.133   4.749  1.00  0.00     0.218 C 
HETATM   16  C   UNL     1      45.254 -22.551   5.099  1.00  0.00     0.117 C 
HETATM   17  O   UNL     1      44.993 -20.722   3.601  1.00  0.00    -0.274 OA
HETATM   18  H   UNL     1      44.417 -20.903   6.734  1.00  0.00     0.169 HD
ENDBRANCH   1  14
BRANCH   8  19
HETATM   19  N   UNL     1      40.241 -11.651   5.744  1.00  0.00    -0.328 N 
HETATM   20  C   UNL     1      39.544 -10.914   6.651  1.00  0.00     0.218 C 
HETATM   21  C   UNL     1      39.506 -11.269   8.107  1.00  0.00     0.117 C 
HETATM   22  O   UNL     1      38.944  -9.914   6.243  1.00  0.00    -0.274 OA
HETATM   23  H   UNL     1      40.192 -11.207   4.834  1.00  0.00     0.169 HD
ENDBRANCH   8  19
TORSDOF 2
ENDMDL
