MODEL 1
REMARK VINA RESULT:      -7.8      0.000      0.000
REMARK  3 active torsions:
REMARK  status: ('A' for Active; 'I' for Inactive)
REMARK    1  A    between atoms: C_6  and  C_7 
REMARK       I    between atoms: C_7  and  N_8 
REMARK    2  A    between atoms: N_8  and  C_9 
REMARK    3  A    between atoms: C_12  and  C_13 
REMARK       I    between atoms: C_13  and  N_14 
ROOT
HETATM    1  C   UNL     1      42.964 -16.788   3.690  1.00  0.00     0.257 C 
HETATM    2  N   UNL     1      41.663 -16.673   4.144  1.00  0.00    -0.322 N 
HETATM    3  O   UNL     1      43.753 -15.879   3.477  1.00  0.00    -0.267 OA
HETATM    4  H   UNL     1      41.142 -17.534   4.258  1.00  0.00     0.169 HD
ENDROOT
BRANCH   2   5
HETATM    5  C   UNL     1      40.992 -15.474   4.457  1.00  0.00     0.052 A 
HETATM    6  C   UNL     1      40.840 -14.956   5.744  1.00  0.00     0.147 A 
HETATM    7  N   UNL     1      40.200 -13.792   6.031  1.00  0.00    -0.253 NA
HETATM    8  C   UNL     1      39.675 -13.114   4.975  1.00  0.00     0.124 A 
HETATM    9  C   UNL     1      39.765 -13.548   3.659  1.00  0.00     0.039 A 
HETATM   10  C   UNL     1      40.438 -14.743   3.403  1.00  0.00     0.033 A 
BRANCH   8  11
HETATM   11  C   UNL     1      38.973 -11.831   5.292  1.00  0.00     0.268 C 
HETATM   12  N   UNL     1      38.283 -11.273   4.250  1.00  0.00    -0.365 N 
HETATM   13  H   UNL     1      38.284 -11.739   3.348  1.00  0.00     0.159 HD
HETATM   14  H   UNL     1      37.779 -10.410   4.383  1.00  0.00     0.159 HD
HETATM   15  O   UNL     1      39.004 -11.316   6.402  1.00  0.00    -0.266 OA
ENDBRANCH   8  11
ENDBRANCH   2   5
BRANCH   1  16
HETATM   16  C   UNL     1      43.390 -18.188   3.428  1.00  0.00     0.044 A 
HETATM   17  C   UNL     1      43.034 -18.786   2.201  1.00  0.00    -0.045 A 
HETATM   18  C   UNL     1      43.453 -20.100   1.941  1.00  0.00     0.014 A 
HETATM   19  C   UNL     1      42.249 -18.045   1.152  1.00  0.00     0.049 C 
HETATM   20  C   UNL     1      44.206 -20.816   2.878  1.00  0.00    -0.061 A 
HETATM   21  C   UNL     1      44.622 -22.230   2.591  1.00  0.00     0.048 C 
HETATM   22  C   UNL     1      44.531 -20.215   4.100  1.00  0.00     0.014 A 
HETATM   23  C   UNL     1      44.154 -18.892   4.382  1.00  0.00    -0.045 A 
HETATM   24  C   UNL     1      44.569 -18.285   5.694  1.00  0.00     0.049 C 
ENDBRANCH   1  16
TORSDOF 3
ENDMDL
MODEL 2
REMARK VINA RESULT:      -7.5      0.906      2.238
REMARK  3 active torsions:
REMARK  status: ('A' for Active; 'I' for Inactive)
REMARK    1  A    between atoms: C_6  and  C_7 
REMARK       I    between atoms: C_7  and  N_8 
REMARK    2  A    between atoms: N_8  and  C_9 
REMARK    3  A    between atoms: C_12  and  C_13 
REMARK       I    between atoms: C_13  and  N_14 
ROOT
HETATM    1  C   UNL     1      42.892 -16.253   3.529  1.00  0.00     0.257 C 
HETATM    2  N   UNL     1      41.540 -16.121   3.782  1.00  0.00    -0.322 N 
HETATM    3  O   UNL     1      43.725 -15.360   3.484  1.00  0.00    -0.267 OA
HETATM    4  H   UNL     1      40.989 -16.971   3.773  1.00  0.00     0.169 HD
ENDROOT
BRANCH   2   5
HETATM    5  C   UNL     1      40.855 -14.918   4.044  1.00  0.00     0.052 A 
HETATM    6  C   UNL     1      40.328 -14.068   3.070  1.00  0.00     0.147 A 
HETATM    7  N   UNL     1      39.659 -12.917   3.338  1.00  0.00    -0.253 NA
HETATM    8  C   UNL     1      39.516 -12.592   4.651  1.00  0.00     0.124 A 
HETATM    9  C   UNL     1      40.008 -13.364   5.694  1.00  0.00     0.039 A 
HETATM   10  C   UNL     1      40.681 -14.545   5.380  1.00  0.00     0.033 A 
BRANCH   8  11
HETATM   11  C   UNL     1      38.776 -11.324   4.946  1.00  0.00     0.268 C 
HETATM   12  N   UNL     1      37.970 -10.873   3.935  1.00  0.00    -0.365 N 
HETATM   13  H   UNL     1      37.918 -11.400   3.069  1.00  0.00     0.159 HD
HETATM   14  H   UNL     1      37.434 -10.028   4.056  1.00  0.00     0.159 HD
HETATM   15  O   UNL     1      38.875 -10.732   6.013  1.00  0.00    -0.266 OA
ENDBRANCH   8  11
ENDBRANCH   2   5
BRANCH   1  16
HETATM   16  C   UNL     1      43.324 -17.653   3.269  1.00  0.00     0.044 A 
HETATM   17  C   UNL     1      43.788 -18.431   4.350  1.00  0.00    -0.045 A 
HETATM   18  C   UNL     1      44.175 -19.758   4.112  1.00  0.00     0.014 A 
HETATM   19  C   UNL     1      43.845 -17.890   5.754  1.00  0.00     0.049 C 
HETATM   20  C   UNL     1      44.113 -20.308   2.826  1.00  0.00    -0.061 A 
HETATM   21  C   UNL     1      44.558 -21.723   2.589  1.00  0.00     0.048 C 
HETATM   22  C   UNL     1      43.672 -19.515   1.761  1.00  0.00     0.014 A 
HETATM   23  C   UNL     1      43.248 -18.192   1.968  1.00  0.00    -0.045 A 
HETATM   24  C   UNL     1      42.742 -17.401   0.792  1.00  0.00     0.049 C 
ENDBRANCH   1  16
TORSDOF 3
ENDMDL
MODEL 3
REMARK VINA RESULT:      -7.5      2.012      2.160
REMARK  3 active torsions:
REMARK  status: ('A' for Active; 'I' for Inactive)
REMARK    1  A    between atoms: C_6  and  C_7 
REMARK       I    between atoms: C_7  and  N_8 
REMARK    2  A    between atoms: N_8  and  C_9 
REMARK    3  A    between atoms: C_12  and  C_13 
REMARK       I    between atoms: C_13  and  N_14 
ROOT
HETATM    1  C   UNL     1      42.493 -17.537   4.547  1.00  0.00     0.257 C 
HETATM    2  N   UNL     1      43.169 -16.346   4.364  1.00  0.00    -0.322 N 
HETATM    3  O   UNL     1      41.499 -17.723   5.233  1.00  0.00    -0.267 OA
HETATM    4  H   UNL     1      43.986 -16.371   3.764  1.00  0.00     0.169 HD
ENDROOT
BRANCH   2   5
HETATM    5  C   UNL     1      42.835 -15.101   4.934  1.00  0.00     0.052 A 
HETATM    6  C   UNL     1      43.520 -14.495   5.989  1.00  0.00     0.147 A 
HETATM    7  N   UNL     1      43.194 -13.289   6.522  1.00  0.00    -0.253 NA
HETATM    8  C   UNL     1      42.119 -12.658   5.978  1.00  0.00     0.124 A 
HETATM    9  C   UNL     1      41.368 -13.178   4.933  1.00  0.00     0.039 A 
HETATM   10  C   UNL     1      41.739 -14.415   4.405  1.00  0.00     0.033 A 
BRANCH   8  11
HETATM   11  C   UNL     1      41.763 -11.327   6.564  1.00  0.00     0.268 C 
HETATM   12  N   UNL     1      41.978 -11.208   7.910  1.00  0.00    -0.365 N 
HETATM   13  H   UNL     1      42.353 -11.999   8.424  1.00  0.00     0.159 HD
HETATM   14  H   UNL     1      41.768 -10.341   8.380  1.00  0.00     0.159 HD
HETATM   15  O   UNL     1      41.316 -10.406   5.892  1.00  0.00    -0.266 OA
ENDBRANCH   8  11
ENDBRANCH   2   5
BRANCH   1  16
HETATM   16  C   UNL     1      43.096 -18.690   3.826  1.00  0.00     0.044 A 
HETATM   17  C   UNL     1      42.737 -18.911   2.480  1.00  0.00    -0.045 A 
HETATM   18  C   UNL     1      43.321 -19.985   1.791  1.00  0.00     0.014 A 
HETATM   19  C   UNL     1      41.776 -18.008   1.754  1.00  0.00     0.049 C 
HETATM   20  C   UNL     1      44.239 -20.833   2.421  1.00  0.00    -0.061 A 
HETATM   21  C   UNL     1      44.831 -21.992   1.673  1.00  0.00     0.048 C 
HETATM   22  C   UNL     1      44.566 -20.613   3.764  1.00  0.00     0.014 A 
HETATM   23  C   UNL     1      44.024 -19.531   4.476  1.00  0.00    -0.045 A 
HETATM   24  C   UNL     1      44.447 -19.319   5.904  1.00  0.00     0.049 C 
ENDBRANCH   1  16
TORSDOF 3
ENDMDL
MODEL 4
REMARK VINA RESULT:      -7.4      1.862      2.196
REMARK  3 active torsions:
REMARK  status: ('A' for Active; 'I' for Inactive)
REMARK    1  A    between atoms: C_6  and  C_7 
REMARK       I    between atoms: C_7  and  N_8 
REMARK    2  A    between atoms: N_8  and  C_9 
REMARK    3  A    between atoms: C_12  and  C_13 
REMARK       I    between atoms: C_13  and  N_14 
ROOT
HETATM    1  C   UNL     1      43.031 -17.236   3.424  1.00  0.00     0.257 C 
HETATM    2  N   UNL     1      41.654 -17.161   3.521  1.00  0.00    -0.322 N 
HETATM    3  O   UNL     1      43.787 -16.380   2.991  1.00  0.00    -0.267 OA
HETATM    4  H   UNL     1      41.178 -17.971   3.899  1.00  0.00     0.169 HD
ENDROOT
BRANCH   2   5
HETATM    5  C   UNL     1      40.850 -16.069   3.139  1.00  0.00     0.052 A 
HETATM    6  C   UNL     1      40.519 -14.993   3.965  1.00  0.00     0.147 A 
HETATM    7  N   UNL     1      39.751 -13.940   3.581  1.00  0.00    -0.253 NA
HETATM    8  C   UNL     1      39.282 -13.968   2.304  1.00  0.00     0.124 A 
HETATM    9  C   UNL     1      39.548 -14.993   1.407  1.00  0.00     0.039 A 
HETATM   10  C   UNL     1      40.347 -16.053   1.835  1.00  0.00     0.033 A 
BRANCH   8  11
HETATM   11  C   UNL     1      38.439 -12.805   1.881  1.00  0.00     0.268 C 
HETATM   12  N   UNL     1      37.495 -13.087   0.930  1.00  0.00    -0.365 N 
HETATM   13  H   UNL     1      37.419 -14.034   0.572  1.00  0.00     0.159 HD
HETATM   14  H   UNL     1      36.884 -12.359   0.594  1.00  0.00     0.159 HD
HETATM   15  O   UNL     1      38.574 -11.683   2.351  1.00  0.00    -0.266 OA
ENDBRANCH   8  11
ENDBRANCH   2   5
BRANCH   1  16
HETATM   16  C   UNL     1      43.599 -18.529   3.892  1.00  0.00     0.044 A 
HETATM   17  C   UNL     1      43.793 -19.563   2.952  1.00  0.00    -0.045 A 
HETATM   18  C   UNL     1      44.349 -20.776   3.386  1.00  0.00     0.014 A 
HETATM   19  C   UNL     1      43.455 -19.389   1.495  1.00  0.00     0.049 C 
HETATM   20  C   UNL     1      44.702 -20.970   4.726  1.00  0.00    -0.061 A 
HETATM   21  C   UNL     1      45.270 -22.286   5.173  1.00  0.00     0.048 C 
HETATM   22  C   UNL     1      44.481 -19.942   5.649  1.00  0.00     0.014 A 
HETATM   23  C   UNL     1      43.953 -18.704   5.246  1.00  0.00    -0.045 A 
HETATM   24  C   UNL     1      43.779 -17.621   6.275  1.00  0.00     0.049 C 
ENDBRANCH   1  16
TORSDOF 3
ENDMDL
MODEL 5
REMARK VINA RESULT:      -7.4      1.927      2.981
REMARK  3 active torsions:
REMARK  status: ('A' for Active; 'I' for Inactive)
REMARK    1  A    between atoms: C_6  and  C_7 
REMARK       I    between atoms: C_7  and  N_8 
REMARK    2  A    between atoms: N_8  and  C_9 
REMARK    3  A    between atoms: C_12  and  C_13 
REMARK       I    between atoms: C_13  and  N_14 
ROOT
HETATM    1  C   UNL     1      42.373 -17.424   4.437  1.00  0.00     0.257 C 
HETATM    2  N   UNL     1      43.065 -16.237   4.292  1.00  0.00    -0.322 N 
HETATM    3  O   UNL     1      41.339 -17.604   5.064  1.00  0.00    -0.267 OA
HETATM    4  H   UNL     1      43.915 -16.268   3.742  1.00  0.00     0.169 HD
ENDROOT
BRANCH   2   5
HETATM    5  C   UNL     1      42.704 -14.990   4.840  1.00  0.00     0.052 A 
HETATM    6  C   UNL     1      41.684 -14.168   4.356  1.00  0.00     0.147 A 
HETATM    7  N   UNL     1      41.340 -12.973   4.901  1.00  0.00    -0.253 NA
HETATM    8  C   UNL     1      42.060 -12.571   5.984  1.00  0.00     0.124 A 
HETATM    9  C   UNL     1      43.096 -13.310   6.536  1.00  0.00     0.039 A 
HETATM   10  C   UNL     1      43.416 -14.537   5.955  1.00  0.00     0.033 A 
BRANCH   8  11
HETATM   11  C   UNL     1      41.677 -11.255   6.585  1.00  0.00     0.268 C 
HETATM   12  N   UNL     1      42.039 -11.087   7.894  1.00  0.00    -0.365 N 
HETATM   13  H   UNL     1      42.529 -11.835   8.374  1.00  0.00     0.159 HD
HETATM   14  H   UNL     1      41.821 -10.225   8.372  1.00  0.00     0.159 HD
HETATM   15  O   UNL     1      41.088 -10.385   5.956  1.00  0.00    -0.266 OA
ENDBRANCH   8  11
ENDBRANCH   2   5
BRANCH   1  16
HETATM   16  C   UNL     1      43.011 -18.582   3.755  1.00  0.00     0.044 A 
HETATM   17  C   UNL     1      43.905 -19.391   4.487  1.00  0.00    -0.045 A 
HETATM   18  C   UNL     1      44.493 -20.496   3.853  1.00  0.00     0.014 A 
HETATM   19  C   UNL     1      44.219 -19.123   5.935  1.00  0.00     0.049 C 
HETATM   20  C   UNL     1      44.208 -20.796   2.516  1.00  0.00    -0.061 A 
HETATM   21  C   UNL     1      44.868 -21.968   1.849  1.00  0.00     0.048 C 
HETATM   22  C   UNL     1      43.337 -19.969   1.797  1.00  0.00     0.014 A 
HETATM   23  C   UNL     1      42.709 -18.872   2.408  1.00  0.00    -0.045 A 
HETATM   24  C   UNL     1      41.747 -18.045   1.599  1.00  0.00     0.049 C 
ENDBRANCH   1  16
TORSDOF 3
ENDMDL
MODEL 6
REMARK VINA RESULT:      -7.3      2.002      2.858
REMARK  3 active torsions:
REMARK  status: ('A' for Active; 'I' for Inactive)
REMARK    1  A    between atoms: C_6  and  C_7 
REMARK       I    between atoms: C_7  and  N_8 
REMARK    2  A    between atoms: N_8  and  C_9 
REMARK    3  A    between atoms: C_12  and  C_13 
REMARK       I    between atoms: C_13  and  N_14 
ROOT
HETATM    1  C   UNL     1      42.843 -16.829   3.553  1.00  0.00     0.257 C 
HETATM    2  N   UNL     1      41.473 -16.859   3.373  1.00  0.00    -0.322 N 
HETATM    3  O   UNL     1      43.583 -15.867   3.411  1.00  0.00    -0.267 OA
HETATM    4  H   UNL     1      41.012 -17.749   3.524  1.00  0.00     0.169 HD
ENDROOT
BRANCH   2   5
HETATM    5  C   UNL     1      40.657 -15.775   2.994  1.00  0.00     0.052 A 
HETATM    6  C   UNL     1      40.396 -14.655   3.786  1.00  0.00     0.147 A 
HETATM    7  N   UNL     1      39.616 -13.611   3.404  1.00  0.00    -0.253 NA
HETATM    8  C   UNL     1      39.059 -13.693   2.166  1.00  0.00     0.124 A 
HETATM    9  C   UNL     1      39.249 -14.765   1.305  1.00  0.00     0.039 A 
HETATM   10  C   UNL     1      40.064 -15.815   1.729  1.00  0.00     0.033 A 
BRANCH   8  11
HETATM   11  C   UNL     1      38.202 -12.541   1.745  1.00  0.00     0.268 C 
HETATM   12  N   UNL     1      38.517 -11.340   2.322  1.00  0.00    -0.365 N 
HETATM   13  H   UNL     1      39.286 -11.294   2.983  1.00  0.00     0.159 HD
HETATM   14  H   UNL     1      37.990 -10.513   2.087  1.00  0.00     0.159 HD
HETATM   15  O   UNL     1      37.288 -12.655   0.939  1.00  0.00    -0.266 OA
ENDBRANCH   8  11
ENDBRANCH   2   5
BRANCH   1  16
HETATM   16  C   UNL     1      43.431 -18.140   3.937  1.00  0.00     0.044 A 
HETATM   17  C   UNL     1      43.566 -18.447   5.307  1.00  0.00    -0.045 A 
HETATM   18  C   UNL     1      44.101 -19.691   5.672  1.00  0.00     0.014 A 
HETATM   19  C   UNL     1      43.122 -17.493   6.384  1.00  0.00     0.049 C 
HETATM   20  C   UNL     1      44.502 -20.617   4.702  1.00  0.00    -0.061 A 
HETATM   21  C   UNL     1      45.096 -21.933   5.116  1.00  0.00     0.048 C 
HETATM   22  C   UNL     1      44.382 -20.287   3.348  1.00  0.00     0.014 A 
HETATM   23  C   UNL     1      43.824 -19.063   2.945  1.00  0.00    -0.045 A 
HETATM   24  C   UNL     1      43.680 -18.782   1.474  1.00  0.00     0.049 C 
ENDBRANCH   1  16
TORSDOF 3
ENDMDL
MODEL 7
REMARK VINA RESULT:      -7.2      3.189      4.018
REMARK  3 active torsions:
REMARK  status: ('A' for Active; 'I' for Inactive)
REMARK    1  A    between atoms: C_6  and  C_7 
REMARK       I    between atoms: C_7  and  N_8 
REMARK    2  A    between atoms: N_8  and  C_9 
REMARK    3  A    between atoms: C_12  and  C_13 
REMARK       I    between atoms: C_13  and  N_14 
ROOT
HETATM    1  C   UNL     1      42.087 -16.136   2.904  1.00  0.00     0.257 C 
HETATM    2  N   UNL     1      41.039 -16.433   2.054  1.00  0.00    -0.322 N 
HETATM    3  O   UNL     1      42.499 -15.026   3.207  1.00  0.00    -0.267 OA
HETATM    4  H   UNL     1      40.835 -17.415   1.906  1.00  0.00     0.169 HD
ENDROOT
BRANCH   2   5
HETATM    5  C   UNL     1      40.229 -15.504   1.372  1.00  0.00     0.052 A 
HETATM    6  C   UNL     1      40.573 -14.867   0.179  1.00  0.00     0.147 A 
HETATM    7  N   UNL     1      39.778 -13.981  -0.475  1.00  0.00    -0.253 NA
HETATM    8  C   UNL     1      38.575 -13.709   0.100  1.00  0.00     0.124 A 
HETATM    9  C   UNL     1      38.142 -14.283   1.287  1.00  0.00     0.039 A 
HETATM   10  C   UNL     1      38.983 -15.195   1.925  1.00  0.00     0.033 A 
BRANCH   8  11
HETATM   11  C   UNL     1      37.698 -12.735  -0.623  1.00  0.00     0.268 C 
HETATM   12  N   UNL     1      36.750 -12.121   0.151  1.00  0.00    -0.365 N 
HETATM   13  H   UNL     1      36.691 -12.350   1.138  1.00  0.00     0.159 HD
HETATM   14  H   UNL     1      36.122 -11.448  -0.260  1.00  0.00     0.159 HD
HETATM   15  O   UNL     1      37.818 -12.496  -1.817  1.00  0.00    -0.266 OA
ENDBRANCH   8  11
ENDBRANCH   2   5
BRANCH   1  16
HETATM   16  C   UNL     1      42.769 -17.334   3.464  1.00  0.00     0.044 A 
HETATM   17  C   UNL     1      42.376 -17.804   4.734  1.00  0.00    -0.045 A 
HETATM   18  C   UNL     1      43.002 -18.946   5.256  1.00  0.00     0.014 A 
HETATM   19  C   UNL     1      41.283 -17.139   5.528  1.00  0.00     0.049 C 
HETATM   20  C   UNL     1      44.004 -19.611   4.540  1.00  0.00    -0.061 A 
HETATM   21  C   UNL     1      44.680 -20.816   5.129  1.00  0.00     0.048 C 
HETATM   22  C   UNL     1      44.398 -19.117   3.292  1.00  0.00     0.014 A 
HETATM   23  C   UNL     1      43.773 -17.993   2.725  1.00  0.00    -0.045 A 
HETATM   24  C   UNL     1      44.208 -17.534   1.360  1.00  0.00     0.049 C 
ENDBRANCH   1  16
TORSDOF 3
ENDMDL
MODEL 8
REMARK VINA RESULT:      -7.1      2.134      2.398
REMARK  3 active torsions:
REMARK  status: ('A' for Active; 'I' for Inactive)
REMARK    1  A    between atoms: C_6  and  C_7 
REMARK       I    between atoms: C_7  and  N_8 
REMARK    2  A    between atoms: N_8  and  C_9 
REMARK    3  A    between atoms: C_12  and  C_13 
REMARK       I    between atoms: C_13  and  N_14 
ROOT
HETATM    1  C   UNL     1      42.524 -17.381   4.323  1.00  0.00     0.257 C 
HETATM    2  N   UNL     1      43.284 -16.247   4.537  1.00  0.00    -0.322 N 
HETATM    3  O   UNL     1      41.339 -17.430   4.027  1.00  0.00    -0.267 OA
HETATM    4  H   UNL     1      44.256 -16.389   4.786  1.00  0.00     0.169 HD
ENDROOT
BRANCH   2   5
HETATM    5  C   UNL     1      42.836 -14.914   4.447  1.00  0.00     0.052 A 
HETATM    6  C   UNL     1      42.835 -14.148   3.281  1.00  0.00     0.147 A 
HETATM    7  N   UNL     1      42.390 -12.866   3.206  1.00  0.00    -0.253 NA
HETATM    8  C   UNL     1      41.928 -12.318   4.362  1.00  0.00     0.124 A 
HETATM    9  C   UNL     1      41.893 -12.992   5.574  1.00  0.00     0.039 A 
HETATM   10  C   UNL     1      42.351 -14.309   5.610  1.00  0.00     0.033 A 
BRANCH   8  11
HETATM   11  C   UNL     1      41.435 -10.907   4.278  1.00  0.00     0.268 C 
HETATM   12  N   UNL     1      41.194 -10.450   3.010  1.00  0.00    -0.365 N 
HETATM   13  H   UNL     1      41.358 -11.067   2.221  1.00  0.00     0.159 HD
HETATM   14  H   UNL     1      40.855  -9.511   2.868  1.00  0.00     0.159 HD
HETATM   15  O   UNL     1      41.252 -10.209   5.267  1.00  0.00    -0.266 OA
ENDBRANCH   8  11
ENDBRANCH   2   5
BRANCH   1  16
HETATM   16  C   UNL     1      43.272 -18.653   4.510  1.00  0.00     0.044 A 
HETATM   17  C   UNL     1      43.734 -19.341   3.368  1.00  0.00    -0.045 A 
HETATM   18  C   UNL     1      44.459 -20.530   3.541  1.00  0.00     0.014 A 
HETATM   19  C   UNL     1      43.503 -18.818   1.975  1.00  0.00     0.049 C 
HETATM   20  C   UNL     1      44.718 -21.037   4.819  1.00  0.00    -0.061 A 
HETATM   21  C   UNL     1      45.473 -22.325   4.981  1.00  0.00     0.048 C 
HETATM   22  C   UNL     1      44.233 -20.354   5.940  1.00  0.00     0.014 A 
HETATM   23  C   UNL     1      43.529 -19.146   5.806  1.00  0.00    -0.045 A 
HETATM   24  C   UNL     1      43.070 -18.434   7.049  1.00  0.00     0.049 C 
ENDBRANCH   1  16
TORSDOF 3
ENDMDL
MODEL 9
REMARK VINA RESULT:      -7.1      2.847      3.502
REMARK  3 active torsions:
REMARK  status: ('A' for Active; 'I' for Inactive)
REMARK    1  A    between atoms: C_6  and  C_7 
REMARK       I    between atoms: C_7  and  N_8 
REMARK    2  A    between atoms: N_8  and  C_9 
REMARK    3  A    between atoms: C_12  and  C_13 
REMARK       I    between atoms: C_13  and  N_14 
ROOT
HETATM    1  C   UNL     1      42.594 -17.604   3.620  1.00  0.00     0.257 C 
HETATM    2  N   UNL     1      43.387 -16.608   3.084  1.00  0.00    -0.322 N 
HETATM    3  O   UNL     1      41.388 -17.561   3.818  1.00  0.00    -0.267 OA
HETATM    4  H   UNL     1      44.376 -16.809   2.998  1.00  0.00     0.169 HD
ENDROOT
BRANCH   2   5
HETATM    5  C   UNL     1      42.953 -15.340   2.650  1.00  0.00     0.052 A 
HETATM    6  C   UNL     1      43.226 -14.136   3.301  1.00  0.00     0.147 A 
HETATM    7  N   UNL     1      42.810 -12.918   2.865  1.00  0.00    -0.253 NA
HETATM    8  C   UNL     1      42.076 -12.903   1.720  1.00  0.00     0.124 A 
HETATM    9  C   UNL     1      41.745 -14.044   1.002  1.00  0.00     0.039 A 
HETATM   10  C   UNL     1      42.197 -15.276   1.476  1.00  0.00     0.033 A 
BRANCH   8  11
HETATM   11  C   UNL     1      41.622 -11.561   1.238  1.00  0.00     0.268 C 
HETATM   12  N   UNL     1      42.476 -10.935   0.371  1.00  0.00    -0.365 N 
HETATM   13  H   UNL     1      43.342 -11.394   0.109  1.00  0.00     0.159 HD
HETATM   14  H   UNL     1      42.240 -10.028  -0.003  1.00  0.00     0.159 HD
HETATM   15  O   UNL     1      40.562 -11.056   1.587  1.00  0.00    -0.266 OA
ENDBRANCH   8  11
ENDBRANCH   2   5
BRANCH   1  16
HETATM   16  C   UNL     1      43.342 -18.832   4.004  1.00  0.00     0.044 A 
HETATM   17  C   UNL     1      43.633 -19.050   5.366  1.00  0.00    -0.045 A 
HETATM   18  C   UNL     1      44.319 -20.218   5.733  1.00  0.00     0.014 A 
HETATM   19  C   UNL     1      43.197 -18.087   6.438  1.00  0.00     0.049 C 
HETATM   20  C   UNL     1      44.719 -21.152   4.771  1.00  0.00    -0.061 A 
HETATM   21  C   UNL     1      45.476 -22.382   5.183  1.00  0.00     0.048 C 
HETATM   22  C   UNL     1      44.443 -20.908   3.421  1.00  0.00     0.014 A 
HETATM   23  C   UNL     1      43.732 -19.765   3.020  1.00  0.00    -0.045 A 
HETATM   24  C   UNL     1      43.425 -19.578   1.560  1.00  0.00     0.049 C 
ENDBRANCH   1  16
TORSDOF 3
ENDMDL
MODEL 10
REMARK VINA RESULT:      -6.9      4.135      5.436
REMARK  3 active torsions:
REMARK  status: ('A' for Active; 'I' for Inactive)
REMARK    1  A    between atoms: C_6  and  C_7 
REMARK       I    between atoms: C_7  and  N_8 
REMARK    2  A    between atoms: N_8  and  C_9 
REMARK    3  A    between atoms: C_12  and  C_13 
REMARK       I    between atoms: C_13  and  N_14 
ROOT
HETATM    1  C   UNL     1      41.356 -16.741   2.187  1.00  0.00     0.257 C 
HETATM    2  N   UNL     1      41.861 -15.861   1.250  1.00  0.00    -0.322 N 
HETATM    3  O   UNL     1      40.225 -17.203   2.231  1.00  0.00    -0.267 OA
HETATM    4  H   UNL     1      42.824 -15.570   1.369  1.00  0.00     0.169 HD
ENDROOT
BRANCH   2   5
HETATM    5  C   UNL     1      41.165 -15.327   0.147  1.00  0.00     0.052 A 
HETATM    6  C   UNL     1      41.268 -15.792  -1.165  1.00  0.00     0.147 A 
HETATM    7  N   UNL     1      40.583 -15.274  -2.218  1.00  0.00    -0.253 NA
HETATM    8  C   UNL     1      39.755 -14.230  -1.946  1.00  0.00     0.124 A 
HETATM    9  C   UNL     1      39.588 -13.689  -0.679  1.00  0.00     0.039 A 
HETATM   10  C   UNL     1      40.302 -14.253   0.379  1.00  0.00     0.033 A 
BRANCH   8  11
HETATM   11  C   UNL     1      38.998 -13.662  -3.106  1.00  0.00     0.268 C 
HETATM   12  N   UNL     1      39.706 -12.797  -3.895  1.00  0.00    -0.365 N 
HETATM   13  H   UNL     1      40.672 -12.590  -3.662  1.00  0.00     0.159 HD
HETATM   14  H   UNL     1      39.268 -12.375  -4.700  1.00  0.00     0.159 HD
HETATM   15  O   UNL     1      37.832 -13.952  -3.340  1.00  0.00    -0.266 OA
ENDBRANCH   8  11
ENDBRANCH   2   5
BRANCH   1  16
HETATM   16  C   UNL     1      42.327 -17.115   3.250  1.00  0.00     0.044 A 
HETATM   17  C   UNL     1      42.429 -16.297   4.394  1.00  0.00    -0.045 A 
HETATM   18  C   UNL     1      43.329 -16.659   5.408  1.00  0.00     0.014 A 
HETATM   19  C   UNL     1      41.576 -15.069   4.573  1.00  0.00     0.049 C 
HETATM   20  C   UNL     1      44.122 -17.806   5.293  1.00  0.00    -0.061 A 
HETATM   21  C   UNL     1      45.098 -18.161   6.377  1.00  0.00     0.048 C 
HETATM   22  C   UNL     1      44.025 -18.595   4.140  1.00  0.00     0.014 A 
HETATM   23  C   UNL     1      43.114 -18.279   3.119  1.00  0.00    -0.045 A 
HETATM   24  C   UNL     1      43.022 -19.188   1.924  1.00  0.00     0.049 C 
ENDBRANCH   1  16
TORSDOF 3
ENDMDL
