MODEL 1
REMARK VINA RESULT:      -7.7      0.000      0.000
REMARK  4 active torsions:
REMARK  status: ('A' for Active; 'I' for Inactive)
REMARK    1  A    between atoms: C_9  and  C_10 
REMARK    2  A    between atoms: C_19  and  C_20 
REMARK    3  A    between atoms: C_20  and  C_21 
REMARK    4  A    between atoms: C_21  and  O_22 
ROOT
HETATM    1  C   UNL     1      43.424 -18.163   1.187  1.00  0.00     0.069 C 
HETATM    2  C   UNL     1      43.687 -18.440   2.646  1.00  0.00     0.018 A 
HETATM    3  N   UNL     1      43.214 -17.483   3.536  1.00  0.00    -0.343 N 
HETATM    4  C   UNL     1      43.373 -17.602   4.874  1.00  0.00     0.146 A 
HETATM    5  N   UNL     1      44.013 -18.723   5.357  1.00  0.00    -0.179 N 
HETATM    6  N   UNL     1      44.074 -18.735   6.715  1.00  0.00    -0.167 NA
HETATM    7  C   UNL     1      43.484 -17.589   7.082  1.00  0.00     0.066 A 
HETATM    8  C   UNL     1      43.385 -17.245   8.524  1.00  0.00     0.073 C 
HETATM    9  C   UNL     1      43.028 -16.836   5.964  1.00  0.00     0.046 A 
HETATM   10  C   UNL     1      44.531 -19.752   4.555  1.00  0.00     0.278 A 
HETATM   11  O   UNL     1      45.089 -20.729   5.039  1.00  0.00    -0.265 OA
HETATM   12  C   UNL     1      44.332 -19.554   3.075  1.00  0.00     0.036 A 
HETATM   13  H   UNL     1      42.714 -16.690   3.136  1.00  0.00     0.167 HD
ENDROOT
BRANCH   9  14
HETATM   14  C   UNL     1      42.345 -15.559   5.897  1.00  0.00    -0.020 A 
HETATM   15  C   UNL     1      40.944 -15.503   5.882  1.00  0.00     0.014 A 
HETATM   16  C   UNL     1      40.287 -14.272   5.805  1.00  0.00     0.020 A 
HETATM   17  C   UNL     1      41.030 -13.096   5.740  1.00  0.00     0.011 A 
HETATM   18 BR   UNL     1      40.142 -11.431   5.632  1.00  0.00    -0.051 Br
HETATM   19  C   UNL     1      42.423 -13.138   5.751  1.00  0.00     0.020 A 
HETATM   20  C   UNL     1      43.079 -14.369   5.829  1.00  0.00     0.014 A 
ENDBRANCH   9  14
BRANCH  12  21
HETATM   21  C   UNL     1      44.936 -20.631   2.205  1.00  0.00     0.072 C 
BRANCH  21  22
HETATM   22  C   UNL     1      44.072 -21.889   2.121  1.00  0.00     0.169 C 
BRANCH  22  23
HETATM   23  O   UNL     1      44.611 -22.924   2.939  1.00  0.00    -0.401 OA
HETATM   24  H   UNL     1      45.564 -22.752   3.029  1.00  0.00     0.209 HD
ENDBRANCH  22  23
ENDBRANCH  21  22
ENDBRANCH  12  21
TORSDOF 4
ENDMDL
MODEL 2
REMARK VINA RESULT:      -7.3      2.886      3.490
REMARK  4 active torsions:
REMARK  status: ('A' for Active; 'I' for Inactive)
REMARK    1  A    between atoms: C_9  and  C_10 
REMARK    2  A    between atoms: C_19  and  C_20 
REMARK    3  A    between atoms: C_20  and  C_21 
REMARK    4  A    between atoms: C_21  and  O_22 
ROOT
HETATM    1  C   UNL     1      43.557 -20.488   1.928  1.00  0.00     0.069 C 
HETATM    2  C   UNL     1      43.673 -19.423   2.990  1.00  0.00     0.018 A 
HETATM    3  N   UNL     1      42.927 -18.272   2.773  1.00  0.00    -0.343 N 
HETATM    4  C   UNL     1      42.929 -17.237   3.644  1.00  0.00     0.146 A 
HETATM    5  N   UNL     1      43.689 -17.348   4.788  1.00  0.00    -0.179 N 
HETATM    6  N   UNL     1      43.575 -16.258   5.591  1.00  0.00    -0.167 NA
HETATM    7  C   UNL     1      42.748 -15.442   4.923  1.00  0.00     0.066 A 
HETATM    8  C   UNL     1      42.403 -14.116   5.498  1.00  0.00     0.073 C 
HETATM    9  C   UNL     1      42.314 -16.006   3.689  1.00  0.00     0.046 A 
HETATM   10  C   UNL     1      44.481 -18.461   5.112  1.00  0.00     0.278 A 
HETATM   11  O   UNL     1      45.137 -18.509   6.146  1.00  0.00    -0.265 OA
HETATM   12  C   UNL     1      44.444 -19.574   4.096  1.00  0.00     0.036 A 
HETATM   13  H   UNL     1      42.350 -18.249   1.933  1.00  0.00     0.167 HD
ENDROOT
BRANCH   9  14
HETATM   14  C   UNL     1      41.430 -15.482   2.667  1.00  0.00    -0.020 A 
HETATM   15  C   UNL     1      41.953 -14.830   1.542  1.00  0.00     0.014 A 
HETATM   16  C   UNL     1      41.099 -14.315   0.564  1.00  0.00     0.020 A 
HETATM   17  C   UNL     1      39.720 -14.448   0.711  1.00  0.00     0.011 A 
HETATM   18 BR   UNL     1      38.564 -13.748  -0.610  1.00  0.00    -0.051 Br
HETATM   19  C   UNL     1      39.187 -15.092   1.826  1.00  0.00     0.020 A 
HETATM   20  C   UNL     1      40.042 -15.608   2.804  1.00  0.00     0.014 A 
ENDBRANCH   9  14
BRANCH  12  21
HETATM   21  C   UNL     1      45.338 -20.750   4.412  1.00  0.00     0.072 C 
BRANCH  21  22
HETATM   22  C   UNL     1      44.632 -21.841   5.217  1.00  0.00     0.169 C 
BRANCH  22  23
HETATM   23  O   UNL     1      44.714 -23.094   4.543  1.00  0.00    -0.401 OA
HETATM   24  H   UNL     1      43.862 -23.237   4.096  1.00  0.00     0.209 HD
ENDBRANCH  22  23
ENDBRANCH  21  22
ENDBRANCH  12  21
TORSDOF 4
ENDMDL
MODEL 3
REMARK VINA RESULT:      -7.1      1.843      3.131
REMARK  4 active torsions:
REMARK  status: ('A' for Active; 'I' for Inactive)
REMARK    1  A    between atoms: C_9  and  C_10 
REMARK    2  A    between atoms: C_19  and  C_20 
REMARK    3  A    between atoms: C_20  and  C_21 
REMARK    4  A    between atoms: C_21  and  O_22 
ROOT
HETATM    1  C   UNL     1      45.331 -18.266   6.386  1.00  0.00     0.069 C 
HETATM    2  C   UNL     1      44.395 -18.274   5.203  1.00  0.00     0.018 A 
HETATM    3  N   UNL     1      43.548 -17.177   5.097  1.00  0.00    -0.343 N 
HETATM    4  C   UNL     1      42.660 -17.047   4.085  1.00  0.00     0.146 A 
HETATM    5  N   UNL     1      42.616 -18.035   3.126  1.00  0.00    -0.179 N 
HETATM    6  N   UNL     1      41.709 -17.766   2.150  1.00  0.00    -0.167 NA
HETATM    7  C   UNL     1      41.161 -16.601   2.522  1.00  0.00     0.066 A 
HETATM    8  C   UNL     1      40.091 -15.996   1.689  1.00  0.00     0.073 C 
HETATM    9  C   UNL     1      41.719 -16.106   3.735  1.00  0.00     0.046 A 
HETATM   10  C   UNL     1      43.422 -19.185   3.130  1.00  0.00     0.278 A 
HETATM   11  O   UNL     1      43.343 -20.032   2.248  1.00  0.00    -0.265 OA
HETATM   12  C   UNL     1      44.380 -19.275   4.289  1.00  0.00     0.036 A 
HETATM   13  H   UNL     1      43.642 -16.453   5.809  1.00  0.00     0.167 HD
ENDROOT
BRANCH   9  14
HETATM   14  C   UNL     1      41.431 -14.902   4.488  1.00  0.00    -0.020 A 
HETATM   15  C   UNL     1      40.284 -14.824   5.291  1.00  0.00     0.014 A 
HETATM   16  C   UNL     1      40.000 -13.658   6.006  1.00  0.00     0.020 A 
HETATM   17  C   UNL     1      40.862 -12.567   5.918  1.00  0.00     0.011 A 
HETATM   18 BR   UNL     1      40.476 -10.989   6.883  1.00  0.00    -0.051 Br
HETATM   19  C   UNL     1      42.004 -12.630   5.123  1.00  0.00     0.020 A 
HETATM   20  C   UNL     1      42.287 -13.797   4.408  1.00  0.00     0.014 A 
ENDBRANCH   9  14
BRANCH  12  21
HETATM   21  C   UNL     1      45.210 -20.536   4.328  1.00  0.00     0.072 C 
BRANCH  21  22
HETATM   22  C   UNL     1      44.640 -21.602   5.264  1.00  0.00     0.169 C 
BRANCH  22  23
HETATM   23  O   UNL     1      44.841 -22.905   4.723  1.00  0.00    -0.401 OA
HETATM   24  H   UNL     1      44.510 -23.543   5.379  1.00  0.00     0.209 HD
ENDBRANCH  22  23
ENDBRANCH  21  22
ENDBRANCH  12  21
TORSDOF 4
ENDMDL
MODEL 4
REMARK VINA RESULT:      -6.8      5.869      7.677
REMARK  4 active torsions:
REMARK  status: ('A' for Active; 'I' for Inactive)
REMARK    1  A    between atoms: C_9  and  C_10 
REMARK    2  A    between atoms: C_19  and  C_20 
REMARK    3  A    between atoms: C_20  and  C_21 
REMARK    4  A    between atoms: C_21  and  O_22 
ROOT
HETATM    1  C   UNL     1      40.644 -15.906  -2.716  1.00  0.00     0.069 C 
HETATM    2  C   UNL     1      41.004 -14.984  -1.578  1.00  0.00     0.018 A 
HETATM    3  N   UNL     1      41.624 -15.585  -0.489  1.00  0.00    -0.343 N 
HETATM    4  C   UNL     1      42.008 -14.881   0.600  1.00  0.00     0.146 A 
HETATM    5  N   UNL     1      41.786 -13.521   0.609  1.00  0.00    -0.179 N 
HETATM    6  N   UNL     1      42.250 -12.930   1.743  1.00  0.00    -0.167 NA
HETATM    7  C   UNL     1      42.747 -13.945   2.463  1.00  0.00     0.066 A 
HETATM    8  C   UNL     1      43.332 -13.676   3.802  1.00  0.00     0.073 C 
HETATM    9  C   UNL     1      42.618 -15.196   1.794  1.00  0.00     0.046 A 
HETATM   10  C   UNL     1      41.170 -12.808  -0.432  1.00  0.00     0.278 A 
HETATM   11  O   UNL     1      41.000 -11.596  -0.372  1.00  0.00    -0.265 OA
HETATM   12  C   UNL     1      40.756 -13.651  -1.609  1.00  0.00     0.036 A 
HETATM   13  H   UNL     1      41.801 -16.586  -0.555  1.00  0.00     0.167 HD
ENDROOT
BRANCH   9  14
HETATM   14  C   UNL     1      43.013 -16.531   2.196  1.00  0.00    -0.020 A 
HETATM   15  C   UNL     1      42.464 -17.119   3.344  1.00  0.00     0.014 A 
HETATM   16  C   UNL     1      42.855 -18.400   3.738  1.00  0.00     0.020 A 
HETATM   17  C   UNL     1      43.799 -19.096   2.985  1.00  0.00     0.011 A 
HETATM   18 BR   UNL     1      44.332 -20.828   3.519  1.00  0.00    -0.051 Br
HETATM   19  C   UNL     1      44.355 -18.522   1.844  1.00  0.00     0.020 A 
HETATM   20  C   UNL     1      43.962 -17.240   1.450  1.00  0.00     0.014 A 
ENDBRANCH   9  14
BRANCH  12  21
HETATM   21  C   UNL     1      40.044 -12.898  -2.708  1.00  0.00     0.072 C 
BRANCH  21  22
HETATM   22  C   UNL     1      40.995 -12.118  -3.616  1.00  0.00     0.169 C 
BRANCH  22  23
HETATM   23  O   UNL     1      42.149 -12.897  -3.921  1.00  0.00    -0.401 OA
HETATM   24  H   UNL     1      42.927 -12.358  -3.699  1.00  0.00     0.209 HD
ENDBRANCH  22  23
ENDBRANCH  21  22
ENDBRANCH  12  21
TORSDOF 4
ENDMDL
MODEL 5
REMARK VINA RESULT:      -6.6      3.630      4.784
REMARK  4 active torsions:
REMARK  status: ('A' for Active; 'I' for Inactive)
REMARK    1  A    between atoms: C_9  and  C_10 
REMARK    2  A    between atoms: C_19  and  C_20 
REMARK    3  A    between atoms: C_20  and  C_21 
REMARK    4  A    between atoms: C_21  and  O_22 
ROOT
HETATM    1  C   UNL     1      43.045 -19.088   2.445  1.00  0.00     0.069 C 
HETATM    2  C   UNL     1      42.508 -18.128   3.478  1.00  0.00     0.018 A 
HETATM    3  N   UNL     1      41.751 -17.073   2.984  1.00  0.00    -0.343 N 
HETATM    4  C   UNL     1      41.202 -16.139   3.794  1.00  0.00     0.146 A 
HETATM    5  N   UNL     1      41.395 -16.260   5.153  1.00  0.00    -0.179 N 
HETATM    6  N   UNL     1      40.763 -15.280   5.852  1.00  0.00    -0.167 NA
HETATM    7  C   UNL     1      40.188 -14.521   4.909  1.00  0.00     0.066 A 
HETATM    8  C   UNL     1      39.412 -13.319   5.309  1.00  0.00     0.073 C 
HETATM    9  C   UNL     1      40.434 -15.014   3.596  1.00  0.00     0.046 A 
HETATM   10  C   UNL     1      42.140 -17.281   5.763  1.00  0.00     0.278 A 
HETATM   11  O   UNL     1      42.277 -17.342   6.979  1.00  0.00    -0.265 OA
HETATM   12  C   UNL     1      42.733 -18.282   4.806  1.00  0.00     0.036 A 
HETATM   13  H   UNL     1      41.603 -17.045   1.976  1.00  0.00     0.167 HD
ENDROOT
BRANCH   9  14
HETATM   14  C   UNL     1      40.010 -14.516   2.303  1.00  0.00    -0.020 A 
HETATM   15  C   UNL     1      40.912 -13.836   1.472  1.00  0.00     0.014 A 
HETATM   16  C   UNL     1      40.499 -13.346   0.232  1.00  0.00     0.020 A 
HETATM   17  C   UNL     1      39.181 -13.532  -0.180  1.00  0.00     0.011 A 
HETATM   18 BR   UNL     1      38.621 -12.866  -1.858  1.00  0.00    -0.051 Br
HETATM   19  C   UNL     1      38.274 -14.204   0.636  1.00  0.00     0.020 A 
HETATM   20  C   UNL     1      38.688 -14.695   1.877  1.00  0.00     0.014 A 
ENDBRANCH   9  14
BRANCH  12  21
HETATM   21  C   UNL     1      43.581 -19.351   5.453  1.00  0.00     0.072 C 
BRANCH  21  22
HETATM   22  C   UNL     1      45.051 -18.954   5.587  1.00  0.00     0.169 C 
BRANCH  22  23
HETATM   23  O   UNL     1      45.244 -18.123   6.729  1.00  0.00    -0.401 OA
HETATM   24  H   UNL     1      44.665 -17.349   6.624  1.00  0.00     0.209 HD
ENDBRANCH  22  23
ENDBRANCH  21  22
ENDBRANCH  12  21
TORSDOF 4
ENDMDL
MODEL 6
REMARK VINA RESULT:      -6.5      4.473      7.002
REMARK  4 active torsions:
REMARK  status: ('A' for Active; 'I' for Inactive)
REMARK    1  A    between atoms: C_9  and  C_10 
REMARK    2  A    between atoms: C_19  and  C_20 
REMARK    3  A    between atoms: C_20  and  C_21 
REMARK    4  A    between atoms: C_21  and  O_22 
ROOT
HETATM    1  C   UNL     1      39.302 -14.737   1.906  1.00  0.00     0.069 C 
HETATM    2  C   UNL     1      40.211 -14.653   3.107  1.00  0.00     0.018 A 
HETATM    3  N   UNL     1      41.110 -15.702   3.257  1.00  0.00    -0.343 N 
HETATM    4  C   UNL     1      41.989 -15.756   4.284  1.00  0.00     0.146 A 
HETATM    5  N   UNL     1      41.992 -14.723   5.195  1.00  0.00    -0.179 N 
HETATM    6  N   UNL     1      42.943 -14.883   6.153  1.00  0.00    -0.167 NA
HETATM    7  C   UNL     1      43.526 -16.051   5.846  1.00  0.00     0.066 A 
HETATM    8  C   UNL     1      44.620 -16.571   6.705  1.00  0.00     0.073 C 
HETATM    9  C   UNL     1      42.962 -16.645   4.682  1.00  0.00     0.046 A 
HETATM   10  C   UNL     1      41.132 -13.615   5.145  1.00  0.00     0.278 A 
HETATM   11  O   UNL     1      41.180 -12.721   5.982  1.00  0.00    -0.265 OA
HETATM   12  C   UNL     1      40.171 -13.620   3.984  1.00  0.00     0.036 A 
HETATM   13  H   UNL     1      41.097 -16.425   2.539  1.00  0.00     0.167 HD
ENDROOT
BRANCH   9  14
HETATM   14  C   UNL     1      43.281 -17.885   4.002  1.00  0.00    -0.020 A 
HETATM   15  C   UNL     1      43.992 -18.896   4.665  1.00  0.00     0.014 A 
HETATM   16  C   UNL     1      44.309 -20.085   4.005  1.00  0.00     0.020 A 
HETATM   17  C   UNL     1      43.919 -20.265   2.679  1.00  0.00     0.011 A 
HETATM   18 BR   UNL     1      44.351 -21.872   1.785  1.00  0.00    -0.051 Br
HETATM   19  C   UNL     1      43.214 -19.267   2.009  1.00  0.00     0.020 A 
HETATM   20  C   UNL     1      42.896 -18.078   2.670  1.00  0.00     0.014 A 
ENDBRANCH   9  14
BRANCH  12  21
HETATM   21  C   UNL     1      39.206 -12.458   3.956  1.00  0.00     0.072 C 
BRANCH  21  22
HETATM   22  C   UNL     1      39.727 -11.263   3.157  1.00  0.00     0.169 C 
BRANCH  22  23
HETATM   23  O   UNL     1      40.637 -10.494   3.939  1.00  0.00    -0.401 OA
HETATM   24  H   UNL     1      40.146  -9.726   4.279  1.00  0.00     0.209 HD
ENDBRANCH  22  23
ENDBRANCH  21  22
ENDBRANCH  12  21
TORSDOF 4
ENDMDL
MODEL 7
REMARK VINA RESULT:      -6.5      5.977      7.762
REMARK  4 active torsions:
REMARK  status: ('A' for Active; 'I' for Inactive)
REMARK    1  A    between atoms: C_9  and  C_10 
REMARK    2  A    between atoms: C_19  and  C_20 
REMARK    3  A    between atoms: C_20  and  C_21 
REMARK    4  A    between atoms: C_21  and  O_22 
ROOT
HETATM    1  C   UNL     1      41.103 -15.558  -3.027  1.00  0.00     0.069 C 
HETATM    2  C   UNL     1      40.589 -15.028  -1.711  1.00  0.00     0.018 A 
HETATM    3  N   UNL     1      41.083 -15.658  -0.574  1.00  0.00    -0.343 N 
HETATM    4  C   UNL     1      40.715 -15.285   0.673  1.00  0.00     0.146 A 
HETATM    5  N   UNL     1      39.834 -14.234   0.806  1.00  0.00    -0.179 N 
HETATM    6  N   UNL     1      39.577 -13.939   2.108  1.00  0.00    -0.167 NA
HETATM    7  C   UNL     1      40.291 -14.840   2.797  1.00  0.00     0.066 A 
HETATM    8  C   UNL     1      40.237 -14.837   4.282  1.00  0.00     0.073 C 
HETATM    9  C   UNL     1      41.023 -15.713   1.944  1.00  0.00     0.046 A 
HETATM   10  C   UNL     1      39.272 -13.525  -0.268  1.00  0.00     0.278 A 
HETATM   11  O   UNL     1      38.495 -12.595  -0.091  1.00  0.00    -0.265 OA
HETATM   12  C   UNL     1      39.713 -13.997  -1.629  1.00  0.00     0.036 A 
HETATM   13  H   UNL     1      41.760 -16.405  -0.720  1.00  0.00     0.167 HD
ENDROOT
BRANCH   9  14
HETATM   14  C   UNL     1      41.913 -16.815   2.255  1.00  0.00    -0.020 A 
HETATM   15  C   UNL     1      42.992 -16.631   3.131  1.00  0.00     0.014 A 
HETATM   16  C   UNL     1      43.855 -17.690   3.420  1.00  0.00     0.020 A 
HETATM   17  C   UNL     1      43.643 -18.935   2.831  1.00  0.00     0.011 A 
HETATM   18 BR   UNL     1      44.813 -20.367   3.219  1.00  0.00    -0.051 Br
HETATM   19  C   UNL     1      42.576 -19.131   1.957  1.00  0.00     0.020 A 
HETATM   20  C   UNL     1      41.712 -18.071   1.669  1.00  0.00     0.014 A 
ENDBRANCH   9  14
BRANCH  12  21
HETATM   21  C   UNL     1      39.069 -13.274  -2.789  1.00  0.00     0.072 C 
BRANCH  21  22
HETATM   22  C   UNL     1      37.698 -13.838  -3.161  1.00  0.00     0.169 C 
BRANCH  22  23
HETATM   23  O   UNL     1      37.585 -15.197  -2.747  1.00  0.00    -0.401 OA
HETATM   24  H   UNL     1      37.905 -15.749  -3.481  1.00  0.00     0.209 HD
ENDBRANCH  22  23
ENDBRANCH  21  22
ENDBRANCH  12  21
TORSDOF 4
ENDMDL
MODEL 8
REMARK VINA RESULT:      -6.4      3.578      5.311
REMARK  4 active torsions:
REMARK  status: ('A' for Active; 'I' for Inactive)
REMARK    1  A    between atoms: C_9  and  C_10 
REMARK    2  A    between atoms: C_19  and  C_20 
REMARK    3  A    between atoms: C_20  and  C_21 
REMARK    4  A    between atoms: C_21  and  O_22 
ROOT
HETATM    1  C   UNL     1      40.825 -16.541   6.296  1.00  0.00     0.069 C 
HETATM    2  C   UNL     1      41.239 -16.803   4.869  1.00  0.00     0.018 A 
HETATM    3  N   UNL     1      40.669 -15.970   3.914  1.00  0.00    -0.343 N 
HETATM    4  C   UNL     1      40.953 -16.086   2.596  1.00  0.00     0.146 A 
HETATM    5  N   UNL     1      41.850 -17.055   2.205  1.00  0.00    -0.179 N 
HETATM    6  N   UNL     1      42.072 -17.041   0.864  1.00  0.00    -0.167 NA
HETATM    7  C   UNL     1      41.279 -16.061   0.409  1.00  0.00     0.066 A 
HETATM    8  C   UNL     1      41.240 -15.765  -1.046  1.00  0.00     0.073 C 
HETATM    9  C   UNL     1      40.549 -15.429   1.456  1.00  0.00     0.046 A 
HETATM   10  C   UNL     1      42.487 -17.951   3.079  1.00  0.00     0.278 A 
HETATM   11  O   UNL     1      43.280 -18.793   2.676  1.00  0.00    -0.265 OA
HETATM   12  C   UNL     1      42.120 -17.777   4.530  1.00  0.00     0.036 A 
HETATM   13  H   UNL     1      40.040 -15.244   4.253  1.00  0.00     0.167 HD
ENDROOT
BRANCH   9  14
HETATM   14  C   UNL     1      39.593 -14.340   1.421  1.00  0.00    -0.020 A 
HETATM   15  C   UNL     1      38.309 -14.539   0.892  1.00  0.00     0.014 A 
HETATM   16  C   UNL     1      37.393 -13.486   0.847  1.00  0.00     0.020 A 
HETATM   17  C   UNL     1      37.760 -12.230   1.328  1.00  0.00     0.011 A 
HETATM   18 BR   UNL     1      36.522 -10.804   1.264  1.00  0.00    -0.051 Br
HETATM   19  C   UNL     1      39.032 -12.019   1.854  1.00  0.00     0.020 A 
HETATM   20  C   UNL     1      39.948 -13.073   1.899  1.00  0.00     0.014 A 
ENDBRANCH   9  14
BRANCH  12  21
HETATM   21  C   UNL     1      42.759 -18.774   5.468  1.00  0.00     0.072 C 
BRANCH  21  22
HETATM   22  C   UNL     1      44.158 -18.359   5.922  1.00  0.00     0.169 C 
BRANCH  22  23
HETATM   23  O   UNL     1      45.154 -19.056   5.179  1.00  0.00    -0.401 OA
HETATM   24  H   UNL     1      44.724 -19.829   4.774  1.00  0.00     0.209 HD
ENDBRANCH  22  23
ENDBRANCH  21  22
ENDBRANCH  12  21
TORSDOF 4
ENDMDL
MODEL 9
REMARK VINA RESULT:      -6.2      5.782      7.694
REMARK  4 active torsions:
REMARK  status: ('A' for Active; 'I' for Inactive)
REMARK    1  A    between atoms: C_9  and  C_10 
REMARK    2  A    between atoms: C_19  and  C_20 
REMARK    3  A    between atoms: C_20  and  C_21 
REMARK    4  A    between atoms: C_21  and  O_22 
ROOT
HETATM    1  C   UNL     1      40.516 -14.969  -1.981  1.00  0.00     0.069 C 
HETATM    2  C   UNL     1      41.013 -14.278  -0.735  1.00  0.00     0.018 A 
HETATM    3  N   UNL     1      41.679 -15.087   0.178  1.00  0.00    -0.343 N 
HETATM    4  C   UNL     1      42.183 -14.603   1.336  1.00  0.00     0.146 A 
HETATM    5  N   UNL     1      42.040 -13.258   1.598  1.00  0.00    -0.179 N 
HETATM    6  N   UNL     1      42.621 -12.897   2.773  1.00  0.00    -0.167 NA
HETATM    7  C   UNL     1      43.113 -14.044   3.263  1.00  0.00     0.066 A 
HETATM    8  C   UNL     1      43.812 -14.040   4.573  1.00  0.00     0.073 C 
HETATM    9  C   UNL     1      42.863 -15.149   2.401  1.00  0.00     0.046 A 
HETATM   10  C   UNL     1      41.388 -12.347   0.751  1.00  0.00     0.278 A 
HETATM   11  O   UNL     1      41.292 -11.159   1.033  1.00  0.00    -0.265 OA
HETATM   12  C   UNL     1      40.839 -12.951  -0.515  1.00  0.00     0.036 A 
HETATM   13  H   UNL     1      41.794 -16.068  -0.075  1.00  0.00     0.167 HD
ENDROOT
BRANCH   9  14
HETATM   14  C   UNL     1      43.212 -16.550   2.532  1.00  0.00    -0.020 A 
HETATM   15  C   UNL     1      43.995 -17.182   1.556  1.00  0.00     0.014 A 
HETATM   16  C   UNL     1      44.321 -18.534   1.677  1.00  0.00     0.020 A 
HETATM   17  C   UNL     1      43.860 -19.260   2.774  1.00  0.00     0.011 A 
HETATM   18 BR   UNL     1      44.297 -21.091   2.937  1.00  0.00    -0.051 Br
HETATM   19  C   UNL     1      43.079 -18.645   3.750  1.00  0.00     0.020 A 
HETATM   20  C   UNL     1      42.754 -17.291   3.629  1.00  0.00     0.014 A 
ENDBRANCH   9  14
BRANCH  12  21
HETATM   21  C   UNL     1      40.089 -11.987  -1.403  1.00  0.00     0.072 C 
BRANCH  21  22
HETATM   22  C   UNL     1      38.606 -11.876  -1.051  1.00  0.00     0.169 C 
BRANCH  22  23
HETATM   23  O   UNL     1      38.414 -10.980   0.041  1.00  0.00    -0.401 OA
HETATM   24  H   UNL     1      39.060 -11.222   0.727  1.00  0.00     0.209 HD
ENDBRANCH  22  23
ENDBRANCH  21  22
ENDBRANCH  12  21
TORSDOF 4
ENDMDL
MODEL 10
REMARK VINA RESULT:      -6.2      2.609      4.457
REMARK  4 active torsions:
REMARK  status: ('A' for Active; 'I' for Inactive)
REMARK    1  A    between atoms: C_9  and  C_10 
REMARK    2  A    between atoms: C_19  and  C_20 
REMARK    3  A    between atoms: C_20  and  C_21 
REMARK    4  A    between atoms: C_21  and  O_22 
ROOT
HETATM    1  C   UNL     1      43.858 -16.173   6.972  1.00  0.00     0.069 C 
HETATM    2  C   UNL     1      43.596 -16.724   5.592  1.00  0.00     0.018 A 
HETATM    3  N   UNL     1      42.904 -15.884   4.729  1.00  0.00    -0.343 N 
HETATM    4  C   UNL     1      42.605 -16.243   3.460  1.00  0.00     0.146 A 
HETATM    5  N   UNL     1      43.020 -17.480   3.017  1.00  0.00    -0.179 N 
HETATM    6  N   UNL     1      42.687 -17.701   1.717  1.00  0.00    -0.167 NA
HETATM    7  C   UNL     1      42.030 -16.591   1.353  1.00  0.00     0.066 A 
HETATM    8  C   UNL     1      41.486 -16.481  -0.025  1.00  0.00     0.073 C 
HETATM    9  C   UNL     1      41.945 -15.642   2.411  1.00  0.00     0.046 A 
HETATM   10  C   UNL     1      43.725 -18.410   3.798  1.00  0.00     0.278 A 
HETATM   11  O   UNL     1      44.073 -19.496   3.352  1.00  0.00    -0.265 OA
HETATM   12  C   UNL     1      44.017 -17.953   5.204  1.00  0.00     0.036 A 
HETATM   13  H   UNL     1      42.649 -14.964   5.087  1.00  0.00     0.167 HD
ENDROOT
BRANCH   9  14
HETATM   14  C   UNL     1      41.336 -14.328   2.459  1.00  0.00    -0.020 A 
HETATM   15  C   UNL     1      42.066 -13.192   2.084  1.00  0.00     0.014 A 
HETATM   16  C   UNL     1      41.482 -11.925   2.142  1.00  0.00     0.020 A 
HETATM   17  C   UNL     1      40.165 -11.791   2.578  1.00  0.00     0.011 A 
HETATM   18 BR   UNL     1      39.374 -10.077   2.660  1.00  0.00    -0.051 Br
HETATM   19  C   UNL     1      39.428 -12.912   2.956  1.00  0.00     0.020 A 
HETATM   20  C   UNL     1      40.014 -14.179   2.897  1.00  0.00     0.014 A 
ENDBRANCH   9  14
BRANCH  12  21
HETATM   21  C   UNL     1      44.726 -18.972   6.066  1.00  0.00     0.072 C 
BRANCH  21  22
HETATM   22  C   UNL     1      43.766 -19.861   6.857  1.00  0.00     0.169 C 
BRANCH  22  23
HETATM   23  O   UNL     1      43.743 -19.476   8.230  1.00  0.00    -0.401 OA
HETATM   24  H   UNL     1      42.810 -19.423   8.498  1.00  0.00     0.209 HD
ENDBRANCH  22  23
ENDBRANCH  21  22
ENDBRANCH  12  21
TORSDOF 4
ENDMDL
