MODEL 1
REMARK VINA RESULT:      -8.8      0.000      0.000
REMARK  6 active torsions:
REMARK  status: ('A' for Active; 'I' for Inactive)
REMARK    1  A    between atoms: C_2  and  C_3 
REMARK    2  A    between atoms: C_3  and  N_4 
REMARK       I    between atoms: N_4  and  C_5 
REMARK    3  A    between atoms: C_5  and  C_6 
REMARK    4  A    between atoms: C_8  and  C_9 
REMARK    5  A    between atoms: C_9  and  N_10 
REMARK       I    between atoms: N_10  and  C_11 
REMARK    6  A    between atoms: C_11  and  C_12 
ROOT
HETATM    1  C   UNL     1      45.067 -13.683   7.052  1.00  0.00     0.161 C 
ENDROOT
BRANCH   1   2
HETATM    2  C   UNL     1      44.101 -14.394   6.142  1.00  0.00    -0.040 A 
HETATM    3  C   UNL     1      44.123 -15.795   6.055  1.00  0.00     0.026 A 
HETATM    4  C   UNL     1      43.245 -16.472   5.202  1.00  0.00     0.032 A 
HETATM    5  C   UNL     1      42.312 -15.750   4.452  1.00  0.00     0.017 A 
HETATM    6  C   UNL     1      42.288 -14.357   4.524  1.00  0.00     0.002 A 
HETATM    7  C   UNL     1      43.185 -13.681   5.357  1.00  0.00     0.009 A 
BRANCH   4   8
HETATM    8  C   UNL     1      43.270 -17.956   5.086  1.00  0.00     0.252 C 
HETATM    9  N   UNL     1      43.925 -18.457   3.980  1.00  0.00    -0.353 N 
HETATM   10  H   UNL     1      44.178 -17.815   3.239  1.00  0.00     0.163 HD
HETATM   11  O   UNL     1      42.703 -18.649   5.923  1.00  0.00    -0.268 OA
BRANCH   9  12
HETATM   12  C   UNL     1      43.963 -19.883   3.684  1.00  0.00     0.080 C 
HETATM   13  C   UNL     1      45.233 -20.500   4.263  1.00  0.00     0.032 C 
BRANCH  12  14
HETATM   14  C   UNL     1      43.805 -20.165   2.179  1.00  0.00     0.020 C 
HETATM   15  C   UNL     1      43.988 -21.625   1.782  1.00  0.00     0.007 C 
ENDBRANCH  12  14
ENDBRANCH   9  12
ENDBRANCH   4   8
ENDBRANCH   1   2
BRANCH   1  16
HETATM   16  N   UNL     1      44.467 -13.322   8.308  1.00  0.00    -0.351 N 
HETATM   17  C   UNL     1      44.859 -12.232   9.053  1.00  0.00     0.273 C 
HETATM   18  O   UNL     1      45.702 -11.420   8.679  1.00  0.00    -0.266 OA
HETATM   19  H   UNL     1      43.755 -13.909   8.732  1.00  0.00     0.163 HD
BRANCH  17  20
HETATM   20  C   UNL     1      44.172 -12.145  10.353  1.00  0.00     0.157 A 
HETATM   21  N   UNL     1      44.397 -13.056  11.327  1.00  0.00    -0.168 NA
HETATM   22  N   UNL     1      43.634 -12.624  12.348  1.00  0.00    -0.277 N 
HETATM   23  H   UNL     1      43.647 -13.151  13.214  1.00  0.00     0.189 HD
HETATM   24  C   UNL     1      42.913 -11.494  12.080  1.00  0.00     0.063 A 
HETATM   25  C   UNL     1      43.238 -11.153  10.773  1.00  0.00     0.029 A 
HETATM   26  C   UNL     1      42.022 -10.755  12.863  1.00  0.00     0.032 A 
HETATM   27  C   UNL     1      42.636 -10.016  10.199  1.00  0.00     0.023 A 
HETATM   28  C   UNL     1      41.727  -9.256  10.956  1.00  0.00    -0.061 A 
HETATM   29  C   UNL     1      41.434  -9.630  12.272  1.00  0.00     0.009 A 
HETATM   30  C   UNL     1      41.074  -8.055  10.334  1.00  0.00     0.048 C 
ENDBRANCH  17  20
ENDBRANCH   1  16
TORSDOF 6
ENDMDL
MODEL 2
REMARK VINA RESULT:      -8.7      1.469      2.013
REMARK  6 active torsions:
REMARK  status: ('A' for Active; 'I' for Inactive)
REMARK    1  A    between atoms: C_2  and  C_3 
REMARK    2  A    between atoms: C_3  and  N_4 
REMARK       I    between atoms: N_4  and  C_5 
REMARK    3  A    between atoms: C_5  and  C_6 
REMARK    4  A    between atoms: C_8  and  C_9 
REMARK    5  A    between atoms: C_9  and  N_10 
REMARK       I    between atoms: N_10  and  C_11 
REMARK    6  A    between atoms: C_11  and  C_12 
ROOT
HETATM    1  C   UNL     1      44.725 -13.950   7.607  1.00  0.00     0.161 C 
ENDROOT
BRANCH   1   2
HETATM    2  C   UNL     1      44.170 -14.601   6.367  1.00  0.00    -0.040 A 
HETATM    3  C   UNL     1      44.081 -16.000   6.291  1.00  0.00     0.026 A 
HETATM    4  C   UNL     1      43.583 -16.623   5.141  1.00  0.00     0.032 A 
HETATM    5  C   UNL     1      43.138 -15.846   4.069  1.00  0.00     0.017 A 
HETATM    6  C   UNL     1      43.230 -14.454   4.131  1.00  0.00     0.002 A 
HETATM    7  C   UNL     1      43.753 -13.835   5.270  1.00  0.00     0.009 A 
BRANCH   4   8
HETATM    8  C   UNL     1      43.501 -18.106   5.040  1.00  0.00     0.252 C 
HETATM    9  N   UNL     1      44.033 -18.656   3.891  1.00  0.00    -0.353 N 
HETATM   10  H   UNL     1      44.268 -18.036   3.126  1.00  0.00     0.163 HD
HETATM   11  O   UNL     1      42.958 -18.755   5.926  1.00  0.00    -0.268 OA
BRANCH   9  12
HETATM   12  C   UNL     1      43.953 -20.082   3.608  1.00  0.00     0.080 C 
HETATM   13  C   UNL     1      45.164 -20.798   4.201  1.00  0.00     0.032 C 
BRANCH  12  14
HETATM   14  C   UNL     1      43.780 -20.365   2.105  1.00  0.00     0.020 C 
HETATM   15  C   UNL     1      44.024 -21.812   1.696  1.00  0.00     0.007 C 
ENDBRANCH  12  14
ENDBRANCH   9  12
ENDBRANCH   4   8
ENDBRANCH   1   2
BRANCH   1  16
HETATM   16  N   UNL     1      44.030 -12.737   7.943  1.00  0.00    -0.351 N 
HETATM   17  C   UNL     1      44.097 -12.142   9.183  1.00  0.00     0.273 C 
HETATM   18  O   UNL     1      44.816 -12.545  10.094  1.00  0.00    -0.266 OA
HETATM   19  H   UNL     1      43.401 -12.297   7.279  1.00  0.00     0.163 HD
BRANCH  17  20
HETATM   20  C   UNL     1      43.205 -10.977   9.312  1.00  0.00     0.157 A 
HETATM   21  N   UNL     1      42.502 -10.511   8.255  1.00  0.00    -0.168 NA
HETATM   22  N   UNL     1      41.794  -9.489   8.769  1.00  0.00    -0.277 N 
HETATM   23  H   UNL     1      41.168  -8.981   8.155  1.00  0.00     0.189 HD
HETATM   24  C   UNL     1      42.014  -9.257  10.098  1.00  0.00     0.063 A 
HETATM   25  C   UNL     1      42.943 -10.214  10.488  1.00  0.00     0.029 A 
HETATM   26  C   UNL     1      41.484  -8.306  10.974  1.00  0.00     0.032 A 
HETATM   27  C   UNL     1      43.383 -10.226  11.826  1.00  0.00     0.023 A 
HETATM   28  C   UNL     1      42.877  -9.277  12.731  1.00  0.00    -0.061 A 
HETATM   29  C   UNL     1      41.937  -8.335  12.298  1.00  0.00     0.009 A 
HETATM   30  C   UNL     1      43.363  -9.281  14.152  1.00  0.00     0.048 C 
ENDBRANCH  17  20
ENDBRANCH   1  16
TORSDOF 6
ENDMDL
MODEL 3
REMARK VINA RESULT:      -8.7      1.921     10.077
REMARK  6 active torsions:
REMARK  status: ('A' for Active; 'I' for Inactive)
REMARK    1  A    between atoms: C_2  and  C_3 
REMARK    2  A    between atoms: C_3  and  N_4 
REMARK       I    between atoms: N_4  and  C_5 
REMARK    3  A    between atoms: C_5  and  C_6 
REMARK    4  A    between atoms: C_8  and  C_9 
REMARK    5  A    between atoms: C_9  and  N_10 
REMARK       I    between atoms: N_10  and  C_11 
REMARK    6  A    between atoms: C_11  and  C_12 
ROOT
HETATM    1  C   UNL     1      43.748 -18.028   7.472  1.00  0.00     0.161 C 
ENDROOT
BRANCH   1   2
HETATM    2  C   UNL     1      43.748 -16.635   6.899  1.00  0.00    -0.040 A 
HETATM    3  C   UNL     1      44.327 -15.581   7.622  1.00  0.00     0.026 A 
HETATM    4  C   UNL     1      44.322 -14.277   7.114  1.00  0.00     0.032 A 
HETATM    5  C   UNL     1      43.764 -14.025   5.857  1.00  0.00     0.017 A 
HETATM    6  C   UNL     1      43.178 -15.065   5.134  1.00  0.00     0.002 A 
HETATM    7  C   UNL     1      43.160 -16.361   5.656  1.00  0.00     0.009 A 
BRANCH   4   8
HETATM    8  C   UNL     1      44.916 -13.147   7.878  1.00  0.00     0.252 C 
HETATM    9  N   UNL     1      44.080 -12.541   8.794  1.00  0.00    -0.353 N 
HETATM   10  H   UNL     1      43.092 -12.763   8.763  1.00  0.00     0.163 HD
HETATM   11  O   UNL     1      46.066 -12.788   7.654  1.00  0.00    -0.268 OA
BRANCH   9  12
HETATM   12  C   UNL     1      44.488 -11.370   9.557  1.00  0.00     0.080 C 
HETATM   13  C   UNL     1      45.375 -11.794  10.725  1.00  0.00     0.032 C 
BRANCH  12  14
HETATM   14  C   UNL     1      43.283 -10.526  10.010  1.00  0.00     0.020 C 
HETATM   15  C   UNL     1      42.851 -10.754  11.453  1.00  0.00     0.007 C 
ENDBRANCH  12  14
ENDBRANCH   9  12
ENDBRANCH   4   8
ENDBRANCH   1   2
BRANCH   1  16
HETATM   16  N   UNL     1      43.947 -19.033   6.462  1.00  0.00    -0.351 N 
HETATM   17  C   UNL     1      43.904 -20.385   6.716  1.00  0.00     0.273 C 
HETATM   18  O   UNL     1      43.614 -20.863   7.811  1.00  0.00    -0.266 OA
HETATM   19  H   UNL     1      44.192 -18.773   5.512  1.00  0.00     0.163 HD
BRANCH  17  20
HETATM   20  C   UNL     1      44.254 -21.204   5.543  1.00  0.00     0.157 A 
HETATM   21  N   UNL     1      44.708 -22.470   5.681  1.00  0.00    -0.168 NA
HETATM   22  N   UNL     1      44.876 -22.888   4.414  1.00  0.00    -0.277 N 
HETATM   23  H   UNL     1      45.205 -23.834   4.259  1.00  0.00     0.189 HD
HETATM   24  C   UNL     1      44.574 -21.954   3.463  1.00  0.00     0.063 A 
HETATM   25  C   UNL     1      44.167 -20.829   4.170  1.00  0.00     0.029 A 
HETATM   26  C   UNL     1      44.621 -22.002   2.067  1.00  0.00     0.032 A 
HETATM   27  C   UNL     1      43.791 -19.676   3.453  1.00  0.00     0.023 A 
HETATM   28  C   UNL     1      43.837 -19.688   2.048  1.00  0.00    -0.061 A 
HETATM   29  C   UNL     1      44.246 -20.845   1.375  1.00  0.00     0.009 A 
HETATM   30  C   UNL     1      43.454 -18.450   1.288  1.00  0.00     0.048 C 
ENDBRANCH  17  20
ENDBRANCH   1  16
TORSDOF 6
ENDMDL
MODEL 4
REMARK VINA RESULT:      -8.6      4.449      8.798
REMARK  6 active torsions:
REMARK  status: ('A' for Active; 'I' for Inactive)
REMARK    1  A    between atoms: C_2  and  C_3 
REMARK    2  A    between atoms: C_3  and  N_4 
REMARK       I    between atoms: N_4  and  C_5 
REMARK    3  A    between atoms: C_5  and  C_6 
REMARK    4  A    between atoms: C_8  and  C_9 
REMARK    5  A    between atoms: C_9  and  N_10 
REMARK       I    between atoms: N_10  and  C_11 
REMARK    6  A    between atoms: C_11  and  C_12 
ROOT
HETATM    1  C   UNL     1      44.768 -17.209   7.296  1.00  0.00     0.161 C 
ENDROOT
BRANCH   1   2
HETATM    2  C   UNL     1      44.119 -15.959   6.762  1.00  0.00    -0.040 A 
HETATM    3  C   UNL     1      43.080 -16.056   5.824  1.00  0.00     0.026 A 
HETATM    4  C   UNL     1      42.477 -14.905   5.304  1.00  0.00     0.032 A 
HETATM    5  C   UNL     1      42.889 -13.645   5.747  1.00  0.00     0.017 A 
HETATM    6  C   UNL     1      43.928 -13.538   6.673  1.00  0.00     0.002 A 
HETATM    7  C   UNL     1      44.547 -14.688   7.170  1.00  0.00     0.009 A 
BRANCH   4   8
HETATM    8  C   UNL     1      41.386 -14.993   4.294  1.00  0.00     0.252 C 
HETATM    9  N   UNL     1      41.731 -15.580   3.094  1.00  0.00    -0.353 N 
HETATM   10  H   UNL     1      42.712 -15.741   2.901  1.00  0.00     0.163 HD
HETATM   11  O   UNL     1      40.279 -14.531   4.542  1.00  0.00    -0.268 OA
BRANCH   9  12
HETATM   12  C   UNL     1      40.798 -15.663   1.978  1.00  0.00     0.080 C 
HETATM   13  C   UNL     1      40.223 -17.074   1.886  1.00  0.00     0.032 C 
BRANCH  12  14
HETATM   14  C   UNL     1      41.436 -15.201   0.656  1.00  0.00     0.020 C 
HETATM   15  C   UNL     1      40.724 -14.036  -0.022  1.00  0.00     0.007 C 
ENDBRANCH  12  14
ENDBRANCH   9  12
ENDBRANCH   4   8
ENDBRANCH   1   2
BRANCH   1  16
HETATM   16  N   UNL     1      44.719 -18.294   6.354  1.00  0.00    -0.351 N 
HETATM   17  C   UNL     1      44.213 -19.539   6.653  1.00  0.00     0.273 C 
HETATM   18  O   UNL     1      43.684 -19.819   7.726  1.00  0.00    -0.266 OA
HETATM   19  H   UNL     1      45.122 -18.195   5.427  1.00  0.00     0.163 HD
BRANCH  17  20
HETATM   20  C   UNL     1      44.383 -20.508   5.558  1.00  0.00     0.157 A 
HETATM   21  N   UNL     1      44.694 -21.801   5.806  1.00  0.00    -0.168 NA
HETATM   22  N   UNL     1      44.724 -22.362   4.584  1.00  0.00    -0.277 N 
HETATM   23  H   UNL     1      44.929 -23.352   4.514  1.00  0.00     0.189 HD
HETATM   24  C   UNL     1      44.468 -21.498   3.556  1.00  0.00     0.063 A 
HETATM   25  C   UNL     1      44.244 -20.267   4.159  1.00  0.00     0.029 A 
HETATM   26  C   UNL     1      44.411 -21.693   2.173  1.00  0.00     0.032 A 
HETATM   27  C   UNL     1      43.957 -19.154   3.344  1.00  0.00     0.023 A 
HETATM   28  C   UNL     1      43.903 -19.313   1.947  1.00  0.00    -0.061 A 
HETATM   29  C   UNL     1      44.127 -20.574   1.382  1.00  0.00     0.009 A 
HETATM   30  C   UNL     1      43.616 -18.121   1.081  1.00  0.00     0.048 C 
ENDBRANCH  17  20
ENDBRANCH   1  16
TORSDOF 6
ENDMDL
MODEL 5
REMARK VINA RESULT:      -8.4      4.892      9.750
REMARK  6 active torsions:
REMARK  status: ('A' for Active; 'I' for Inactive)
REMARK    1  A    between atoms: C_2  and  C_3 
REMARK    2  A    between atoms: C_3  and  N_4 
REMARK       I    between atoms: N_4  and  C_5 
REMARK    3  A    between atoms: C_5  and  C_6 
REMARK    4  A    between atoms: C_8  and  C_9 
REMARK    5  A    between atoms: C_9  and  N_10 
REMARK       I    between atoms: N_10  and  C_11 
REMARK    6  A    between atoms: C_11  and  C_12 
ROOT
HETATM    1  C   UNL     1      40.913 -17.269   1.513  1.00  0.00     0.161 C 
ENDROOT
BRANCH   1   2
HETATM    2  C   UNL     1      42.062 -18.055   2.088  1.00  0.00    -0.040 A 
HETATM    3  C   UNL     1      42.578 -17.720   3.349  1.00  0.00     0.026 A 
HETATM    4  C   UNL     1      43.657 -18.427   3.892  1.00  0.00     0.032 A 
HETATM    5  C   UNL     1      44.206 -19.502   3.187  1.00  0.00     0.017 A 
HETATM    6  C   UNL     1      43.706 -19.838   1.928  1.00  0.00     0.002 A 
HETATM    7  C   UNL     1      42.647 -19.112   1.376  1.00  0.00     0.009 A 
BRANCH   4   8
HETATM    8  C   UNL     1      44.225 -18.070   5.220  1.00  0.00     0.252 C 
HETATM    9  N   UNL     1      43.699 -16.938   5.810  1.00  0.00    -0.353 N 
HETATM   10  H   UNL     1      43.115 -16.332   5.249  1.00  0.00     0.163 HD
HETATM   11  O   UNL     1      45.125 -18.744   5.707  1.00  0.00    -0.268 OA
BRANCH   9  12
HETATM   12  C   UNL     1      44.210 -16.414   7.069  1.00  0.00     0.080 C 
HETATM   13  C   UNL     1      43.386 -16.961   8.232  1.00  0.00     0.032 C 
BRANCH  12  14
HETATM   14  C   UNL     1      44.280 -14.876   7.069  1.00  0.00     0.020 C 
HETATM   15  C   UNL     1      43.798 -14.216   5.783  1.00  0.00     0.007 C 
ENDBRANCH  12  14
ENDBRANCH   9  12
ENDBRANCH   4   8
ENDBRANCH   1   2
BRANCH   1  16
HETATM   16  N   UNL     1      41.308 -16.472   0.385  1.00  0.00    -0.351 N 
HETATM   17  C   UNL     1      40.773 -15.234   0.103  1.00  0.00     0.273 C 
HETATM   18  O   UNL     1      39.965 -14.661   0.830  1.00  0.00    -0.266 OA
HETATM   19  H   UNL     1      41.972 -16.828  -0.297  1.00  0.00     0.163 HD
BRANCH  17  20
HETATM   20  C   UNL     1      41.257 -14.673  -1.169  1.00  0.00     0.157 A 
HETATM   21  N   UNL     1      41.224 -15.394  -2.313  1.00  0.00    -0.168 NA
HETATM   22  N   UNL     1      41.703 -14.545  -3.239  1.00  0.00    -0.277 N 
HETATM   23  H   UNL     1      41.762 -14.864  -4.200  1.00  0.00     0.189 HD
HETATM   24  C   UNL     1      42.064 -13.319  -2.754  1.00  0.00     0.063 A 
HETATM   25  C   UNL     1      41.790 -13.369  -1.393  1.00  0.00     0.029 A 
HETATM   26  C   UNL     1      42.594 -12.191  -3.385  1.00  0.00     0.032 A 
HETATM   27  C   UNL     1      42.067 -12.236  -0.603  1.00  0.00     0.023 A 
HETATM   28  C   UNL     1      42.612 -11.088  -1.204  1.00  0.00    -0.061 A 
HETATM   29  C   UNL     1      42.865 -11.077  -2.581  1.00  0.00     0.009 A 
HETATM   30  C   UNL     1      42.924  -9.889  -0.355  1.00  0.00     0.048 C 
ENDBRANCH  17  20
ENDBRANCH   1  16
TORSDOF 6
ENDMDL
MODEL 6
REMARK VINA RESULT:      -8.3      5.593      9.016
REMARK  6 active torsions:
REMARK  status: ('A' for Active; 'I' for Inactive)
REMARK    1  A    between atoms: C_2  and  C_3 
REMARK    2  A    between atoms: C_3  and  N_4 
REMARK       I    between atoms: N_4  and  C_5 
REMARK    3  A    between atoms: C_5  and  C_6 
REMARK    4  A    between atoms: C_8  and  C_9 
REMARK    5  A    between atoms: C_9  and  N_10 
REMARK       I    between atoms: N_10  and  C_11 
REMARK    6  A    between atoms: C_11  and  C_12 
ROOT
HETATM    1  C   UNL     1      41.171 -15.654   4.409  1.00  0.00     0.161 C 
ENDROOT
BRANCH   1   2
HETATM    2  C   UNL     1      41.234 -15.822   2.913  1.00  0.00    -0.040 A 
HETATM    3  C   UNL     1      40.494 -14.969   2.081  1.00  0.00     0.026 A 
HETATM    4  C   UNL     1      40.526 -15.121   0.690  1.00  0.00     0.032 A 
HETATM    5  C   UNL     1      41.331 -16.112   0.120  1.00  0.00     0.017 A 
HETATM    6  C   UNL     1      42.064 -16.971   0.939  1.00  0.00     0.002 A 
HETATM    7  C   UNL     1      42.008 -16.835   2.329  1.00  0.00     0.009 A 
BRANCH   4   8
HETATM    8  C   UNL     1      39.731 -14.235  -0.203  1.00  0.00     0.252 C 
HETATM    9  N   UNL     1      39.583 -14.676  -1.503  1.00  0.00    -0.353 N 
HETATM   10  H   UNL     1      40.157 -15.449  -1.816  1.00  0.00     0.163 HD
HETATM   11  O   UNL     1      39.285 -13.175   0.219  1.00  0.00    -0.268 OA
BRANCH   9  12
HETATM   12  C   UNL     1      38.904 -13.880  -2.516  1.00  0.00     0.080 C 
HETATM   13  C   UNL     1      37.793 -14.703  -3.164  1.00  0.00     0.032 C 
BRANCH  12  14
HETATM   14  C   UNL     1      39.887 -13.301  -3.550  1.00  0.00     0.020 C 
HETATM   15  C   UNL     1      41.303 -13.856  -3.465  1.00  0.00     0.007 C 
ENDBRANCH  12  14
ENDBRANCH   9  12
ENDBRANCH   4   8
ENDBRANCH   1   2
BRANCH   1  16
HETATM   16  N   UNL     1      41.722 -16.783   5.108  1.00  0.00    -0.351 N 
HETATM   17  C   UNL     1      42.929 -16.752   5.771  1.00  0.00     0.273 C 
HETATM   18  O   UNL     1      43.612 -15.738   5.894  1.00  0.00    -0.266 OA
HETATM   19  H   UNL     1      41.256 -17.685   5.088  1.00  0.00     0.163 HD
BRANCH  17  20
HETATM   20  C   UNL     1      43.326 -18.065   6.306  1.00  0.00     0.157 A 
HETATM   21  N   UNL     1      43.289 -18.322   7.634  1.00  0.00    -0.168 NA
HETATM   22  N   UNL     1      43.678 -19.607   7.720  1.00  0.00    -0.277 N 
HETATM   23  H   UNL     1      43.717 -20.037   8.637  1.00  0.00     0.189 HD
HETATM   24  C   UNL     1      43.983 -20.190   6.522  1.00  0.00     0.063 A 
HETATM   25  C   UNL     1      43.768 -19.202   5.569  1.00  0.00     0.029 A 
HETATM   26  C   UNL     1      44.418 -21.479   6.201  1.00  0.00     0.032 A 
HETATM   27  C   UNL     1      44.009 -19.504   4.214  1.00  0.00     0.023 A 
HETATM   28  C   UNL     1      44.457 -20.788   3.858  1.00  0.00    -0.061 A 
HETATM   29  C   UNL     1      44.653 -21.756   4.850  1.00  0.00     0.009 A 
HETATM   30  C   UNL     1      44.730 -21.099   2.414  1.00  0.00     0.048 C 
ENDBRANCH  17  20
ENDBRANCH   1  16
TORSDOF 6
ENDMDL
MODEL 7
REMARK VINA RESULT:      -8.3      3.840      8.562
REMARK  6 active torsions:
REMARK  status: ('A' for Active; 'I' for Inactive)
REMARK    1  A    between atoms: C_2  and  C_3 
REMARK    2  A    between atoms: C_3  and  N_4 
REMARK       I    between atoms: N_4  and  C_5 
REMARK    3  A    between atoms: C_5  and  C_6 
REMARK    4  A    between atoms: C_8  and  C_9 
REMARK    5  A    between atoms: C_9  and  N_10 
REMARK       I    between atoms: N_10  and  C_11 
REMARK    6  A    between atoms: C_11  and  C_12 
ROOT
HETATM    1  C   UNL     1      43.520 -19.712   1.903  1.00  0.00     0.161 C 
ENDROOT
BRANCH   1   2
HETATM    2  C   UNL     1      43.793 -19.648   3.384  1.00  0.00    -0.040 A 
HETATM    3  C   UNL     1      43.437 -18.502   4.111  1.00  0.00     0.026 A 
HETATM    4  C   UNL     1      43.698 -18.417   5.484  1.00  0.00     0.032 A 
HETATM    5  C   UNL     1      44.289 -19.497   6.145  1.00  0.00     0.017 A 
HETATM    6  C   UNL     1      44.654 -20.638   5.429  1.00  0.00     0.002 A 
HETATM    7  C   UNL     1      44.417 -20.709   4.053  1.00  0.00     0.009 A 
BRANCH   4   8
HETATM    8  C   UNL     1      43.343 -17.200   6.264  1.00  0.00     0.252 C 
HETATM    9  N   UNL     1      43.748 -16.000   5.715  1.00  0.00    -0.353 N 
HETATM   10  H   UNL     1      44.402 -16.022   4.942  1.00  0.00     0.163 HD
HETATM   11  O   UNL     1      42.760 -17.304   7.336  1.00  0.00    -0.268 OA
BRANCH   9  12
HETATM   12  C   UNL     1      43.549 -14.731   6.400  1.00  0.00     0.080 C 
HETATM   13  C   UNL     1      43.453 -13.599   5.379  1.00  0.00     0.032 C 
BRANCH  12  14
HETATM   14  C   UNL     1      44.630 -14.472   7.465  1.00  0.00     0.020 C 
HETATM   15  C   UNL     1      44.683 -13.041   7.986  1.00  0.00     0.007 C 
ENDBRANCH  12  14
ENDBRANCH   9  12
ENDBRANCH   4   8
ENDBRANCH   1   2
BRANCH   1  16
HETATM   16  N   UNL     1      42.636 -18.666   1.466  1.00  0.00    -0.351 N 
HETATM   17  C   UNL     1      43.068 -17.415   1.085  1.00  0.00     0.273 C 
HETATM   18  O   UNL     1      44.253 -17.099   1.008  1.00  0.00    -0.266 OA
HETATM   19  H   UNL     1      41.629 -18.797   1.480  1.00  0.00     0.163 HD
BRANCH  17  20
HETATM   20  C   UNL     1      41.962 -16.488   0.793  1.00  0.00     0.157 A 
HETATM   21  N   UNL     1      41.582 -16.228  -0.479  1.00  0.00    -0.168 NA
HETATM   22  N   UNL     1      40.543 -15.386  -0.334  1.00  0.00    -0.277 N 
HETATM   23  H   UNL     1      40.073 -15.055  -1.169  1.00  0.00     0.189 HD
HETATM   24  C   UNL     1      40.242 -15.072   0.962  1.00  0.00     0.063 A 
HETATM   25  C   UNL     1      41.160 -15.775   1.732  1.00  0.00     0.029 A 
HETATM   26  C   UNL     1      39.257 -14.247   1.512  1.00  0.00     0.032 A 
HETATM   27  C   UNL     1      41.109 -15.646   3.134  1.00  0.00     0.023 A 
HETATM   28  C   UNL     1      40.137 -14.816   3.719  1.00  0.00    -0.061 A 
HETATM   29  C   UNL     1      39.226 -14.132   2.906  1.00  0.00     0.009 A 
HETATM   30  C   UNL     1      40.098 -14.667   5.213  1.00  0.00     0.048 C 
ENDBRANCH  17  20
ENDBRANCH   1  16
TORSDOF 6
ENDMDL
MODEL 8
REMARK VINA RESULT:      -8.3      2.263      9.610
REMARK  6 active torsions:
REMARK  status: ('A' for Active; 'I' for Inactive)
REMARK    1  A    between atoms: C_2  and  C_3 
REMARK    2  A    between atoms: C_3  and  N_4 
REMARK       I    between atoms: N_4  and  C_5 
REMARK    3  A    between atoms: C_5  and  C_6 
REMARK    4  A    between atoms: C_8  and  C_9 
REMARK    5  A    between atoms: C_9  and  N_10 
REMARK       I    between atoms: N_10  and  C_11 
REMARK    6  A    between atoms: C_11  and  C_12 
ROOT
HETATM    1  C   UNL     1      41.939 -13.919   3.602  1.00  0.00     0.161 C 
ENDROOT
BRANCH   1   2
HETATM    2  C   UNL     1      41.220 -13.214   4.722  1.00  0.00    -0.040 A 
HETATM    3  C   UNL     1      41.929 -12.357   5.578  1.00  0.00     0.026 A 
HETATM    4  C   UNL     1      41.281 -11.706   6.634  1.00  0.00     0.032 A 
HETATM    5  C   UNL     1      39.907 -11.884   6.820  1.00  0.00     0.017 A 
HETATM    6  C   UNL     1      39.196 -12.741   5.980  1.00  0.00     0.002 A 
HETATM    7  C   UNL     1      39.850 -13.411   4.943  1.00  0.00     0.009 A 
BRANCH   4   8
HETATM    8  C   UNL     1      42.024 -10.808   7.561  1.00  0.00     0.252 C 
HETATM    9  N   UNL     1      42.670 -11.434   8.607  1.00  0.00    -0.353 N 
HETATM   10  H   UNL     1      42.457 -12.407   8.790  1.00  0.00     0.163 HD
HETATM   11  O   UNL     1      42.008  -9.596   7.388  1.00  0.00    -0.268 OA
BRANCH   9  12
HETATM   12  C   UNL     1      43.368 -10.686   9.643  1.00  0.00     0.080 C 
HETATM   13  C   UNL     1      44.826 -11.134   9.715  1.00  0.00     0.032 C 
BRANCH  12  14
HETATM   14  C   UNL     1      42.656 -10.780  11.004  1.00  0.00     0.020 C 
HETATM   15  C   UNL     1      43.363 -11.651  12.035  1.00  0.00     0.007 C 
ENDBRANCH  12  14
ENDBRANCH   9  12
ENDBRANCH   4   8
ENDBRANCH   1   2
BRANCH   1  16
HETATM   16  N   UNL     1      42.717 -15.034   4.070  1.00  0.00    -0.351 N 
HETATM   17  C   UNL     1      42.434 -16.345   3.755  1.00  0.00     0.273 C 
HETATM   18  O   UNL     1      41.540 -16.681   2.982  1.00  0.00    -0.266 OA
HETATM   19  H   UNL     1      43.488 -14.896   4.717  1.00  0.00     0.163 HD
BRANCH  17  20
HETATM   20  C   UNL     1      43.305 -17.306   4.452  1.00  0.00     0.157 A 
HETATM   21  N   UNL     1      43.834 -17.024   5.664  1.00  0.00    -0.168 NA
HETATM   22  N   UNL     1      44.522 -18.136   5.978  1.00  0.00    -0.277 N 
HETATM   23  H   UNL     1      45.005 -18.168   6.869  1.00  0.00     0.189 HD
HETATM   24  C   UNL     1      44.483 -19.116   5.026  1.00  0.00     0.063 A 
HETATM   25  C   UNL     1      43.696 -18.602   4.003  1.00  0.00     0.029 A 
HETATM   26  C   UNL     1      45.061 -20.388   4.979  1.00  0.00     0.032 A 
HETATM   27  C   UNL     1      43.474 -19.390   2.857  1.00  0.00     0.023 A 
HETATM   28  C   UNL     1      44.049 -20.671   2.773  1.00  0.00    -0.061 A 
HETATM   29  C   UNL     1      44.829 -21.153   3.830  1.00  0.00     0.009 A 
HETATM   30  C   UNL     1      43.825 -21.500   1.541  1.00  0.00     0.048 C 
ENDBRANCH  17  20
ENDBRANCH   1  16
TORSDOF 6
ENDMDL
MODEL 9
REMARK VINA RESULT:      -8.2      2.583      3.386
REMARK  6 active torsions:
REMARK  status: ('A' for Active; 'I' for Inactive)
REMARK    1  A    between atoms: C_2  and  C_3 
REMARK    2  A    between atoms: C_3  and  N_4 
REMARK       I    between atoms: N_4  and  C_5 
REMARK    3  A    between atoms: C_5  and  C_6 
REMARK    4  A    between atoms: C_8  and  C_9 
REMARK    5  A    between atoms: C_9  and  N_10 
REMARK       I    between atoms: N_10  and  C_11 
REMARK    6  A    between atoms: C_11  and  C_12 
ROOT
HETATM    1  C   UNL     1      39.512 -12.812   6.448  1.00  0.00     0.161 C 
ENDROOT
BRANCH   1   2
HETATM    2  C   UNL     1      40.699 -13.428   5.755  1.00  0.00    -0.040 A 
HETATM    3  C   UNL     1      40.731 -14.810   5.517  1.00  0.00     0.026 A 
HETATM    4  C   UNL     1      41.832 -15.403   4.890  1.00  0.00     0.032 A 
HETATM    5  C   UNL     1      42.900 -14.607   4.466  1.00  0.00     0.017 A 
HETATM    6  C   UNL     1      42.882 -13.232   4.706  1.00  0.00     0.002 A 
HETATM    7  C   UNL     1      41.793 -12.646   5.357  1.00  0.00     0.009 A 
BRANCH   4   8
HETATM    8  C   UNL     1      41.887 -16.870   4.648  1.00  0.00     0.252 C 
HETATM    9  N   UNL     1      43.011 -17.325   3.989  1.00  0.00    -0.353 N 
HETATM   10  H   UNL     1      43.623 -16.644   3.556  1.00  0.00     0.163 HD
HETATM   11  O   UNL     1      40.957 -17.587   4.997  1.00  0.00    -0.268 OA
BRANCH   9  12
HETATM   12  C   UNL     1      43.171 -18.721   3.606  1.00  0.00     0.080 C 
HETATM   13  C   UNL     1      44.284 -19.362   4.431  1.00  0.00     0.032 C 
BRANCH  12  14
HETATM   14  C   UNL     1      43.394 -18.883   2.091  1.00  0.00     0.020 C 
HETATM   15  C   UNL     1      43.995 -17.665   1.402  1.00  0.00     0.007 C 
ENDBRANCH  12  14
ENDBRANCH   9  12
ENDBRANCH   4   8
ENDBRANCH   1   2
BRANCH   1  16
HETATM   16  N   UNL     1      39.851 -12.278   7.740  1.00  0.00    -0.351 N 
HETATM   17  C   UNL     1      40.041 -10.936   7.982  1.00  0.00     0.273 C 
HETATM   18  O   UNL     1      39.862 -10.060   7.139  1.00  0.00    -0.266 OA
HETATM   19  H   UNL     1      40.026 -12.895   8.527  1.00  0.00     0.163 HD
BRANCH  17  20
HETATM   20  C   UNL     1      40.494 -10.657   9.355  1.00  0.00     0.157 A 
HETATM   21  N   UNL     1      39.615 -10.350  10.336  1.00  0.00    -0.168 NA
HETATM   22  N   UNL     1      40.391 -10.205  11.425  1.00  0.00    -0.277 N 
HETATM   23  H   UNL     1      39.945  -9.981  12.307  1.00  0.00     0.189 HD
HETATM   24  C   UNL     1      41.727 -10.383  11.198  1.00  0.00     0.063 A 
HETATM   25  C   UNL     1      41.833 -10.676   9.845  1.00  0.00     0.029 A 
HETATM   26  C   UNL     1      42.830 -10.315  12.054  1.00  0.00     0.032 A 
HETATM   27  C   UNL     1      43.111 -10.906   9.299  1.00  0.00     0.023 A 
HETATM   28  C   UNL     1      44.244 -10.836  10.130  1.00  0.00    -0.061 A 
HETATM   29  C   UNL     1      44.091 -10.545  11.490  1.00  0.00     0.009 A 
HETATM   30  C   UNL     1      45.605 -11.063   9.540  1.00  0.00     0.048 C 
ENDBRANCH  17  20
ENDBRANCH   1  16
TORSDOF 6
ENDMDL
MODEL 10
REMARK VINA RESULT:      -8.2      4.905      8.725
REMARK  6 active torsions:
REMARK  status: ('A' for Active; 'I' for Inactive)
REMARK    1  A    between atoms: C_2  and  C_3 
REMARK    2  A    between atoms: C_3  and  N_4 
REMARK       I    between atoms: N_4  and  C_5 
REMARK    3  A    between atoms: C_5  and  C_6 
REMARK    4  A    between atoms: C_8  and  C_9 
REMARK    5  A    between atoms: C_9  and  N_10 
REMARK       I    between atoms: N_10  and  C_11 
REMARK    6  A    between atoms: C_11  and  C_12 
ROOT
HETATM    1  C   UNL     1      41.458 -14.067   4.320  1.00  0.00     0.161 C 
ENDROOT
BRANCH   1   2
HETATM    2  C   UNL     1      42.459 -14.835   5.143  1.00  0.00    -0.040 A 
HETATM    3  C   UNL     1      42.637 -16.209   4.925  1.00  0.00     0.026 A 
HETATM    4  C   UNL     1      43.550 -16.943   5.691  1.00  0.00     0.032 A 
HETATM    5  C   UNL     1      44.318 -16.295   6.662  1.00  0.00     0.017 A 
HETATM    6  C   UNL     1      44.142 -14.930   6.894  1.00  0.00     0.002 A 
HETATM    7  C   UNL     1      43.209 -14.205   6.145  1.00  0.00     0.009 A 
BRANCH   4   8
HETATM    8  C   UNL     1      43.735 -18.405   5.482  1.00  0.00     0.252 C 
HETATM    9  N   UNL     1      43.974 -18.797   4.180  1.00  0.00    -0.353 N 
HETATM   10  H   UNL     1      43.828 -18.120   3.441  1.00  0.00     0.163 HD
HETATM   11  O   UNL     1      43.641 -19.179   6.427  1.00  0.00    -0.268 OA
BRANCH   9  12
HETATM   12  C   UNL     1      44.093 -20.198   3.804  1.00  0.00     0.080 C 
HETATM   13  C   UNL     1      45.419 -20.761   4.309  1.00  0.00     0.032 C 
BRANCH  12  14
HETATM   14  C   UNL     1      43.902 -20.409   2.291  1.00  0.00     0.020 C 
HETATM   15  C   UNL     1      44.134 -21.837   1.812  1.00  0.00     0.007 C 
ENDBRANCH  12  14
ENDBRANCH   9  12
ENDBRANCH   4   8
ENDBRANCH   1   2
BRANCH   1  16
HETATM   16  N   UNL     1      41.319 -14.602   2.993  1.00  0.00    -0.351 N 
HETATM   17  C   UNL     1      41.965 -14.084   1.892  1.00  0.00     0.273 C 
HETATM   18  O   UNL     1      42.781 -13.166   1.952  1.00  0.00    -0.266 OA
HETATM   19  H   UNL     1      40.675 -15.364   2.804  1.00  0.00     0.163 HD
BRANCH  17  20
HETATM   20  C   UNL     1      41.568 -14.733   0.632  1.00  0.00     0.157 A 
HETATM   21  N   UNL     1      41.073 -15.991   0.616  1.00  0.00    -0.168 NA
HETATM   22  N   UNL     1      40.799 -16.209  -0.683  1.00  0.00    -0.277 N 
HETATM   23  H   UNL     1      40.397 -17.101  -0.947  1.00  0.00     0.189 HD
HETATM   24  C   UNL     1      41.107 -15.166  -1.511  1.00  0.00     0.063 A 
HETATM   25  C   UNL     1      41.622 -14.178  -0.681  1.00  0.00     0.029 A 
HETATM   26  C   UNL     1      40.977 -15.010  -2.894  1.00  0.00     0.032 A 
HETATM   27  C   UNL     1      42.044 -12.963  -1.254  1.00  0.00     0.023 A 
HETATM   28  C   UNL     1      41.936 -12.777  -2.644  1.00  0.00    -0.061 A 
HETATM   29  C   UNL     1      41.405 -13.795  -3.443  1.00  0.00     0.009 A 
HETATM   30  C   UNL     1      42.405 -11.487  -3.252  1.00  0.00     0.048 C 
ENDBRANCH  17  20
ENDBRANCH   1  16
TORSDOF 6
ENDMDL
