MODEL 1
REMARK VINA RESULT:      -9.1      0.000      0.000
REMARK  6 active torsions:
REMARK  status: ('A' for Active; 'I' for Inactive)
REMARK    1  A    between atoms: O_2  and  C_3 
REMARK    2  A    between atoms: C_6  and  C_7 
REMARK    3  A    between atoms: C_12  and  C_13 
REMARK       I    between atoms: C_13  and  N_14 
REMARK    4  A    between atoms: N_14  and  C_15 
REMARK    5  A    between atoms: C_15  and  C_16 
REMARK    6  A    between atoms: C_24  and  C_25 
ROOT
HETATM    1  C   UNL     1      42.710 -16.893   2.595  1.00  0.00     0.118 C 
HETATM    2  N   UNL     1      43.228 -15.682   3.235  1.00  0.00    -0.366 N 
HETATM    3  C   UNL     1      42.424 -14.809   3.872  1.00  0.00     0.123 A 
HETATM    4  N   UNL     1      41.081 -14.790   3.629  1.00  0.00    -0.240 N 
HETATM    5  N   UNL     1      40.389 -13.971   4.440  1.00  0.00    -0.165 NA
HETATM    6  C   UNL     1      41.359 -13.353   5.157  1.00  0.00     0.148 A 
HETATM    7  C   UNL     1      42.651 -13.838   4.809  1.00  0.00     0.088 A 
HETATM    8  C   UNL     1      40.439 -15.697   2.703  1.00  0.00     0.221 C 
HETATM    9  C   UNL     1      41.176 -17.042   2.743  1.00  0.00     0.066 C 
HETATM   10  H   UNL     1      44.226 -15.711   3.450  1.00  0.00     0.161 HD
ENDROOT
BRANCH   6  11
HETATM   11  C   UNL     1      41.052 -12.342   6.179  1.00  0.00     0.272 C 
HETATM   12  N   UNL     1      42.140 -11.999   6.942  1.00  0.00    -0.351 N 
HETATM   13  H   UNL     1      43.028 -12.405   6.661  1.00  0.00     0.163 HD
HETATM   14  O   UNL     1      39.938 -11.847   6.317  1.00  0.00    -0.266 OA
BRANCH  12  15
HETATM   15  C   UNL     1      42.086 -10.964   7.937  1.00  0.00     0.161 C 
BRANCH  15  16
HETATM   16  C   UNL     1      43.220 -11.094   8.920  1.00  0.00    -0.041 A 
HETATM   17  C   UNL     1      43.207 -10.388  10.129  1.00  0.00     0.009 A 
HETATM   18  C   UNL     1      44.260 -10.518  11.037  1.00  0.00     0.001 A 
HETATM   19  C   UNL     1      45.333 -11.357  10.745  1.00  0.00     0.000 A 
HETATM   20  C   UNL     1      45.356 -12.069   9.548  1.00  0.00     0.001 A 
HETATM   21  C   UNL     1      44.303 -11.944   8.642  1.00  0.00     0.009 A 
ENDBRANCH  15  16
ENDBRANCH  12  15
ENDBRANCH   6  11
BRANCH   8  22
HETATM   22  C   UNL     1      40.395 -15.095   1.318  1.00  0.00     0.409 C 
HETATM   23  F   UNL     1      41.104 -13.949   1.231  1.00  0.00    -0.169 F 
HETATM   24  F   UNL     1      40.831 -15.928   0.349  1.00  0.00    -0.169 F 
HETATM   25  F   UNL     1      39.111 -14.778   1.003  1.00  0.00    -0.169 F 
ENDBRANCH   8  22
BRANCH   1  26
HETATM   26  C   UNL     1      43.431 -18.090   3.196  1.00  0.00    -0.035 A 
HETATM   27  C   UNL     1      43.775 -18.110   4.560  1.00  0.00     0.012 A 
HETATM   28  C   UNL     1      44.432 -19.206   5.124  1.00  0.00     0.037 A 
HETATM   29  C   UNL     1      44.770 -20.300   4.331  1.00  0.00     0.068 A 
HETATM   30  C   UNL     1      44.464 -20.275   2.968  1.00  0.00     0.037 A 
HETATM   31  C   UNL     1      43.796 -19.183   2.402  1.00  0.00     0.012 A 
BRANCH  29  32
HETATM   32  O   UNL     1      45.407 -21.431   4.762  1.00  0.00    -0.356 OA
HETATM   33  C   UNL     1      44.684 -22.650   4.639  1.00  0.00     0.210 C 
ENDBRANCH  29  32
ENDBRANCH   1  26
TORSDOF 6
ENDMDL
MODEL 2
REMARK VINA RESULT:      -8.9      4.034      7.821
REMARK  6 active torsions:
REMARK  status: ('A' for Active; 'I' for Inactive)
REMARK    1  A    between atoms: O_2  and  C_3 
REMARK    2  A    between atoms: C_6  and  C_7 
REMARK    3  A    between atoms: C_12  and  C_13 
REMARK       I    between atoms: C_13  and  N_14 
REMARK    4  A    between atoms: N_14  and  C_15 
REMARK    5  A    between atoms: C_15  and  C_16 
REMARK    6  A    between atoms: C_24  and  C_25 
ROOT
HETATM    1  C   UNL     1      40.483 -13.572   1.485  1.00  0.00     0.118 C 
HETATM    2  N   UNL     1      41.861 -13.788   1.930  1.00  0.00    -0.366 N 
HETATM    3  C   UNL     1      42.153 -14.522   3.022  1.00  0.00     0.123 A 
HETATM    4  N   UNL     1      41.206 -14.770   3.972  1.00  0.00    -0.240 N 
HETATM    5  N   UNL     1      41.598 -15.633   4.925  1.00  0.00    -0.165 NA
HETATM    6  C   UNL     1      42.901 -15.854   4.625  1.00  0.00     0.148 A 
HETATM    7  C   UNL     1      43.290 -15.153   3.449  1.00  0.00     0.088 A 
HETATM    8  C   UNL     1      39.846 -14.285   3.869  1.00  0.00     0.221 C 
HETATM    9  C   UNL     1      39.441 -14.273   2.389  1.00  0.00     0.066 C 
HETATM   10  H   UNL     1      42.568 -13.638   1.209  1.00  0.00     0.161 HD
ENDROOT
BRANCH   6  11
HETATM   11  C   UNL     1      43.748 -16.746   5.430  1.00  0.00     0.272 C 
HETATM   12  N   UNL     1      43.803 -18.027   4.939  1.00  0.00    -0.351 N 
HETATM   13  H   UNL     1      43.337 -18.184   4.050  1.00  0.00     0.163 HD
HETATM   14  O   UNL     1      44.356 -16.371   6.428  1.00  0.00    -0.266 OA
BRANCH  12  15
HETATM   15  C   UNL     1      44.644 -19.037   5.518  1.00  0.00     0.161 C 
BRANCH  15  16
HETATM   16  C   UNL     1      44.635 -20.294   4.688  1.00  0.00    -0.041 A 
HETATM   17  C   UNL     1      44.587 -20.230   3.289  1.00  0.00     0.009 A 
HETATM   18  C   UNL     1      44.585 -21.400   2.527  1.00  0.00     0.001 A 
HETATM   19  C   UNL     1      44.634 -22.643   3.155  1.00  0.00     0.000 A 
HETATM   20  C   UNL     1      44.687 -22.720   4.545  1.00  0.00     0.001 A 
HETATM   21  C   UNL     1      44.694 -21.552   5.308  1.00  0.00     0.009 A 
ENDBRANCH  15  16
ENDBRANCH  12  15
ENDBRANCH   6  11
BRANCH   8  22
HETATM   22  C   UNL     1      39.717 -12.929   4.523  1.00  0.00     0.409 C 
HETATM   23  F   UNL     1      38.967 -12.075   3.793  1.00  0.00    -0.169 F 
HETATM   24  F   UNL     1      39.203 -12.974   5.769  1.00  0.00    -0.169 F 
HETATM   25  F   UNL     1      40.948 -12.362   4.634  1.00  0.00    -0.169 F 
ENDBRANCH   8  22
BRANCH   1  26
HETATM   26  C   UNL     1      40.369 -14.059   0.049  1.00  0.00    -0.035 A 
HETATM   27  C   UNL     1      39.421 -13.498  -0.826  1.00  0.00     0.012 A 
HETATM   28  C   UNL     1      39.311 -13.933  -2.148  1.00  0.00     0.037 A 
HETATM   29  C   UNL     1      40.141 -14.947  -2.621  1.00  0.00     0.068 A 
HETATM   30  C   UNL     1      41.062 -15.534  -1.750  1.00  0.00     0.037 A 
HETATM   31  C   UNL     1      41.182 -15.093  -0.427  1.00  0.00     0.012 A 
BRANCH  29  32
HETATM   32  O   UNL     1      40.136 -15.456  -3.889  1.00  0.00    -0.356 OA
HETATM   33  C   UNL     1      39.005 -16.240  -4.252  1.00  0.00     0.210 C 
ENDBRANCH  29  32
ENDBRANCH   1  26
TORSDOF 6
ENDMDL
MODEL 3
REMARK VINA RESULT:      -8.8      4.790      7.258
REMARK  6 active torsions:
REMARK  status: ('A' for Active; 'I' for Inactive)
REMARK    1  A    between atoms: O_2  and  C_3 
REMARK    2  A    between atoms: C_6  and  C_7 
REMARK    3  A    between atoms: C_12  and  C_13 
REMARK       I    between atoms: C_13  and  N_14 
REMARK    4  A    between atoms: N_14  and  C_15 
REMARK    5  A    between atoms: C_15  and  C_16 
REMARK    6  A    between atoms: C_24  and  C_25 
ROOT
HETATM    1  C   UNL     1      41.358 -17.035   2.848  1.00  0.00     0.118 C 
HETATM    2  N   UNL     1      41.021 -17.184   1.430  1.00  0.00    -0.366 N 
HETATM    3  C   UNL     1      41.109 -16.156   0.563  1.00  0.00     0.123 A 
HETATM    4  N   UNL     1      41.133 -14.866   1.007  1.00  0.00    -0.240 N 
HETATM    5  N   UNL     1      41.369 -13.959   0.044  1.00  0.00    -0.165 NA
HETATM    6  C   UNL     1      41.382 -14.705  -1.087  1.00  0.00     0.148 A 
HETATM    7  C   UNL     1      41.197 -16.087  -0.800  1.00  0.00     0.088 A 
HETATM    8  C   UNL     1      41.082 -14.519   2.411  1.00  0.00     0.221 C 
HETATM    9  C   UNL     1      41.818 -15.603   3.211  1.00  0.00     0.066 C 
HETATM   10  H   UNL     1      41.039 -18.145   1.089  1.00  0.00     0.161 HD
ENDROOT
BRANCH   6  11
HETATM   11  C   UNL     1      41.599 -14.111  -2.414  1.00  0.00     0.272 C 
HETATM   12  N   UNL     1      42.001 -12.800  -2.358  1.00  0.00    -0.351 N 
HETATM   13  H   UNL     1      42.184 -12.428  -1.431  1.00  0.00     0.163 HD
HETATM   14  O   UNL     1      41.451 -14.735  -3.460  1.00  0.00    -0.266 OA
BRANCH  12  15
HETATM   15  C   UNL     1      42.357 -12.054  -3.533  1.00  0.00     0.161 C 
BRANCH  15  16
HETATM   16  C   UNL     1      42.568 -10.598  -3.211  1.00  0.00    -0.041 A 
HETATM   17  C   UNL     1      42.162  -9.598  -4.104  1.00  0.00     0.009 A 
HETATM   18  C   UNL     1      42.356  -8.251  -3.795  1.00  0.00     0.001 A 
HETATM   19  C   UNL     1      42.956  -7.890  -2.590  1.00  0.00     0.000 A 
HETATM   20  C   UNL     1      43.359  -8.874  -1.691  1.00  0.00     0.001 A 
HETATM   21  C   UNL     1      43.161 -10.221  -1.996  1.00  0.00     0.009 A 
ENDBRANCH  15  16
ENDBRANCH  12  15
ENDBRANCH   6  11
BRANCH   8  22
HETATM   22  C   UNL     1      39.652 -14.331   2.859  1.00  0.00     0.409 C 
HETATM   23  F   UNL     1      39.241 -13.049   2.748  1.00  0.00    -0.169 F 
HETATM   24  F   UNL     1      38.769 -15.108   2.197  1.00  0.00    -0.169 F 
HETATM   25  F   UNL     1      39.542 -14.658   4.174  1.00  0.00    -0.169 F 
ENDBRANCH   8  22
BRANCH   1  26
HETATM   26  C   UNL     1      42.437 -18.053   3.186  1.00  0.00    -0.035 A 
HETATM   27  C   UNL     1      42.909 -18.948   2.209  1.00  0.00     0.012 A 
HETATM   28  C   UNL     1      43.903 -19.883   2.505  1.00  0.00     0.037 A 
HETATM   29  C   UNL     1      44.438 -19.949   3.789  1.00  0.00     0.068 A 
HETATM   30  C   UNL     1      43.951 -19.088   4.775  1.00  0.00     0.037 A 
HETATM   31  C   UNL     1      42.962 -18.143   4.479  1.00  0.00     0.012 A 
BRANCH  29  32
HETATM   32  O   UNL     1      45.414 -20.812   4.203  1.00  0.00    -0.356 OA
HETATM   33  C   UNL     1      44.985 -21.936   4.963  1.00  0.00     0.210 C 
ENDBRANCH  29  32
ENDBRANCH   1  26
TORSDOF 6
ENDMDL
MODEL 4
REMARK VINA RESULT:      -8.8      3.399      5.278
REMARK  6 active torsions:
REMARK  status: ('A' for Active; 'I' for Inactive)
REMARK    1  A    between atoms: O_2  and  C_3 
REMARK    2  A    between atoms: C_6  and  C_7 
REMARK    3  A    between atoms: C_12  and  C_13 
REMARK       I    between atoms: C_13  and  N_14 
REMARK    4  A    between atoms: N_14  and  C_15 
REMARK    5  A    between atoms: C_15  and  C_16 
REMARK    6  A    between atoms: C_24  and  C_25 
ROOT
HETATM    1  C   UNL     1      41.892 -16.402   3.706  1.00  0.00     0.118 C 
HETATM    2  N   UNL     1      41.779 -15.271   4.629  1.00  0.00    -0.366 N 
HETATM    3  C   UNL     1      42.744 -14.978   5.523  1.00  0.00     0.123 A 
HETATM    4  N   UNL     1      43.668 -15.914   5.886  1.00  0.00    -0.240 N 
HETATM    5  N   UNL     1      44.651 -15.439   6.670  1.00  0.00    -0.165 NA
HETATM    6  C   UNL     1      44.264 -14.162   6.911  1.00  0.00     0.148 A 
HETATM    7  C   UNL     1      43.058 -13.847   6.225  1.00  0.00     0.088 A 
HETATM    8  C   UNL     1      43.687 -17.252   5.334  1.00  0.00     0.221 C 
HETATM    9  C   UNL     1      43.214 -17.188   3.876  1.00  0.00     0.066 C 
HETATM   10  H   UNL     1      41.114 -14.553   4.339  1.00  0.00     0.161 HD
ENDROOT
BRANCH   6  11
HETATM   11  C   UNL     1      45.053 -13.252   7.754  1.00  0.00     0.272 C 
HETATM   12  N   UNL     1      44.364 -12.802   8.853  1.00  0.00    -0.351 N 
HETATM   13  H   UNL     1      43.445 -13.210   9.002  1.00  0.00     0.163 HD
HETATM   14  O   UNL     1      46.214 -12.945   7.503  1.00  0.00    -0.266 OA
BRANCH  12  15
HETATM   15  C   UNL     1      44.975 -11.976   9.857  1.00  0.00     0.161 C 
BRANCH  15  16
HETATM   16  C   UNL     1      43.990 -10.983  10.416  1.00  0.00    -0.041 A 
HETATM   17  C   UNL     1      42.906 -10.537   9.650  1.00  0.00     0.009 A 
HETATM   18  C   UNL     1      41.995  -9.620  10.178  1.00  0.00     0.001 A 
HETATM   19  C   UNL     1      42.159  -9.141  11.476  1.00  0.00     0.000 A 
HETATM   20  C   UNL     1      43.230  -9.580  12.250  1.00  0.00     0.001 A 
HETATM   21  C   UNL     1      44.139 -10.500  11.726  1.00  0.00     0.009 A 
ENDBRANCH  15  16
ENDBRANCH  12  15
ENDBRANCH   6  11
BRANCH   8  22
HETATM   22  C   UNL     1      42.853 -18.185   6.181  1.00  0.00     0.409 C 
HETATM   23  F   UNL     1      43.600 -19.117   6.811  1.00  0.00    -0.169 F 
HETATM   24  F   UNL     1      42.107 -17.553   7.111  1.00  0.00    -0.169 F 
HETATM   25  F   UNL     1      41.983 -18.862   5.385  1.00  0.00    -0.169 F 
ENDBRANCH   8  22
BRANCH   1  26
HETATM   26  C   UNL     1      41.757 -15.870   2.288  1.00  0.00    -0.035 A 
HETATM   27  C   UNL     1      41.560 -16.749   1.207  1.00  0.00     0.012 A 
HETATM   28  C   UNL     1      41.429 -16.271  -0.099  1.00  0.00     0.037 A 
HETATM   29  C   UNL     1      41.503 -14.904  -0.352  1.00  0.00     0.068 A 
HETATM   30  C   UNL     1      41.733 -14.026   0.709  1.00  0.00     0.037 A 
HETATM   31  C   UNL     1      41.854 -14.500   2.021  1.00  0.00     0.012 A 
BRANCH  29  32
HETATM   32  O   UNL     1      41.387 -14.313  -1.579  1.00  0.00    -0.356 OA
HETATM   33  C   UNL     1      41.065 -15.171  -2.668  1.00  0.00     0.210 C 
ENDBRANCH  29  32
ENDBRANCH   1  26
TORSDOF 6
ENDMDL
MODEL 5
REMARK VINA RESULT:      -8.7      3.882      6.982
REMARK  6 active torsions:
REMARK  status: ('A' for Active; 'I' for Inactive)
REMARK    1  A    between atoms: O_2  and  C_3 
REMARK    2  A    between atoms: C_6  and  C_7 
REMARK    3  A    between atoms: C_12  and  C_13 
REMARK       I    between atoms: C_13  and  N_14 
REMARK    4  A    between atoms: N_14  and  C_15 
REMARK    5  A    between atoms: C_15  and  C_16 
REMARK    6  A    between atoms: C_24  and  C_25 
ROOT
HETATM    1  C   UNL     1      41.806 -16.945   4.634  1.00  0.00     0.118 C 
HETATM    2  N   UNL     1      40.993 -17.104   3.426  1.00  0.00    -0.366 N 
HETATM    3  C   UNL     1      40.954 -16.164   2.461  1.00  0.00     0.123 A 
HETATM    4  N   UNL     1      41.339 -14.880   2.719  1.00  0.00    -0.240 N 
HETATM    5  N   UNL     1      41.385 -14.092   1.631  1.00  0.00    -0.165 NA
HETATM    6  C   UNL     1      40.894 -14.889   0.652  1.00  0.00     0.148 A 
HETATM    7  C   UNL     1      40.590 -16.190   1.143  1.00  0.00     0.088 A 
HETATM    8  C   UNL     1      41.821 -14.452   4.015  1.00  0.00     0.221 C 
HETATM    9  C   UNL     1      42.591 -15.612   4.659  1.00  0.00     0.066 C 
HETATM   10  H   UNL     1      40.736 -18.068   3.212  1.00  0.00     0.161 HD
ENDROOT
BRANCH   6  11
HETATM   11  C   UNL     1      40.749 -14.424  -0.735  1.00  0.00     0.272 C 
HETATM   12  N   UNL     1      41.949 -14.136  -1.336  1.00  0.00    -0.351 N 
HETATM   13  H   UNL     1      42.782 -14.357  -0.798  1.00  0.00     0.163 HD
HETATM   14  O   UNL     1      39.663 -14.323  -1.297  1.00  0.00    -0.266 OA
BRANCH  12  15
HETATM   15  C   UNL     1      42.045 -13.752  -2.717  1.00  0.00     0.161 C 
BRANCH  15  16
HETATM   16  C   UNL     1      42.340 -12.282  -2.854  1.00  0.00    -0.041 A 
HETATM   17  C   UNL     1      42.847 -11.547  -1.775  1.00  0.00     0.009 A 
HETATM   18  C   UNL     1      43.122 -10.185  -1.912  1.00  0.00     0.001 A 
HETATM   19  C   UNL     1      42.896  -9.546  -3.130  1.00  0.00     0.000 A 
HETATM   20  C   UNL     1      42.397 -10.266  -4.212  1.00  0.00     0.001 A 
HETATM   21  C   UNL     1      42.125 -11.628  -4.078  1.00  0.00     0.009 A 
ENDBRANCH  15  16
ENDBRANCH  12  15
ENDBRANCH   6  11
BRANCH   8  22
HETATM   22  C   UNL     1      40.675 -13.963   4.870  1.00  0.00     0.409 C 
HETATM   23  F   UNL     1      40.587 -12.616   4.893  1.00  0.00    -0.169 F 
HETATM   24  F   UNL     1      39.474 -14.452   4.499  1.00  0.00    -0.169 F 
HETATM   25  F   UNL     1      40.870 -14.358   6.157  1.00  0.00    -0.169 F 
ENDBRANCH   8  22
BRANCH   1  26
HETATM   26  C   UNL     1      42.751 -18.133   4.726  1.00  0.00    -0.035 A 
HETATM   27  C   UNL     1      43.118 -18.663   5.977  1.00  0.00     0.012 A 
HETATM   28  C   UNL     1      43.980 -19.757   6.074  1.00  0.00     0.037 A 
HETATM   29  C   UNL     1      44.503 -20.337   4.921  1.00  0.00     0.068 A 
HETATM   30  C   UNL     1      44.173 -19.797   3.676  1.00  0.00     0.037 A 
HETATM   31  C   UNL     1      43.301 -18.707   3.575  1.00  0.00     0.012 A 
BRANCH  29  32
HETATM   32  O   UNL     1      45.350 -21.410   4.882  1.00  0.00    -0.356 OA
HETATM   33  C   UNL     1      44.794 -22.639   4.429  1.00  0.00     0.210 C 
ENDBRANCH  29  32
ENDBRANCH   1  26
TORSDOF 6
ENDMDL
MODEL 6
REMARK VINA RESULT:      -8.6      3.957      7.959
REMARK  6 active torsions:
REMARK  status: ('A' for Active; 'I' for Inactive)
REMARK    1  A    between atoms: O_2  and  C_3 
REMARK    2  A    between atoms: C_6  and  C_7 
REMARK    3  A    between atoms: C_12  and  C_13 
REMARK       I    between atoms: C_13  and  N_14 
REMARK    4  A    between atoms: N_14  and  C_15 
REMARK    5  A    between atoms: C_15  and  C_16 
REMARK    6  A    between atoms: C_24  and  C_25 
ROOT
HETATM    1  C   UNL     1      41.946 -17.017   4.437  1.00  0.00     0.118 C 
HETATM    2  N   UNL     1      41.235 -17.194   3.170  1.00  0.00    -0.366 N 
HETATM    3  C   UNL     1      41.304 -16.285   2.178  1.00  0.00     0.123 A 
HETATM    4  N   UNL     1      41.701 -15.004   2.429  1.00  0.00    -0.240 N 
HETATM    5  N   UNL     1      41.862 -14.253   1.325  1.00  0.00    -0.165 NA
HETATM    6  C   UNL     1      41.432 -15.068   0.332  1.00  0.00     0.148 A 
HETATM    7  C   UNL     1      41.052 -16.344   0.834  1.00  0.00     0.088 A 
HETATM    8  C   UNL     1      42.084 -14.546   3.747  1.00  0.00     0.221 C 
HETATM    9  C   UNL     1      42.764 -15.704   4.490  1.00  0.00     0.066 C 
HETATM   10  H   UNL     1      40.970 -18.158   2.964  1.00  0.00     0.161 HD
ENDROOT
BRANCH   6  11
HETATM   11  C   UNL     1      41.418 -14.645  -1.076  1.00  0.00     0.272 C 
HETATM   12  N   UNL     1      40.726 -15.505  -1.892  1.00  0.00    -0.351 N 
HETATM   13  H   UNL     1      40.241 -16.267  -1.427  1.00  0.00     0.163 HD
HETATM   14  O   UNL     1      41.958 -13.616  -1.471  1.00  0.00    -0.266 OA
BRANCH  12  15
HETATM   15  C   UNL     1      40.511 -15.237  -3.286  1.00  0.00     0.161 C 
BRANCH  15  16
HETATM   16  C   UNL     1      39.174 -14.580  -3.514  1.00  0.00    -0.041 A 
HETATM   17  C   UNL     1      38.051 -15.341  -3.864  1.00  0.00     0.009 A 
HETATM   18  C   UNL     1      36.815 -14.725  -4.068  1.00  0.00     0.001 A 
HETATM   19  C   UNL     1      36.689 -13.346  -3.922  1.00  0.00     0.000 A 
HETATM   20  C   UNL     1      37.797 -12.578  -3.569  1.00  0.00     0.001 A 
HETATM   21  C   UNL     1      39.032 -13.192  -3.360  1.00  0.00     0.009 A 
ENDBRANCH  15  16
ENDBRANCH  12  15
ENDBRANCH   6  11
BRANCH   8  22
HETATM   22  C   UNL     1      40.885 -14.001   4.486  1.00  0.00     0.409 C 
HETATM   23  F   UNL     1      40.784 -12.658   4.386  1.00  0.00    -0.169 F 
HETATM   24  F   UNL     1      39.712 -14.535   4.088  1.00  0.00    -0.169 F 
HETATM   25  F   UNL     1      41.004 -14.280   5.812  1.00  0.00    -0.169 F 
ENDBRANCH   8  22
BRANCH   1  26
HETATM   26  C   UNL     1      42.847 -18.225   4.646  1.00  0.00    -0.035 A 
HETATM   27  C   UNL     1      43.106 -18.712   5.940  1.00  0.00     0.012 A 
HETATM   28  C   UNL     1      43.926 -19.823   6.144  1.00  0.00     0.037 A 
HETATM   29  C   UNL     1      44.514 -20.465   5.057  1.00  0.00     0.068 A 
HETATM   30  C   UNL     1      44.291 -19.968   3.770  1.00  0.00     0.037 A 
HETATM   31  C   UNL     1      43.461 -18.860   3.562  1.00  0.00     0.012 A 
BRANCH  29  32
HETATM   32  O   UNL     1      45.329 -21.560   5.122  1.00  0.00    -0.356 OA
HETATM   33  C   UNL     1      44.851 -22.743   4.492  1.00  0.00     0.210 C 
ENDBRANCH  29  32
ENDBRANCH   1  26
TORSDOF 6
ENDMDL
MODEL 7
REMARK VINA RESULT:      -8.5      2.946      8.811
REMARK  6 active torsions:
REMARK  status: ('A' for Active; 'I' for Inactive)
REMARK    1  A    between atoms: O_2  and  C_3 
REMARK    2  A    between atoms: C_6  and  C_7 
REMARK    3  A    between atoms: C_12  and  C_13 
REMARK       I    between atoms: C_13  and  N_14 
REMARK    4  A    between atoms: N_14  and  C_15 
REMARK    5  A    between atoms: C_15  and  C_16 
REMARK    6  A    between atoms: C_24  and  C_25 
ROOT
HETATM    1  C   UNL     1      39.604 -12.766   5.608  1.00  0.00     0.118 C 
HETATM    2  N   UNL     1      39.892 -14.067   6.216  1.00  0.00    -0.366 N 
HETATM    3  C   UNL     1      40.964 -14.801   5.860  1.00  0.00     0.123 A 
HETATM    4  N   UNL     1      41.605 -14.576   4.676  1.00  0.00    -0.240 N 
HETATM    5  N   UNL     1      42.738 -15.282   4.523  1.00  0.00    -0.165 NA
HETATM    6  C   UNL     1      42.755 -16.082   5.617  1.00  0.00     0.148 A 
HETATM    7  C   UNL     1      41.642 -15.823   6.466  1.00  0.00     0.088 A 
HETATM    8  C   UNL     1      41.196 -13.543   3.748  1.00  0.00     0.221 C 
HETATM    9  C   UNL     1      40.653 -12.352   4.549  1.00  0.00     0.066 C 
HETATM   10  H   UNL     1      39.442 -14.221   7.119  1.00  0.00     0.161 HD
ENDROOT
BRANCH   6  11
HETATM   11  C   UNL     1      43.833 -17.051   5.861  1.00  0.00     0.272 C 
HETATM   12  N   UNL     1      43.645 -18.243   5.207  1.00  0.00    -0.351 N 
HETATM   13  H   UNL     1      42.850 -18.285   4.575  1.00  0.00     0.163 HD
HETATM   14  O   UNL     1      44.807 -16.805   6.565  1.00  0.00    -0.266 OA
BRANCH  12  15
HETATM   15  C   UNL     1      44.621 -19.296   5.233  1.00  0.00     0.161 C 
BRANCH  15  16
HETATM   16  C   UNL     1      44.440 -20.235   4.069  1.00  0.00    -0.041 A 
HETATM   17  C   UNL     1      44.798 -21.585   4.173  1.00  0.00     0.009 A 
HETATM   18  C   UNL     1      44.623 -22.449   3.090  1.00  0.00     0.001 A 
HETATM   19  C   UNL     1      44.086 -21.973   1.896  1.00  0.00     0.000 A 
HETATM   20  C   UNL     1      43.721 -20.633   1.782  1.00  0.00     0.001 A 
HETATM   21  C   UNL     1      43.891 -19.769   2.864  1.00  0.00     0.009 A 
ENDBRANCH  15  16
ENDBRANCH  12  15
ENDBRANCH   6  11
BRANCH   8  22
HETATM   22  C   UNL     1      40.195 -14.088   2.758  1.00  0.00     0.409 C 
HETATM   23  F   UNL     1      40.772 -14.471   1.598  1.00  0.00    -0.169 F 
HETATM   24  F   UNL     1      39.478 -15.130   3.228  1.00  0.00    -0.169 F 
HETATM   25  F   UNL     1      39.298 -13.117   2.439  1.00  0.00    -0.169 F 
ENDBRANCH   8  22
BRANCH   1  26
HETATM   26  C   UNL     1      39.522 -11.733   6.722  1.00  0.00    -0.035 A 
HETATM   27  C   UNL     1      39.751 -10.371   6.456  1.00  0.00     0.012 A 
HETATM   28  C   UNL     1      39.673  -9.413   7.469  1.00  0.00     0.037 A 
HETATM   29  C   UNL     1      39.375  -9.800   8.773  1.00  0.00     0.068 A 
HETATM   30  C   UNL     1      39.181 -11.154   9.055  1.00  0.00     0.037 A 
HETATM   31  C   UNL     1      39.249 -12.116   8.040  1.00  0.00     0.012 A 
BRANCH  29  32
HETATM   32  O   UNL     1      39.266  -8.962   9.848  1.00  0.00    -0.356 OA
HETATM   33  C   UNL     1      40.420  -8.196  10.174  1.00  0.00     0.210 C 
ENDBRANCH  29  32
ENDBRANCH   1  26
TORSDOF 6
ENDMDL
MODEL 8
REMARK VINA RESULT:      -8.4      2.205      8.232
REMARK  6 active torsions:
REMARK  status: ('A' for Active; 'I' for Inactive)
REMARK    1  A    between atoms: O_2  and  C_3 
REMARK    2  A    between atoms: C_6  and  C_7 
REMARK    3  A    between atoms: C_12  and  C_13 
REMARK       I    between atoms: C_13  and  N_14 
REMARK    4  A    between atoms: N_14  and  C_15 
REMARK    5  A    between atoms: C_15  and  C_16 
REMARK    6  A    between atoms: C_24  and  C_25 
ROOT
HETATM    1  C   UNL     1      39.486 -13.360   4.225  1.00  0.00     0.118 C 
HETATM    2  N   UNL     1      39.970 -14.729   4.422  1.00  0.00    -0.366 N 
HETATM    3  C   UNL     1      40.755 -15.347   3.519  1.00  0.00     0.123 A 
HETATM    4  N   UNL     1      40.822 -14.904   2.230  1.00  0.00    -0.240 N 
HETATM    5  N   UNL     1      41.752 -15.524   1.484  1.00  0.00    -0.165 NA
HETATM    6  C   UNL     1      42.219 -16.490   2.313  1.00  0.00     0.148 A 
HETATM    7  C   UNL     1      41.598 -16.422   3.591  1.00  0.00     0.088 A 
HETATM    8  C   UNL     1      40.082 -13.753   1.757  1.00  0.00     0.221 C 
HETATM    9  C   UNL     1      39.980 -12.733   2.899  1.00  0.00     0.066 C 
HETATM   10  H   UNL     1      39.954 -15.048   5.392  1.00  0.00     0.161 HD
ENDROOT
BRANCH   6  11
HETATM   11  C   UNL     1      43.265 -17.436   1.899  1.00  0.00     0.272 C 
HETATM   12  N   UNL     1      42.912 -18.749   2.093  1.00  0.00    -0.351 N 
HETATM   13  H   UNL     1      41.960 -18.913   2.407  1.00  0.00     0.163 HD
HETATM   14  O   UNL     1      44.335 -17.082   1.415  1.00  0.00    -0.266 OA
BRANCH  12  15
HETATM   15  C   UNL     1      43.748 -19.839   1.675  1.00  0.00     0.161 C 
BRANCH  15  16
HETATM   16  C   UNL     1      44.177 -20.678   2.850  1.00  0.00    -0.041 A 
HETATM   17  C   UNL     1      44.416 -20.094   4.100  1.00  0.00     0.009 A 
HETATM   18  C   UNL     1      44.808 -20.880   5.185  1.00  0.00     0.001 A 
HETATM   19  C   UNL     1      44.963 -22.256   5.031  1.00  0.00     0.000 A 
HETATM   20  C   UNL     1      44.723 -22.850   3.795  1.00  0.00     0.001 A 
HETATM   21  C   UNL     1      44.327 -22.067   2.710  1.00  0.00     0.009 A 
ENDBRANCH  15  16
ENDBRANCH  12  15
ENDBRANCH   6  11
BRANCH   8  22
HETATM   22  C   UNL     1      38.732 -14.175   1.226  1.00  0.00     0.409 C 
HETATM   23  F   UNL     1      38.722 -14.294  -0.119  1.00  0.00    -0.169 F 
HETATM   24  F   UNL     1      38.280 -15.334   1.749  1.00  0.00    -0.169 F 
HETATM   25  F   UNL     1      37.808 -13.227   1.536  1.00  0.00    -0.169 F 
ENDBRANCH   8  22
BRANCH   1  26
HETATM   26  C   UNL     1      39.931 -12.527   5.417  1.00  0.00    -0.035 A 
HETATM   27  C   UNL     1      39.155 -12.481   6.590  1.00  0.00     0.012 A 
HETATM   28  C   UNL     1      39.555 -11.724   7.693  1.00  0.00     0.037 A 
HETATM   29  C   UNL     1      40.736 -10.987   7.641  1.00  0.00     0.068 A 
HETATM   30  C   UNL     1      41.495 -10.998   6.469  1.00  0.00     0.037 A 
HETATM   31  C   UNL     1      41.102 -11.763   5.365  1.00  0.00     0.012 A 
BRANCH  29  32
HETATM   32  O   UNL     1      41.238 -10.213   8.650  1.00  0.00    -0.356 OA
HETATM   33  C   UNL     1      42.572 -10.492   9.058  1.00  0.00     0.210 C 
ENDBRANCH  29  32
ENDBRANCH   1  26
TORSDOF 6
ENDMDL
MODEL 9
REMARK VINA RESULT:      -8.4      3.448      7.618
REMARK  6 active torsions:
REMARK  status: ('A' for Active; 'I' for Inactive)
REMARK    1  A    between atoms: O_2  and  C_3 
REMARK    2  A    between atoms: C_6  and  C_7 
REMARK    3  A    between atoms: C_12  and  C_13 
REMARK       I    between atoms: C_13  and  N_14 
REMARK    4  A    between atoms: N_14  and  C_15 
REMARK    5  A    between atoms: C_15  and  C_16 
REMARK    6  A    between atoms: C_24  and  C_25 
ROOT
HETATM    1  C   UNL     1      42.448 -16.503   4.749  1.00  0.00     0.118 C 
HETATM    2  N   UNL     1      41.088 -16.517   4.205  1.00  0.00    -0.366 N 
HETATM    3  C   UNL     1      40.628 -15.536   3.405  1.00  0.00     0.123 A 
HETATM    4  N   UNL     1      41.238 -14.315   3.374  1.00  0.00    -0.240 N 
HETATM    5  N   UNL     1      40.761 -13.488   2.427  1.00  0.00    -0.165 NA
HETATM    6  C   UNL     1      39.718 -14.181   1.908  1.00  0.00     0.148 A 
HETATM    7  C   UNL     1      39.591 -15.462   2.516  1.00  0.00     0.088 A 
HETATM    8  C   UNL     1      42.406 -14.001   4.169  1.00  0.00     0.221 C 
HETATM    9  C   UNL     1      43.263 -15.267   4.300  1.00  0.00     0.066 C 
HETATM   10  H   UNL     1      40.646 -17.437   4.194  1.00  0.00     0.161 HD
ENDROOT
BRANCH   6  11
HETATM   11  C   UNL     1      38.881 -13.640   0.828  1.00  0.00     0.272 C 
HETATM   12  N   UNL     1      39.608 -13.202  -0.251  1.00  0.00    -0.351 N 
HETATM   13  H   UNL     1      40.607 -13.380  -0.217  1.00  0.00     0.163 HD
HETATM   14  O   UNL     1      37.656 -13.604   0.885  1.00  0.00    -0.266 OA
BRANCH  12  15
HETATM   15  C   UNL     1      38.986 -12.721  -1.453  1.00  0.00     0.161 C 
BRANCH  15  16
HETATM   16  C   UNL     1      38.808 -13.831  -2.456  1.00  0.00    -0.041 A 
HETATM   17  C   UNL     1      39.900 -14.598  -2.879  1.00  0.00     0.009 A 
HETATM   18  C   UNL     1      39.726 -15.629  -3.805  1.00  0.00     0.001 A 
HETATM   19  C   UNL     1      38.458 -15.902  -4.314  1.00  0.00     0.000 A 
HETATM   20  C   UNL     1      37.362 -15.150  -3.898  1.00  0.00     0.001 A 
HETATM   21  C   UNL     1      37.534 -14.123  -2.969  1.00  0.00     0.009 A 
ENDBRANCH  15  16
ENDBRANCH  12  15
ENDBRANCH   6  11
BRANCH   8  22
HETATM   22  C   UNL     1      41.997 -13.430   5.506  1.00  0.00     0.409 C 
HETATM   23  F   UNL     1      42.854 -13.767   6.494  1.00  0.00    -0.169 F 
HETATM   24  F   UNL     1      41.871 -12.086   5.507  1.00  0.00    -0.169 F 
HETATM   25  F   UNL     1      40.784 -13.930   5.861  1.00  0.00    -0.169 F 
ENDBRANCH   8  22
BRANCH   1  26
HETATM   26  C   UNL     1      43.139 -17.791   4.326  1.00  0.00    -0.035 A 
HETATM   27  C   UNL     1      43.847 -18.566   5.262  1.00  0.00     0.012 A 
HETATM   28  C   UNL     1      44.480 -19.753   4.887  1.00  0.00     0.037 A 
HETATM   29  C   UNL     1      44.428 -20.183   3.564  1.00  0.00     0.068 A 
HETATM   30  C   UNL     1      43.757 -19.402   2.619  1.00  0.00     0.037 A 
HETATM   31  C   UNL     1      43.112 -18.218   2.994  1.00  0.00     0.012 A 
BRANCH  29  32
HETATM   32  O   UNL     1      45.000 -21.324   3.072  1.00  0.00    -0.356 OA
HETATM   33  C   UNL     1      44.346 -21.933   1.965  1.00  0.00     0.210 C 
ENDBRANCH  29  32
ENDBRANCH   1  26
TORSDOF 6
ENDMDL
MODEL 10
REMARK VINA RESULT:      -8.3      1.142      1.780
REMARK  6 active torsions:
REMARK  status: ('A' for Active; 'I' for Inactive)
REMARK    1  A    between atoms: O_2  and  C_3 
REMARK    2  A    between atoms: C_6  and  C_7 
REMARK    3  A    between atoms: C_12  and  C_13 
REMARK       I    between atoms: C_13  and  N_14 
REMARK    4  A    between atoms: N_14  and  C_15 
REMARK    5  A    between atoms: C_15  and  C_16 
REMARK    6  A    between atoms: C_24  and  C_25 
ROOT
HETATM    1  C   UNL     1      42.232 -15.962   3.190  1.00  0.00     0.118 C 
HETATM    2  N   UNL     1      42.679 -14.792   3.949  1.00  0.00    -0.366 N 
HETATM    3  C   UNL     1      41.810 -13.934   4.519  1.00  0.00     0.123 A 
HETATM    4  N   UNL     1      40.510 -13.878   4.108  1.00  0.00    -0.240 N 
HETATM    5  N   UNL     1      39.730 -13.085   4.862  1.00  0.00    -0.165 NA
HETATM    6  C   UNL     1      40.608 -12.519   5.725  1.00  0.00     0.148 A 
HETATM    7  C   UNL     1      41.928 -13.012   5.523  1.00  0.00     0.088 A 
HETATM    8  C   UNL     1      39.981 -14.730   3.064  1.00  0.00     0.221 C 
HETATM    9  C   UNL     1      40.690 -16.089   3.134  1.00  0.00     0.066 C 
HETATM   10  H   UNL     1      43.640 -14.849   4.288  1.00  0.00     0.161 HD
ENDROOT
BRANCH   6  11
HETATM   11  C   UNL     1      40.185 -11.551   6.747  1.00  0.00     0.272 C 
HETATM   12  N   UNL     1      41.044 -11.484   7.816  1.00  0.00    -0.351 N 
HETATM   13  H   UNL     1      41.896 -12.031   7.738  1.00  0.00     0.163 HD
HETATM   14  O   UNL     1      39.175 -10.863   6.640  1.00  0.00    -0.266 OA
BRANCH  12  15
HETATM   15  C   UNL     1      40.870 -10.540   8.884  1.00  0.00     0.161 C 
BRANCH  15  16
HETATM   16  C   UNL     1      42.081 -10.502   9.779  1.00  0.00    -0.041 A 
HETATM   17  C   UNL     1      43.329 -10.940   9.318  1.00  0.00     0.009 A 
HETATM   18  C   UNL     1      44.447 -10.897  10.152  1.00  0.00     0.001 A 
HETATM   19  C   UNL     1      44.329 -10.412  11.453  1.00  0.00     0.000 A 
HETATM   20  C   UNL     1      43.096  -9.968  11.922  1.00  0.00     0.001 A 
HETATM   21  C   UNL     1      41.977 -10.006  11.089  1.00  0.00     0.009 A 
ENDBRANCH  15  16
ENDBRANCH  12  15
ENDBRANCH   6  11
BRANCH   8  22
HETATM   22  C   UNL     1      40.123 -14.064   1.715  1.00  0.00     0.409 C 
HETATM   23  F   UNL     1      41.073 -13.104   1.712  1.00  0.00    -0.169 F 
HETATM   24  F   UNL     1      40.397 -14.923   0.712  1.00  0.00    -0.169 F 
HETATM   25  F   UNL     1      38.954 -13.451   1.388  1.00  0.00    -0.169 F 
ENDBRANCH   8  22
BRANCH   1  26
HETATM   26  C   UNL     1      42.855 -17.199   3.820  1.00  0.00    -0.035 A 
HETATM   27  C   UNL     1      43.695 -18.040   3.069  1.00  0.00     0.012 A 
HETATM   28  C   UNL     1      44.277 -19.175   3.637  1.00  0.00     0.037 A 
HETATM   29  C   UNL     1      44.021 -19.498   4.967  1.00  0.00     0.068 A 
HETATM   30  C   UNL     1      43.161 -18.688   5.712  1.00  0.00     0.037 A 
HETATM   31  C   UNL     1      42.583 -17.544   5.148  1.00  0.00     0.012 A 
BRANCH  29  32
HETATM   32  O   UNL     1      44.531 -20.574   5.639  1.00  0.00    -0.356 OA
HETATM   33  C   UNL     1      44.909 -21.694   4.846  1.00  0.00     0.210 C 
ENDBRANCH  29  32
ENDBRANCH   1  26
TORSDOF 6
ENDMDL
