MODEL 1
REMARK VINA RESULT:      -8.8      0.000      0.000
REMARK  6 active torsions:
REMARK  status: ('A' for Active; 'I' for Inactive)
REMARK    1  A    between atoms: C_3  and  C_4 
REMARK       I    between atoms: C_4  and  N_5 
REMARK    2  A    between atoms: N_5  and  C_6 
REMARK    3  A    between atoms: C_6  and  C_7 
REMARK    4  A    between atoms: C_6  and  C_22 
REMARK       I    between atoms: C_7  and  N_8 
REMARK    5  A    between atoms: N_8  and  C_9 
REMARK    6  A    between atoms: C_11  and  C_12 
ROOT
HETATM    1  C   UNL     1      42.923 -16.063   1.989  1.00  0.00     0.245 C 
HETATM    2  N   UNL     1      42.885 -16.253   3.357  1.00  0.00    -0.325 N 
HETATM    3  O   UNL     1      43.676 -16.669   1.229  1.00  0.00    -0.271 OA
HETATM    4  H   UNL     1      42.238 -15.657   3.872  1.00  0.00     0.169 HD
ENDROOT
BRANCH   1   5
HETATM    5  C   UNL     1      41.777 -15.140   1.450  1.00  0.00     0.180 C 
BRANCH   5   6
HETATM    6  N   UNL     1      41.199 -15.504   0.138  1.00  0.00    -0.343 N 
HETATM    7  C   UNL     1      41.196 -14.641  -0.933  1.00  0.00     0.252 C 
HETATM    8  O   UNL     1      42.018 -13.749  -1.091  1.00  0.00    -0.268 OA
HETATM    9  H   UNL     1      40.479 -16.218   0.139  1.00  0.00     0.163 HD
BRANCH   7  10
HETATM   10  C   UNL     1      40.135 -14.867  -1.934  1.00  0.00     0.037 A 
HETATM   11  C   UNL     1      38.917 -14.164  -1.878  1.00  0.00    -0.046 A 
HETATM   12  C   UNL     1      38.609 -13.163  -0.800  1.00  0.00     0.049 C 
HETATM   13  C   UNL     1      37.955 -14.423  -2.865  1.00  0.00     0.007 A 
HETATM   14  C   UNL     1      38.215 -15.329  -3.895  1.00  0.00     0.001 A 
HETATM   15  C   UNL     1      39.439 -15.994  -3.954  1.00  0.00     0.001 A 
HETATM   16  C   UNL     1      40.404 -15.764  -2.974  1.00  0.00     0.017 A 
ENDBRANCH   7  10
ENDBRANCH   5   6
BRANCH   5  17
HETATM   17  C   UNL     1      40.616 -14.915   2.460  1.00  0.00     0.009 C 
HETATM   18  C   UNL     1      40.416 -13.445   2.843  1.00  0.00     0.012 C 
HETATM   19  C   UNL     1      39.295 -15.542   2.007  1.00  0.00     0.012 C 
ENDBRANCH   5  17
ENDBRANCH   1   5
BRANCH   2  20
HETATM   20  C   UNL     1      43.541 -17.236   4.122  1.00  0.00     0.035 A 
HETATM   21  C   UNL     1      43.788 -18.537   3.673  1.00  0.00     0.042 A 
HETATM   22  C   UNL     1      44.355 -19.502   4.523  1.00  0.00    -0.021 A 
HETATM   23  C   UNL     1      44.721 -19.123   5.822  1.00  0.00     0.012 A 
HETATM   24  C   UNL     1      44.493 -17.823   6.273  1.00  0.00     0.003 A 
HETATM   25  C   UNL     1      43.889 -16.890   5.432  1.00  0.00     0.029 A 
BRANCH  22  26
HETATM   26  C   UNL     1      44.512 -20.887   4.097  1.00  0.00     0.010 A 
HETATM   27  C   UNL     1      44.455 -21.470   2.807  1.00  0.00     0.152 A 
HETATM   28  N   UNL     1      44.683 -22.786   2.816  1.00  0.00    -0.187 NA
HETATM   29  N   UNL     1      44.896 -23.054   4.113  1.00  0.00    -0.289 N 
HETATM   30  H   UNL     1      45.108 -24.011   4.378  1.00  0.00     0.188 HD
HETATM   31  C   UNL     1      44.801 -21.958   4.918  1.00  0.00     0.123 A 
ENDBRANCH  22  26
ENDBRANCH   2  20
TORSDOF 6
ENDMDL
MODEL 2
REMARK VINA RESULT:      -8.8      4.957      9.082
REMARK  6 active torsions:
REMARK  status: ('A' for Active; 'I' for Inactive)
REMARK    1  A    between atoms: C_3  and  C_4 
REMARK       I    between atoms: C_4  and  N_5 
REMARK    2  A    between atoms: N_5  and  C_6 
REMARK    3  A    between atoms: C_6  and  C_7 
REMARK    4  A    between atoms: C_6  and  C_22 
REMARK       I    between atoms: C_7  and  N_8 
REMARK    5  A    between atoms: N_8  and  C_9 
REMARK    6  A    between atoms: C_11  and  C_12 
ROOT
HETATM    1  C   UNL     1      43.848 -15.799   6.735  1.00  0.00     0.245 C 
HETATM    2  N   UNL     1      44.564 -14.665   6.405  1.00  0.00    -0.325 N 
HETATM    3  O   UNL     1      43.653 -16.181   7.888  1.00  0.00    -0.271 OA
HETATM    4  H   UNL     1      44.680 -14.485   5.408  1.00  0.00     0.169 HD
ENDROOT
BRANCH   1   5
HETATM    5  C   UNL     1      43.125 -16.464   5.514  1.00  0.00     0.180 C 
BRANCH   5   6
HETATM    6  N   UNL     1      43.245 -17.934   5.398  1.00  0.00    -0.343 N 
HETATM    7  C   UNL     1      44.462 -18.572   5.323  1.00  0.00     0.252 C 
HETATM    8  O   UNL     1      45.497 -18.121   5.794  1.00  0.00    -0.268 OA
HETATM    9  H   UNL     1      42.458 -18.426   4.992  1.00  0.00     0.163 HD
BRANCH   7  10
HETATM   10  C   UNL     1      44.455 -19.886   4.651  1.00  0.00     0.037 A 
HETATM   11  C   UNL     1      44.312 -19.991   3.255  1.00  0.00    -0.046 A 
HETATM   12  C   UNL     1      44.140 -18.791   2.367  1.00  0.00     0.049 C 
HETATM   13  C   UNL     1      44.320 -21.271   2.681  1.00  0.00     0.007 A 
HETATM   14  C   UNL     1      44.502 -22.407   3.473  1.00  0.00     0.001 A 
HETATM   15  C   UNL     1      44.674 -22.283   4.851  1.00  0.00     0.001 A 
HETATM   16  C   UNL     1      44.653 -21.022   5.444  1.00  0.00     0.017 A 
ENDBRANCH   7  10
ENDBRANCH   5   6
BRANCH   5  17
HETATM   17  C   UNL     1      41.625 -16.075   5.375  1.00  0.00     0.009 C 
HETATM   18  C   UNL     1      41.117 -16.112   3.930  1.00  0.00     0.012 C 
HETATM   19  C   UNL     1      40.708 -16.884   6.295  1.00  0.00     0.012 C 
ENDBRANCH   5  17
ENDBRANCH   1   5
BRANCH   2  20
HETATM   20  C   UNL     1      45.063 -13.664   7.261  1.00  0.00     0.035 A 
HETATM   21  C   UNL     1      44.303 -13.040   8.255  1.00  0.00     0.042 A 
HETATM   22  C   UNL     1      44.829 -11.976   9.008  1.00  0.00    -0.021 A 
HETATM   23  C   UNL     1      46.155 -11.583   8.782  1.00  0.00     0.012 A 
HETATM   24  C   UNL     1      46.925 -12.212   7.804  1.00  0.00     0.003 A 
HETATM   25  C   UNL     1      46.374 -13.235   7.036  1.00  0.00     0.029 A 
BRANCH  22  26
HETATM   26  C   UNL     1      44.006 -11.248   9.967  1.00  0.00     0.010 A 
HETATM   27  C   UNL     1      44.280 -10.836  11.295  1.00  0.00     0.152 A 
HETATM   28  N   UNL     1      43.275 -10.153  11.849  1.00  0.00    -0.187 NA
HETATM   29  N   UNL     1      42.352 -10.116  10.876  1.00  0.00    -0.289 N 
HETATM   30  H   UNL     1      41.481  -9.629  11.058  1.00  0.00     0.188 HD
HETATM   31  C   UNL     1      42.737 -10.758   9.736  1.00  0.00     0.123 A 
ENDBRANCH  22  26
ENDBRANCH   2  20
TORSDOF 6
ENDMDL
MODEL 3
REMARK VINA RESULT:      -8.6      1.691      2.343
REMARK  6 active torsions:
REMARK  status: ('A' for Active; 'I' for Inactive)
REMARK    1  A    between atoms: C_3  and  C_4 
REMARK       I    between atoms: C_4  and  N_5 
REMARK    2  A    between atoms: N_5  and  C_6 
REMARK    3  A    between atoms: C_6  and  C_7 
REMARK    4  A    between atoms: C_6  and  C_22 
REMARK       I    between atoms: C_7  and  N_8 
REMARK    5  A    between atoms: N_8  and  C_9 
REMARK    6  A    between atoms: C_11  and  C_12 
ROOT
HETATM    1  C   UNL     1      41.561 -16.248   0.354  1.00  0.00     0.245 C 
HETATM    2  N   UNL     1      42.853 -16.378   0.828  1.00  0.00    -0.325 N 
HETATM    3  O   UNL     1      40.602 -16.887   0.783  1.00  0.00    -0.271 OA
HETATM    4  H   UNL     1      43.559 -15.814   0.356  1.00  0.00     0.169 HD
ENDROOT
BRANCH   1   5
HETATM    5  C   UNL     1      41.377 -15.065  -0.656  1.00  0.00     0.180 C 
BRANCH   5   6
HETATM    6  N   UNL     1      40.118 -15.050  -1.432  1.00  0.00    -0.343 N 
HETATM    7  C   UNL     1      40.087 -14.803  -2.785  1.00  0.00     0.252 C 
HETATM    8  O   UNL     1      41.021 -15.034  -3.541  1.00  0.00    -0.268 OA
HETATM    9  H   UNL     1      39.269 -14.839  -0.920  1.00  0.00     0.163 HD
BRANCH   7  10
HETATM   10  C   UNL     1      38.820 -14.254  -3.307  1.00  0.00     0.037 A 
HETATM   11  C   UNL     1      38.629 -12.868  -3.450  1.00  0.00    -0.046 A 
HETATM   12  C   UNL     1      39.680 -11.863  -3.071  1.00  0.00     0.049 C 
HETATM   13  C   UNL     1      37.403 -12.415  -3.958  1.00  0.00     0.007 A 
HETATM   14  C   UNL     1      36.412 -13.321  -4.344  1.00  0.00     0.001 A 
HETATM   15  C   UNL     1      36.629 -14.693  -4.224  1.00  0.00     0.001 A 
HETATM   16  C   UNL     1      37.834 -15.164  -3.707  1.00  0.00     0.017 A 
ENDBRANCH   7  10
ENDBRANCH   5   6
BRANCH   5  17
HETATM   17  C   UNL     1      41.593 -13.657  -0.030  1.00  0.00     0.009 C 
HETATM   18  C   UNL     1      42.375 -12.700  -0.935  1.00  0.00     0.012 C 
HETATM   19  C   UNL     1      40.293 -13.009   0.451  1.00  0.00     0.012 C 
ENDBRANCH   5  17
ENDBRANCH   1   5
BRANCH   2  20
HETATM   20  C   UNL     1      43.305 -17.103   1.947  1.00  0.00     0.035 A 
HETATM   21  C   UNL     1      43.663 -18.454   1.908  1.00  0.00     0.042 A 
HETATM   22  C   UNL     1      44.009 -19.147   3.081  1.00  0.00    -0.021 A 
HETATM   23  C   UNL     1      44.041 -18.443   4.293  1.00  0.00     0.012 A 
HETATM   24  C   UNL     1      43.701 -17.091   4.338  1.00  0.00     0.003 A 
HETATM   25  C   UNL     1      43.318 -16.430   3.173  1.00  0.00     0.029 A 
BRANCH  22  26
HETATM   26  C   UNL     1      44.274 -20.580   3.064  1.00  0.00     0.010 A 
HETATM   27  C   UNL     1      44.251 -21.511   1.996  1.00  0.00     0.152 A 
HETATM   28  N   UNL     1      44.586 -22.749   2.374  1.00  0.00    -0.187 NA
HETATM   29  N   UNL     1      44.833 -22.616   3.686  1.00  0.00    -0.289 N 
HETATM   30  H   UNL     1      45.124 -23.437   4.205  1.00  0.00     0.188 HD
HETATM   31  C   UNL     1      44.657 -21.344   4.147  1.00  0.00     0.123 A 
ENDBRANCH  22  26
ENDBRANCH   2  20
TORSDOF 6
ENDMDL
MODEL 4
REMARK VINA RESULT:      -8.5      1.156      1.456
REMARK  6 active torsions:
REMARK  status: ('A' for Active; 'I' for Inactive)
REMARK    1  A    between atoms: C_3  and  C_4 
REMARK       I    between atoms: C_4  and  N_5 
REMARK    2  A    between atoms: N_5  and  C_6 
REMARK    3  A    between atoms: C_6  and  C_7 
REMARK    4  A    between atoms: C_6  and  C_22 
REMARK       I    between atoms: C_7  and  N_8 
REMARK    5  A    between atoms: N_8  and  C_9 
REMARK    6  A    between atoms: C_11  and  C_12 
ROOT
HETATM    1  C   UNL     1      42.549 -14.472   2.585  1.00  0.00     0.245 C 
HETATM    2  N   UNL     1      42.124 -15.730   2.966  1.00  0.00    -0.325 N 
HETATM    3  O   UNL     1      43.657 -14.009   2.849  1.00  0.00    -0.271 OA
HETATM    4  H   UNL     1      41.167 -15.973   2.713  1.00  0.00     0.169 HD
ENDROOT
BRANCH   1   5
HETATM    5  C   UNL     1      41.563 -13.744   1.609  1.00  0.00     0.180 C 
BRANCH   5   6
HETATM    6  N   UNL     1      41.146 -14.499   0.407  1.00  0.00    -0.343 N 
HETATM    7  C   UNL     1      41.274 -13.993  -0.865  1.00  0.00     0.252 C 
HETATM    8  O   UNL     1      42.111 -13.160  -1.186  1.00  0.00    -0.268 OA
HETATM    9  H   UNL     1      40.430 -15.204   0.537  1.00  0.00     0.163 HD
BRANCH   7  10
HETATM   10  C   UNL     1      40.340 -14.540  -1.869  1.00  0.00     0.037 A 
HETATM   11  C   UNL     1      39.101 -13.926  -2.123  1.00  0.00    -0.046 A 
HETATM   12  C   UNL     1      38.639 -12.699  -1.390  1.00  0.00     0.049 C 
HETATM   13  C   UNL     1      38.265 -14.497  -3.095  1.00  0.00     0.007 A 
HETATM   14  C   UNL     1      38.671 -15.623  -3.814  1.00  0.00     0.001 A 
HETATM   15  C   UNL     1      39.916 -16.201  -3.571  1.00  0.00     0.001 A 
HETATM   16  C   UNL     1      40.756 -15.660  -2.599  1.00  0.00     0.017 A 
ENDBRANCH   7  10
ENDBRANCH   5   6
BRANCH   5  17
HETATM   17  C   UNL     1      40.294 -13.169   2.301  1.00  0.00     0.009 C 
HETATM   18  C   UNL     1      40.028 -11.699   1.963  1.00  0.00     0.012 C 
HETATM   19  C   UNL     1      39.043 -14.017   2.059  1.00  0.00     0.012 C 
ENDBRANCH   5  17
ENDBRANCH   1   5
BRANCH   2  20
HETATM   20  C   UNL     1      42.873 -16.764   3.561  1.00  0.00     0.035 A 
HETATM   21  C   UNL     1      43.165 -17.977   2.930  1.00  0.00     0.042 A 
HETATM   22  C   UNL     1      43.829 -19.009   3.615  1.00  0.00    -0.021 A 
HETATM   23  C   UNL     1      44.244 -18.782   4.935  1.00  0.00     0.012 A 
HETATM   24  C   UNL     1      43.971 -17.568   5.566  1.00  0.00     0.003 A 
HETATM   25  C   UNL     1      43.273 -16.572   4.887  1.00  0.00     0.029 A 
BRANCH  22  26
HETATM   26  C   UNL     1      44.037 -20.314   3.001  1.00  0.00     0.010 A 
HETATM   27  C   UNL     1      44.650 -21.487   3.508  1.00  0.00     0.152 A 
HETATM   28  N   UNL     1      44.622 -22.507   2.645  1.00  0.00    -0.187 NA
HETATM   29  N   UNL     1      43.983 -21.996   1.582  1.00  0.00    -0.289 N 
HETATM   30  H   UNL     1      43.824 -22.598   0.781  1.00  0.00     0.188 HD
HETATM   31  C   UNL     1      43.618 -20.691   1.742  1.00  0.00     0.123 A 
ENDBRANCH  22  26
ENDBRANCH   2  20
TORSDOF 6
ENDMDL
MODEL 5
REMARK VINA RESULT:      -8.5      2.235      3.344
REMARK  6 active torsions:
REMARK  status: ('A' for Active; 'I' for Inactive)
REMARK    1  A    between atoms: C_3  and  C_4 
REMARK       I    between atoms: C_4  and  N_5 
REMARK    2  A    between atoms: N_5  and  C_6 
REMARK    3  A    between atoms: C_6  and  C_7 
REMARK    4  A    between atoms: C_6  and  C_22 
REMARK       I    between atoms: C_7  and  N_8 
REMARK    5  A    between atoms: N_8  and  C_9 
REMARK    6  A    between atoms: C_11  and  C_12 
ROOT
HETATM    1  C   UNL     1      41.740 -16.692   0.960  1.00  0.00     0.245 C 
HETATM    2  N   UNL     1      42.889 -16.690   1.728  1.00  0.00    -0.325 N 
HETATM    3  O   UNL     1      40.936 -17.622   0.924  1.00  0.00    -0.271 OA
HETATM    4  H   UNL     1      43.486 -15.870   1.635  1.00  0.00     0.169 HD
ENDROOT
BRANCH   1   5
HETATM    5  C   UNL     1      41.438 -15.315   0.277  1.00  0.00     0.180 C 
BRANCH   5   6
HETATM    6  N   UNL     1      40.358 -15.303  -0.734  1.00  0.00    -0.343 N 
HETATM    7  C   UNL     1      40.487 -14.664  -1.945  1.00  0.00     0.252 C 
HETATM    8  O   UNL     1      41.559 -14.468  -2.501  1.00  0.00    -0.268 OA
HETATM    9  H   UNL     1      39.412 -15.427  -0.393  1.00  0.00     0.163 HD
BRANCH   7  10
HETATM   10  C   UNL     1      39.225 -14.234  -2.579  1.00  0.00     0.037 A 
HETATM   11  C   UNL     1      38.585 -15.032  -3.545  1.00  0.00    -0.046 A 
HETATM   12  C   UNL     1      39.142 -16.350  -4.005  1.00  0.00     0.049 C 
HETATM   13  C   UNL     1      37.385 -14.564  -4.102  1.00  0.00     0.007 A 
HETATM   14  C   UNL     1      36.826 -13.356  -3.682  1.00  0.00     0.001 A 
HETATM   15  C   UNL     1      37.457 -12.592  -2.701  1.00  0.00     0.001 A 
HETATM   16  C   UNL     1      38.658 -13.030  -2.145  1.00  0.00     0.017 A 
ENDBRANCH   7  10
ENDBRANCH   5   6
BRANCH   5  17
HETATM   17  C   UNL     1      41.195 -14.150   1.278  1.00  0.00     0.009 C 
HETATM   18  C   UNL     1      41.872 -12.839   0.865  1.00  0.00     0.012 C 
HETATM   19  C   UNL     1      39.713 -13.922   1.586  1.00  0.00     0.012 C 
ENDBRANCH   5  17
ENDBRANCH   1   5
BRANCH   2  20
HETATM   20  C   UNL     1      43.290 -17.622   2.705  1.00  0.00     0.035 A 
HETATM   21  C   UNL     1      43.190 -17.398   4.082  1.00  0.00     0.042 A 
HETATM   22  C   UNL     1      43.702 -18.325   5.006  1.00  0.00    -0.021 A 
HETATM   23  C   UNL     1      44.273 -19.511   4.523  1.00  0.00     0.012 A 
HETATM   24  C   UNL     1      44.362 -19.749   3.151  1.00  0.00     0.003 A 
HETATM   25  C   UNL     1      43.888 -18.800   2.248  1.00  0.00     0.029 A 
BRANCH  22  26
HETATM   26  C   UNL     1      43.702 -18.047   6.437  1.00  0.00     0.010 A 
HETATM   27  C   UNL     1      43.465 -16.843   7.145  1.00  0.00     0.152 A 
HETATM   28  N   UNL     1      43.522 -16.994   8.471  1.00  0.00    -0.187 NA
HETATM   29  N   UNL     1      43.788 -18.301   8.621  1.00  0.00    -0.289 N 
HETATM   30  H   UNL     1      43.868 -18.669   9.563  1.00  0.00     0.188 HD
HETATM   31  C   UNL     1      43.909 -18.972   7.440  1.00  0.00     0.123 A 
ENDBRANCH  22  26
ENDBRANCH   2  20
TORSDOF 6
ENDMDL
MODEL 6
REMARK VINA RESULT:      -8.4      1.896      2.599
REMARK  6 active torsions:
REMARK  status: ('A' for Active; 'I' for Inactive)
REMARK    1  A    between atoms: C_3  and  C_4 
REMARK       I    between atoms: C_4  and  N_5 
REMARK    2  A    between atoms: N_5  and  C_6 
REMARK    3  A    between atoms: C_6  and  C_7 
REMARK    4  A    between atoms: C_6  and  C_22 
REMARK       I    between atoms: C_7  and  N_8 
REMARK    5  A    between atoms: N_8  and  C_9 
REMARK    6  A    between atoms: C_11  and  C_12 
ROOT
HETATM    1  C   UNL     1      42.452 -15.104   2.336  1.00  0.00     0.245 C 
HETATM    2  N   UNL     1      41.993 -16.399   2.482  1.00  0.00    -0.325 N 
HETATM    3  O   UNL     1      43.524 -14.697   2.780  1.00  0.00    -0.271 OA
HETATM    4  H   UNL     1      41.070 -16.591   2.097  1.00  0.00     0.169 HD
ENDROOT
BRANCH   1   5
HETATM    5  C   UNL     1      41.573 -14.229   1.378  1.00  0.00     0.180 C 
BRANCH   5   6
HETATM    6  N   UNL     1      41.072 -14.893   0.154  1.00  0.00    -0.343 N 
HETATM    7  C   UNL     1      41.128 -14.297  -1.084  1.00  0.00     0.252 C 
HETATM    8  O   UNL     1      41.955 -13.452  -1.397  1.00  0.00    -0.268 OA
HETATM    9  H   UNL     1      40.355 -15.598   0.279  1.00  0.00     0.163 HD
BRANCH   7  10
HETATM   10  C   UNL     1      40.125 -14.762  -2.064  1.00  0.00     0.037 A 
HETATM   11  C   UNL     1      38.873 -14.132  -2.181  1.00  0.00    -0.046 A 
HETATM   12  C   UNL     1      38.466 -12.971  -1.317  1.00  0.00     0.049 C 
HETATM   13  C   UNL     1      37.971 -14.622  -3.137  1.00  0.00     0.007 A 
HETATM   14  C   UNL     1      38.323 -15.683  -3.973  1.00  0.00     0.001 A 
HETATM   15  C   UNL     1      39.580 -16.276  -3.865  1.00  0.00     0.001 A 
HETATM   16  C   UNL     1      40.486 -15.816  -2.911  1.00  0.00     0.017 A 
ENDBRANCH   7  10
ENDBRANCH   5   6
BRANCH   5  17
HETATM   17  C   UNL     1      40.382 -13.518   2.082  1.00  0.00     0.009 C 
HETATM   18  C   UNL     1      39.091 -14.343   2.078  1.00  0.00     0.012 C 
HETATM   19  C   UNL     1      40.719 -13.042   3.497  1.00  0.00     0.012 C 
ENDBRANCH   5  17
ENDBRANCH   1   5
BRANCH   2  20
HETATM   20  C   UNL     1      42.678 -17.517   2.996  1.00  0.00     0.035 A 
HETATM   21  C   UNL     1      42.793 -17.801   4.360  1.00  0.00     0.042 A 
HETATM   22  C   UNL     1      43.577 -18.876   4.814  1.00  0.00    -0.021 A 
HETATM   23  C   UNL     1      44.206 -19.696   3.866  1.00  0.00     0.012 A 
HETATM   24  C   UNL     1      44.083 -19.429   2.502  1.00  0.00     0.003 A 
HETATM   25  C   UNL     1      43.338 -18.333   2.072  1.00  0.00     0.029 A 
BRANCH  22  26
HETATM   26  C   UNL     1      43.791 -19.111   6.236  1.00  0.00     0.010 A 
HETATM   27  C   UNL     1      44.226 -18.236   7.262  1.00  0.00     0.152 A 
HETATM   28  N   UNL     1      44.269 -18.818   8.464  1.00  0.00    -0.187 NA
HETATM   29  N   UNL     1      43.853 -20.070   8.216  1.00  0.00    -0.289 N 
HETATM   30  H   UNL     1      43.787 -20.717   8.994  1.00  0.00     0.188 HD
HETATM   31  C   UNL     1      43.560 -20.296   6.903  1.00  0.00     0.123 A 
ENDBRANCH  22  26
ENDBRANCH   2  20
TORSDOF 6
ENDMDL
MODEL 7
REMARK VINA RESULT:      -8.1      2.657      8.197
REMARK  6 active torsions:
REMARK  status: ('A' for Active; 'I' for Inactive)
REMARK    1  A    between atoms: C_3  and  C_4 
REMARK       I    between atoms: C_4  and  N_5 
REMARK    2  A    between atoms: N_5  and  C_6 
REMARK    3  A    between atoms: C_6  and  C_7 
REMARK    4  A    between atoms: C_6  and  C_22 
REMARK       I    between atoms: C_7  and  N_8 
REMARK    5  A    between atoms: N_8  and  C_9 
REMARK    6  A    between atoms: C_11  and  C_12 
ROOT
HETATM    1  C   UNL     1      41.344 -13.567   2.474  1.00  0.00     0.245 C 
HETATM    2  N   UNL     1      42.023 -13.790   1.292  1.00  0.00    -0.325 N 
HETATM    3  O   UNL     1      40.305 -12.914   2.560  1.00  0.00    -0.271 OA
HETATM    4  H   UNL     1      42.891 -14.318   1.370  1.00  0.00     0.169 HD
ENDROOT
BRANCH   1   5
HETATM    5  C   UNL     1      41.903 -14.387   3.686  1.00  0.00     0.180 C 
BRANCH   5   6
HETATM    6  N   UNL     1      42.666 -15.611   3.358  1.00  0.00    -0.343 N 
HETATM    7  C   UNL     1      42.077 -16.853   3.293  1.00  0.00     0.252 C 
HETATM    8  O   UNL     1      40.896 -17.034   3.030  1.00  0.00    -0.268 OA
HETATM    9  H   UNL     1      43.659 -15.598   3.559  1.00  0.00     0.163 HD
BRANCH   7  10
HETATM   10  C   UNL     1      42.974 -18.000   3.536  1.00  0.00     0.037 A 
HETATM   11  C   UNL     1      43.267 -18.434   4.842  1.00  0.00    -0.046 A 
HETATM   12  C   UNL     1      42.710 -17.758   6.063  1.00  0.00     0.049 C 
HETATM   13  C   UNL     1      44.122 -19.534   4.999  1.00  0.00     0.007 A 
HETATM   14  C   UNL     1      44.639 -20.202   3.887  1.00  0.00     0.001 A 
HETATM   15  C   UNL     1      44.314 -19.778   2.599  1.00  0.00     0.001 A 
HETATM   16  C   UNL     1      43.479 -18.677   2.420  1.00  0.00     0.017 A 
ENDBRANCH   7  10
ENDBRANCH   5   6
BRANCH   5  17
HETATM   17  C   UNL     1      42.730 -13.541   4.696  1.00  0.00     0.009 C 
HETATM   18  C   UNL     1      41.879 -12.907   5.801  1.00  0.00     0.012 C 
HETATM   19  C   UNL     1      43.913 -14.307   5.294  1.00  0.00     0.012 C 
ENDBRANCH   5  17
ENDBRANCH   1   5
BRANCH   2  20
HETATM   20  C   UNL     1      41.620 -13.480  -0.021  1.00  0.00     0.035 A 
HETATM   21  C   UNL     1      40.770 -14.285  -0.786  1.00  0.00     0.042 A 
HETATM   22  C   UNL     1      40.487 -13.972  -2.127  1.00  0.00    -0.021 A 
HETATM   23  C   UNL     1      41.033 -12.803  -2.674  1.00  0.00     0.012 A 
HETATM   24  C   UNL     1      41.869 -11.985  -1.913  1.00  0.00     0.003 A 
HETATM   25  C   UNL     1      42.174 -12.333  -0.599  1.00  0.00     0.029 A 
BRANCH  22  26
HETATM   26  C   UNL     1      39.694 -14.865  -2.962  1.00  0.00     0.010 A 
HETATM   27  C   UNL     1      38.411 -14.694  -3.539  1.00  0.00     0.152 A 
HETATM   28  N   UNL     1      38.025 -15.739  -4.276  1.00  0.00    -0.187 NA
HETATM   29  N   UNL     1      39.063 -16.584  -4.183  1.00  0.00    -0.289 N 
HETATM   30  H   UNL     1      39.011 -17.466  -4.681  1.00  0.00     0.188 HD
HETATM   31  C   UNL     1      40.081 -16.112  -3.407  1.00  0.00     0.123 A 
ENDBRANCH  22  26
ENDBRANCH   2  20
TORSDOF 6
ENDMDL
MODEL 8
REMARK VINA RESULT:      -8.1      3.831      8.565
REMARK  6 active torsions:
REMARK  status: ('A' for Active; 'I' for Inactive)
REMARK    1  A    between atoms: C_3  and  C_4 
REMARK       I    between atoms: C_4  and  N_5 
REMARK    2  A    between atoms: N_5  and  C_6 
REMARK    3  A    between atoms: C_6  and  C_7 
REMARK    4  A    between atoms: C_6  and  C_22 
REMARK       I    between atoms: C_7  and  N_8 
REMARK    5  A    between atoms: N_8  and  C_9 
REMARK    6  A    between atoms: C_11  and  C_12 
ROOT
HETATM    1  C   UNL     1      41.197 -15.415   4.356  1.00  0.00     0.245 C 
HETATM    2  N   UNL     1      41.401 -14.076   4.085  1.00  0.00    -0.325 N 
HETATM    3  O   UNL     1      40.605 -15.835   5.349  1.00  0.00    -0.271 OA
HETATM    4  H   UNL     1      41.940 -13.868   3.245  1.00  0.00     0.169 HD
ENDROOT
BRANCH   1   5
HETATM    5  C   UNL     1      41.615 -16.366   3.183  1.00  0.00     0.180 C 
BRANCH   5   6
HETATM    6  N   UNL     1      42.399 -17.565   3.552  1.00  0.00    -0.343 N 
HETATM    7  C   UNL     1      43.536 -17.940   2.877  1.00  0.00     0.252 C 
HETATM    8  O   UNL     1      44.259 -17.159   2.273  1.00  0.00    -0.268 OA
HETATM    9  H   UNL     1      41.902 -18.304   4.035  1.00  0.00     0.163 HD
BRANCH   7  10
HETATM   10  C   UNL     1      43.874 -19.376   2.939  1.00  0.00     0.037 A 
HETATM   11  C   UNL     1      44.501 -19.929   4.070  1.00  0.00    -0.046 A 
HETATM   12  C   UNL     1      44.882 -19.107   5.269  1.00  0.00     0.049 C 
HETATM   13  C   UNL     1      44.788 -21.302   4.064  1.00  0.00     0.007 A 
HETATM   14  C   UNL     1      44.426 -22.103   2.979  1.00  0.00     0.001 A 
HETATM   15  C   UNL     1      43.777 -21.543   1.878  1.00  0.00     0.001 A 
HETATM   16  C   UNL     1      43.497 -20.178   1.856  1.00  0.00     0.017 A 
ENDBRANCH   7  10
ENDBRANCH   5   6
BRANCH   5  17
HETATM   17  C   UNL     1      40.433 -16.805   2.272  1.00  0.00     0.009 C 
HETATM   18  C   UNL     1      39.461 -15.667   1.942  1.00  0.00     0.012 C 
HETATM   19  C   UNL     1      40.891 -17.515   0.995  1.00  0.00     0.012 C 
ENDBRANCH   5  17
ENDBRANCH   1   5
BRANCH   2  20
HETATM   20  C   UNL     1      40.871 -12.957   4.755  1.00  0.00     0.035 A 
HETATM   21  C   UNL     1      41.420 -12.414   5.921  1.00  0.00     0.042 A 
HETATM   22  C   UNL     1      40.784 -11.360   6.600  1.00  0.00    -0.021 A 
HETATM   23  C   UNL     1      39.609 -10.822   6.056  1.00  0.00     0.012 A 
HETATM   24  C   UNL     1      39.064 -11.347   4.884  1.00  0.00     0.003 A 
HETATM   25  C   UNL     1      39.683 -12.421   4.248  1.00  0.00     0.029 A 
BRANCH  22  26
HETATM   26  C   UNL     1      41.290 -10.865   7.874  1.00  0.00     0.010 A 
HETATM   27  C   UNL     1      42.603 -10.853   8.405  1.00  0.00     0.152 A 
HETATM   28  N   UNL     1      42.676 -10.278   9.609  1.00  0.00    -0.187 NA
HETATM   29  N   UNL     1      41.409  -9.910   9.853  1.00  0.00    -0.289 N 
HETATM   30  H   UNL     1      41.207  -9.431  10.724  1.00  0.00     0.188 HD
HETATM   31  C   UNL     1      40.543 -10.242   8.853  1.00  0.00     0.123 A 
ENDBRANCH  22  26
ENDBRANCH   2  20
TORSDOF 6
ENDMDL
MODEL 9
REMARK VINA RESULT:      -8.1      6.284      9.301
REMARK  6 active torsions:
REMARK  status: ('A' for Active; 'I' for Inactive)
REMARK    1  A    between atoms: C_3  and  C_4 
REMARK       I    between atoms: C_4  and  N_5 
REMARK    2  A    between atoms: N_5  and  C_6 
REMARK    3  A    between atoms: C_6  and  C_7 
REMARK    4  A    between atoms: C_6  and  C_22 
REMARK       I    between atoms: C_7  and  N_8 
REMARK    5  A    between atoms: N_8  and  C_9 
REMARK    6  A    between atoms: C_11  and  C_12 
ROOT
HETATM    1  C   UNL     1      44.332 -13.082   7.792  1.00  0.00     0.245 C 
HETATM    2  N   UNL     1      43.259 -13.318   6.955  1.00  0.00    -0.325 N 
HETATM    3  O   UNL     1      45.419 -13.651   7.697  1.00  0.00    -0.271 OA
HETATM    4  H   UNL     1      42.405 -12.804   7.170  1.00  0.00     0.169 HD
ENDROOT
BRANCH   1   5
HETATM    5  C   UNL     1      44.118 -11.873   8.766  1.00  0.00     0.180 C 
BRANCH   5   6
HETATM    6  N   UNL     1      42.719 -11.564   9.135  1.00  0.00    -0.343 N 
HETATM    7  C   UNL     1      42.122 -10.364   8.827  1.00  0.00     0.252 C 
HETATM    8  O   UNL     1      42.451  -9.662   7.880  1.00  0.00    -0.268 OA
HETATM    9  H   UNL     1      42.336 -12.063   9.929  1.00  0.00     0.163 HD
BRANCH   7  10
HETATM   10  C   UNL     1      41.007  -9.960   9.707  1.00  0.00     0.037 A 
HETATM   11  C   UNL     1      41.243  -9.319  10.937  1.00  0.00    -0.046 A 
HETATM   12  C   UNL     1      42.627  -9.022  11.443  1.00  0.00     0.049 C 
HETATM   13  C   UNL     1      40.137  -8.957  11.719  1.00  0.00     0.007 A 
HETATM   14  C   UNL     1      38.836  -9.195  11.270  1.00  0.00     0.001 A 
HETATM   15  C   UNL     1      38.619  -9.803  10.034  1.00  0.00     0.001 A 
HETATM   16  C   UNL     1      39.704 -10.185   9.248  1.00  0.00     0.017 A 
ENDBRANCH   7  10
ENDBRANCH   5   6
BRANCH   5  17
HETATM   17  C   UNL     1      44.971 -11.946  10.064  1.00  0.00     0.009 C 
HETATM   18  C   UNL     1      45.730 -10.650  10.369  1.00  0.00     0.012 C 
HETATM   19  C   UNL     1      44.169 -12.405  11.284  1.00  0.00     0.012 C 
ENDBRANCH   5  17
ENDBRANCH   1   5
BRANCH   2  20
HETATM   20  C   UNL     1      43.219 -14.092   5.779  1.00  0.00     0.035 A 
HETATM   21  C   UNL     1      43.407 -15.477   5.751  1.00  0.00     0.042 A 
HETATM   22  C   UNL     1      43.459 -16.178   4.534  1.00  0.00    -0.021 A 
HETATM   23  C   UNL     1      43.265 -15.468   3.341  1.00  0.00     0.012 A 
HETATM   24  C   UNL     1      43.061 -14.088   3.361  1.00  0.00     0.003 A 
HETATM   25  C   UNL     1      43.057 -13.402   4.574  1.00  0.00     0.029 A 
BRANCH  22  26
HETATM   26  C   UNL     1      43.765 -17.602   4.492  1.00  0.00     0.010 A 
HETATM   27  C   UNL     1      43.634 -18.545   3.442  1.00  0.00     0.152 A 
HETATM   28  N   UNL     1      44.054 -19.767   3.781  1.00  0.00    -0.187 NA
HETATM   29  N   UNL     1      44.466 -19.613   5.049  1.00  0.00    -0.289 N 
HETATM   30  H   UNL     1      44.848 -20.419   5.531  1.00  0.00     0.188 HD
HETATM   31  C   UNL     1      44.310 -18.342   5.520  1.00  0.00     0.123 A 
ENDBRANCH  22  26
ENDBRANCH   2  20
TORSDOF 6
ENDMDL
MODEL 10
REMARK VINA RESULT:      -7.8      6.006      9.466
REMARK  6 active torsions:
REMARK  status: ('A' for Active; 'I' for Inactive)
REMARK    1  A    between atoms: C_3  and  C_4 
REMARK       I    between atoms: C_4  and  N_5 
REMARK    2  A    between atoms: N_5  and  C_6 
REMARK    3  A    between atoms: C_6  and  C_7 
REMARK    4  A    between atoms: C_6  and  C_22 
REMARK       I    between atoms: C_7  and  N_8 
REMARK    5  A    between atoms: N_8  and  C_9 
REMARK    6  A    between atoms: C_11  and  C_12 
ROOT
HETATM    1  C   UNL     1      44.690 -13.260   7.724  1.00  0.00     0.245 C 
HETATM    2  N   UNL     1      43.618 -14.113   7.543  1.00  0.00    -0.325 N 
HETATM    3  O   UNL     1      45.744 -13.334   7.094  1.00  0.00    -0.271 OA
HETATM    4  H   UNL     1      42.820 -13.962   8.159  1.00  0.00     0.169 HD
ENDROOT
BRANCH   1   5
HETATM    5  C   UNL     1      44.380 -12.052   8.672  1.00  0.00     0.180 C 
BRANCH   5   6
HETATM    6  N   UNL     1      42.956 -11.819   9.000  1.00  0.00    -0.343 N 
HETATM    7  C   UNL     1      42.281 -10.691   8.597  1.00  0.00     0.252 C 
HETATM    8  O   UNL     1      42.576 -10.038   7.605  1.00  0.00    -0.268 OA
HETATM    9  H   UNL     1      42.596 -12.285   9.825  1.00  0.00     0.163 HD
BRANCH   7  10
HETATM   10  C   UNL     1      41.125 -10.306   9.430  1.00  0.00     0.037 A 
HETATM   11  C   UNL     1      41.299  -9.645  10.660  1.00  0.00    -0.046 A 
HETATM   12  C   UNL     1      42.655  -9.307  11.213  1.00  0.00     0.049 C 
HETATM   13  C   UNL     1      40.156  -9.303  11.397  1.00  0.00     0.007 A 
HETATM   14  C   UNL     1      38.879  -9.579  10.904  1.00  0.00     0.001 A 
HETATM   15  C   UNL     1      38.723 -10.207   9.669  1.00  0.00     0.001 A 
HETATM   16  C   UNL     1      39.846 -10.570   8.927  1.00  0.00     0.017 A 
ENDBRANCH   7  10
ENDBRANCH   5   6
BRANCH   5  17
HETATM   17  C   UNL     1      45.201 -12.057   9.994  1.00  0.00     0.009 C 
HETATM   18  C   UNL     1      45.890 -10.721  10.288  1.00  0.00     0.012 C 
HETATM   19  C   UNL     1      44.389 -12.527  11.203  1.00  0.00     0.012 C 
ENDBRANCH   5  17
ENDBRANCH   1   5
BRANCH   2  20
HETATM   20  C   UNL     1      43.438 -15.093   6.548  1.00  0.00     0.035 A 
HETATM   21  C   UNL     1      42.486 -15.001   5.528  1.00  0.00     0.042 A 
HETATM   22  C   UNL     1      42.286 -16.060   4.626  1.00  0.00    -0.021 A 
HETATM   23  C   UNL     1      43.097 -17.198   4.733  1.00  0.00     0.012 A 
HETATM   24  C   UNL     1      44.060 -17.291   5.739  1.00  0.00     0.003 A 
HETATM   25  C   UNL     1      44.216 -16.250   6.652  1.00  0.00     0.029 A 
BRANCH  22  26
HETATM   26  C   UNL     1      41.221 -16.017   3.631  1.00  0.00     0.010 A 
HETATM   27  C   UNL     1      40.328 -14.975   3.278  1.00  0.00     0.152 A 
HETATM   28  N   UNL     1      39.501 -15.308   2.283  1.00  0.00    -0.187 NA
HETATM   29  N   UNL     1      39.866 -16.565   1.986  1.00  0.00    -0.289 N 
HETATM   30  H   UNL     1      39.380 -17.041   1.234  1.00  0.00     0.188 HD
HETATM   31  C   UNL     1      40.883 -17.035   2.763  1.00  0.00     0.123 A 
ENDBRANCH  22  26
ENDBRANCH   2  20
TORSDOF 6
ENDMDL
