MODEL 1
REMARK VINA RESULT:      -8.7      0.000      0.000
REMARK  8 active torsions:
REMARK  status: ('A' for Active; 'I' for Inactive)
REMARK    1  A    between atoms: C_2  and  S_3 
REMARK    2  A    between atoms: C_2  and  C_24 
REMARK    3  A    between atoms: S_3  and  C_4 
REMARK    4  A    between atoms: N_5  and  C_6 
REMARK    5  A    between atoms: C_13  and  C_14 
REMARK    6  A    between atoms: C_14  and  N_15 
REMARK       I    between atoms: C_24  and  N_25 
REMARK    7  A    between atoms: N_25  and  C_26 
REMARK    8  A    between atoms: C_29  and  C_30 
REMARK       I    between atoms: C_30  and  N_31 
ROOT
HETATM    1  C   UNL     1      41.723 -12.980   3.839  1.00  0.00     0.197 A 
HETATM    2  N   UNL     1      41.285 -13.491   5.048  1.00  0.00    -0.274 N 
HETATM    3  C   UNL     1      40.352 -12.556   5.484  1.00  0.00     0.161 A 
HETATM    4  N   UNL     1      40.242 -11.588   4.594  1.00  0.00    -0.132 NA
HETATM    5  N   UNL     1      41.070 -11.876   3.552  1.00  0.00    -0.122 NA
ENDROOT
BRANCH   1   6
HETATM    6  S   UNL     1      42.732 -13.795   2.694  1.00  0.00    -0.076 SA
BRANCH   6   7
HETATM    7  C   UNL     1      41.612 -14.967   1.850  1.00  0.00     0.143 C 
HETATM    8  C   UNL     1      41.721 -14.794   0.339  1.00  0.00     0.031 C 
BRANCH   7   9
HETATM    9  C   UNL     1      41.801 -16.421   2.282  1.00  0.00     0.236 C 
HETATM   10  N   UNL     1      43.113 -16.857   2.301  1.00  0.00    -0.326 N 
HETATM   11  H   UNL     1      43.817 -16.131   2.381  1.00  0.00     0.169 HD
HETATM   12  O   UNL     1      40.828 -17.078   2.652  1.00  0.00    -0.272 OA
BRANCH  10  13
HETATM   13  C   UNL     1      43.536 -18.156   2.648  1.00  0.00     0.034 A 
HETATM   14  C   UNL     1      43.567 -19.216   1.739  1.00  0.00     0.030 A 
HETATM   15  C   UNL     1      43.978 -20.490   2.151  1.00  0.00     0.019 A 
HETATM   16  C   UNL     1      44.353 -20.707   3.479  1.00  0.00     0.032 A 
HETATM   17  C   UNL     1      44.334 -19.645   4.388  1.00  0.00     0.019 A 
HETATM   18  C   UNL     1      43.948 -18.371   3.968  1.00  0.00     0.030 A 
BRANCH  16  19
HETATM   19  C   UNL     1      44.726 -22.053   3.978  1.00  0.00     0.249 C 
HETATM   20  N   UNL     1      45.053 -22.161   5.300  1.00  0.00    -0.366 N 
HETATM   21  H   UNL     1      44.835 -21.439   5.973  1.00  0.00     0.159 HD
HETATM   22  H   UNL     1      45.192 -23.100   5.656  1.00  0.00     0.159 HD
HETATM   23  O   UNL     1      44.721 -23.026   3.236  1.00  0.00    -0.268 OA
ENDBRANCH  16  19
ENDBRANCH  10  13
ENDBRANCH   7   9
ENDBRANCH   6   7
ENDBRANCH   1   6
BRANCH   2  24
HETATM   24  C   UNL     1      41.681 -14.677   5.712  1.00  0.00     0.043 A 
HETATM   25  C   UNL     1      42.977 -14.788   6.237  1.00  0.00     0.033 A 
HETATM   26  C   UNL     1      43.366 -15.965   6.879  1.00  0.00     0.044 A 
HETATM   27  C   UNL     1      42.469 -17.019   6.990  1.00  0.00     0.116 A 
HETATM   28  F   UNL     1      42.846 -18.149   7.601  1.00  0.00    -0.206 F 
HETATM   29  C   UNL     1      41.181 -16.920   6.474  1.00  0.00     0.044 A 
HETATM   30  C   UNL     1      40.781 -15.746   5.832  1.00  0.00     0.033 A 
ENDBRANCH   2  24
BRANCH   3  31
HETATM   31  C   UNL     1      39.698 -12.526   6.821  1.00  0.00     0.315 C 
BRANCH  31  32
HETATM   32  N   UNL     1      40.001 -11.236   7.578  1.00  0.00    -0.064 N 
HETATM   33  H   UNL     1      39.653 -10.485   6.960  1.00  0.00     0.280 HD
HETATM   34  C   UNL     1      39.214 -11.121   8.865  1.00  0.00     0.235 C 
HETATM   35  C   UNL     1      39.442  -9.747   9.479  1.00  0.00     0.028 C 
HETATM   36  C   UNL     1      40.924  -9.476   9.707  1.00  0.00     0.003 C 
HETATM   37  C   UNL     1      41.720  -9.661   8.420  1.00  0.00     0.028 C 
HETATM   38  C   UNL     1      41.476 -11.026   7.790  1.00  0.00     0.235 C 
ENDBRANCH  31  32
ENDBRANCH   3  31
TORSDOF 8
ENDMDL
MODEL 2
REMARK VINA RESULT:      -8.6      3.791      8.454
REMARK  8 active torsions:
REMARK  status: ('A' for Active; 'I' for Inactive)
REMARK    1  A    between atoms: C_2  and  S_3 
REMARK    2  A    between atoms: C_2  and  C_24 
REMARK    3  A    between atoms: S_3  and  C_4 
REMARK    4  A    between atoms: N_5  and  C_6 
REMARK    5  A    between atoms: C_13  and  C_14 
REMARK    6  A    between atoms: C_14  and  N_15 
REMARK       I    between atoms: C_24  and  N_25 
REMARK    7  A    between atoms: N_25  and  C_26 
REMARK    8  A    between atoms: C_29  and  C_30 
REMARK       I    between atoms: C_30  and  N_31 
ROOT
HETATM    1  C   UNL     1      42.071 -16.819   6.186  1.00  0.00     0.197 A 
HETATM    2  N   UNL     1      42.785 -17.399   5.153  1.00  0.00    -0.274 N 
HETATM    3  C   UNL     1      43.743 -18.169   5.803  1.00  0.00     0.161 A 
HETATM    4  N   UNL     1      43.589 -18.062   7.109  1.00  0.00    -0.132 NA
HETATM    5  N   UNL     1      42.521 -17.250   7.343  1.00  0.00    -0.122 NA
ENDROOT
BRANCH   1   6
HETATM    6  S   UNL     1      40.602 -15.918   6.031  1.00  0.00    -0.076 SA
BRANCH   6   7
HETATM    7  C   UNL     1      41.148 -14.213   5.667  1.00  0.00     0.143 C 
HETATM    8  C   UNL     1      42.670 -14.132   5.716  1.00  0.00     0.031 C 
BRANCH   7   9
HETATM    9  C   UNL     1      40.580 -13.647   4.365  1.00  0.00     0.236 C 
HETATM   10  N   UNL     1      40.281 -14.591   3.401  1.00  0.00    -0.326 N 
HETATM   11  H   UNL     1      40.124 -15.534   3.743  1.00  0.00     0.169 HD
HETATM   12  O   UNL     1      40.352 -12.440   4.273  1.00  0.00    -0.272 OA
BRANCH  10  13
HETATM   13  C   UNL     1      39.764 -14.314   2.120  1.00  0.00     0.034 A 
HETATM   14  C   UNL     1      38.409 -14.439   1.801  1.00  0.00     0.030 A 
HETATM   15  C   UNL     1      37.961 -14.168   0.502  1.00  0.00     0.019 A 
HETATM   16  C   UNL     1      38.871 -13.780  -0.485  1.00  0.00     0.032 A 
HETATM   17  C   UNL     1      40.225 -13.643  -0.165  1.00  0.00     0.019 A 
HETATM   18  C   UNL     1      40.665 -13.889   1.137  1.00  0.00     0.030 A 
BRANCH  16  19
HETATM   19  C   UNL     1      38.454 -13.553  -1.889  1.00  0.00     0.249 C 
HETATM   20  N   UNL     1      38.050 -14.643  -2.606  1.00  0.00    -0.366 N 
HETATM   21  H   UNL     1      37.813 -15.522  -2.167  1.00  0.00     0.159 HD
HETATM   22  H   UNL     1      37.658 -14.462  -3.522  1.00  0.00     0.159 HD
HETATM   23  O   UNL     1      38.454 -12.429  -2.375  1.00  0.00    -0.268 OA
ENDBRANCH  16  19
ENDBRANCH  10  13
ENDBRANCH   7   9
ENDBRANCH   6   7
ENDBRANCH   1   6
BRANCH   2  24
HETATM   24  C   UNL     1      42.609 -17.253   3.755  1.00  0.00     0.043 A 
HETATM   25  C   UNL     1      43.497 -16.458   3.015  1.00  0.00     0.033 A 
HETATM   26  C   UNL     1      43.310 -16.308   1.640  1.00  0.00     0.044 A 
HETATM   27  C   UNL     1      42.246 -16.944   1.014  1.00  0.00     0.116 A 
HETATM   28  F   UNL     1      42.066 -16.793  -0.303  1.00  0.00    -0.206 F 
HETATM   29  C   UNL     1      41.361 -17.735   1.738  1.00  0.00     0.044 A 
HETATM   30  C   UNL     1      41.539 -17.894   3.114  1.00  0.00     0.033 A 
ENDBRANCH   2  24
BRANCH   3  31
HETATM   31  C   UNL     1      44.888 -18.872   5.162  1.00  0.00     0.315 C 
BRANCH  31  32
HETATM   32  N   UNL     1      44.438 -20.105   4.381  1.00  0.00    -0.064 N 
HETATM   33  H   UNL     1      43.421 -20.165   4.556  1.00  0.00     0.280 HD
HETATM   34  C   UNL     1      44.598 -19.933   2.886  1.00  0.00     0.235 C 
HETATM   35  C   UNL     1      43.982 -21.126   2.170  1.00  0.00     0.028 C 
HETATM   36  C   UNL     1      44.589 -22.439   2.648  1.00  0.00     0.003 C 
HETATM   37  C   UNL     1      44.485 -22.573   4.163  1.00  0.00     0.028 C 
HETATM   38  C   UNL     1      45.080 -21.370   4.883  1.00  0.00     0.235 C 
ENDBRANCH  31  32
ENDBRANCH   3  31
TORSDOF 8
ENDMDL
MODEL 3
REMARK VINA RESULT:      -8.5      2.841      5.504
REMARK  8 active torsions:
REMARK  status: ('A' for Active; 'I' for Inactive)
REMARK    1  A    between atoms: C_2  and  S_3 
REMARK    2  A    between atoms: C_2  and  C_24 
REMARK    3  A    between atoms: S_3  and  C_4 
REMARK    4  A    between atoms: N_5  and  C_6 
REMARK    5  A    between atoms: C_13  and  C_14 
REMARK    6  A    between atoms: C_14  and  N_15 
REMARK       I    between atoms: C_24  and  N_25 
REMARK    7  A    between atoms: N_25  and  C_26 
REMARK    8  A    between atoms: C_29  and  C_30 
REMARK       I    between atoms: C_30  and  N_31 
ROOT
HETATM    1  C   UNL     1      41.923 -12.932   3.741  1.00  0.00     0.197 A 
HETATM    2  N   UNL     1      41.142 -13.398   2.698  1.00  0.00    -0.274 N 
HETATM    3  C   UNL     1      40.427 -12.277   2.293  1.00  0.00     0.161 A 
HETATM    4  N   UNL     1      40.775 -11.237   3.027  1.00  0.00    -0.132 NA
HETATM    5  N   UNL     1      41.737 -11.641   3.903  1.00  0.00    -0.122 NA
ENDROOT
BRANCH   1   6
HETATM    6  S   UNL     1      43.199 -13.798   4.526  1.00  0.00    -0.076 SA
BRANCH   6   7
HETATM    7  C   UNL     1      42.343 -14.917   5.690  1.00  0.00     0.143 C 
HETATM    8  C   UNL     1      40.923 -14.421   5.938  1.00  0.00     0.031 C 
BRANCH   7   9
HETATM    9  C   UNL     1      42.379 -16.387   5.273  1.00  0.00     0.236 C 
HETATM   10  N   UNL     1      43.569 -16.801   4.702  1.00  0.00    -0.326 N 
HETATM   11  H   UNL     1      44.384 -16.240   4.927  1.00  0.00     0.169 HD
HETATM   12  O   UNL     1      41.421 -17.117   5.529  1.00  0.00    -0.272 OA
BRANCH  10  13
HETATM   13  C   UNL     1      43.836 -18.099   4.225  1.00  0.00     0.034 A 
HETATM   14  C   UNL     1      43.570 -18.501   2.914  1.00  0.00     0.030 A 
HETATM   15  C   UNL     1      43.839 -19.813   2.507  1.00  0.00     0.019 A 
HETATM   16  C   UNL     1      44.370 -20.732   3.417  1.00  0.00     0.032 A 
HETATM   17  C   UNL     1      44.648 -20.330   4.726  1.00  0.00     0.019 A 
HETATM   18  C   UNL     1      44.402 -19.013   5.122  1.00  0.00     0.030 A 
BRANCH  16  19
HETATM   19  C   UNL     1      44.604 -22.150   3.052  1.00  0.00     0.249 C 
HETATM   20  N   UNL     1      44.759 -23.042   4.075  1.00  0.00    -0.366 N 
HETATM   21  H   UNL     1      44.499 -22.824   5.027  1.00  0.00     0.159 HD
HETATM   22  H   UNL     1      44.801 -24.021   3.819  1.00  0.00     0.159 HD
HETATM   23  O   UNL     1      44.637 -22.504   1.880  1.00  0.00    -0.268 OA
ENDBRANCH  16  19
ENDBRANCH  10  13
ENDBRANCH   7   9
ENDBRANCH   6   7
ENDBRANCH   1   6
BRANCH   2  24
HETATM   24  C   UNL     1      41.063 -14.705   2.158  1.00  0.00     0.043 A 
HETATM   25  C   UNL     1      41.947 -15.100   1.143  1.00  0.00     0.033 A 
HETATM   26  C   UNL     1      41.855 -16.385   0.606  1.00  0.00     0.044 A 
HETATM   27  C   UNL     1      40.887 -17.262   1.078  1.00  0.00     0.116 A 
HETATM   28  F   UNL     1      40.797 -18.492   0.557  1.00  0.00    -0.206 F 
HETATM   29  C   UNL     1      40.006 -16.882   2.084  1.00  0.00     0.044 A 
HETATM   30  C   UNL     1      40.091 -15.599   2.631  1.00  0.00     0.033 A 
ENDBRANCH   2  24
BRANCH   3  31
HETATM   31  C   UNL     1      39.307 -12.257   1.312  1.00  0.00     0.315 C 
BRANCH  31  32
HETATM   32  N   UNL     1      39.775 -12.617  -0.096  1.00  0.00    -0.064 N 
HETATM   33  H   UNL     1      40.709 -13.038   0.041  1.00  0.00     0.280 HD
HETATM   34  C   UNL     1      38.919 -13.691  -0.733  1.00  0.00     0.235 C 
HETATM   35  C   UNL     1      39.537 -14.112  -2.058  1.00  0.00     0.028 C 
HETATM   36  C   UNL     1      39.724 -12.921  -2.992  1.00  0.00     0.003 C 
HETATM   37  C   UNL     1      40.528 -11.816  -2.317  1.00  0.00     0.028 C 
HETATM   38  C   UNL     1      39.926 -11.408  -0.980  1.00  0.00     0.235 C 
ENDBRANCH  31  32
ENDBRANCH   3  31
TORSDOF 8
ENDMDL
MODEL 4
REMARK VINA RESULT:      -8.5      4.601     10.225
REMARK  8 active torsions:
REMARK  status: ('A' for Active; 'I' for Inactive)
REMARK    1  A    between atoms: C_2  and  S_3 
REMARK    2  A    between atoms: C_2  and  C_24 
REMARK    3  A    between atoms: S_3  and  C_4 
REMARK    4  A    between atoms: N_5  and  C_6 
REMARK    5  A    between atoms: C_13  and  C_14 
REMARK    6  A    between atoms: C_14  and  N_15 
REMARK       I    between atoms: C_24  and  N_25 
REMARK    7  A    between atoms: N_25  and  C_26 
REMARK    8  A    between atoms: C_29  and  C_30 
REMARK       I    between atoms: C_30  and  N_31 
ROOT
HETATM    1  C   UNL     1      43.701 -14.873   6.783  1.00  0.00     0.197 A 
HETATM    2  N   UNL     1      42.925 -15.589   5.889  1.00  0.00    -0.274 N 
HETATM    3  C   UNL     1      42.997 -16.896   6.360  1.00  0.00     0.161 A 
HETATM    4  N   UNL     1      43.741 -16.935   7.450  1.00  0.00    -0.132 NA
HETATM    5  N   UNL     1      44.145 -15.666   7.731  1.00  0.00    -0.122 NA
ENDROOT
BRANCH   1   6
HETATM    6  S   UNL     1      43.832 -13.149   6.866  1.00  0.00    -0.076 SA
BRANCH   6   7
HETATM    7  C   UNL     1      44.645 -12.830   8.471  1.00  0.00     0.143 C 
HETATM    8  C   UNL     1      46.115 -12.488   8.250  1.00  0.00     0.031 C 
BRANCH   7   9
HETATM    9  C   UNL     1      43.930 -11.786   9.329  1.00  0.00     0.236 C 
HETATM   10  N   UNL     1      43.777 -12.132  10.659  1.00  0.00    -0.326 N 
HETATM   11  H   UNL     1      44.427 -12.827  11.011  1.00  0.00     0.169 HD
HETATM   12  O   UNL     1      43.612 -10.704   8.834  1.00  0.00    -0.272 OA
BRANCH  10  13
HETATM   13  C   UNL     1      43.140 -11.344  11.638  1.00  0.00     0.034 A 
HETATM   14  C   UNL     1      41.789 -11.483  11.969  1.00  0.00     0.030 A 
HETATM   15  C   UNL     1      41.209 -10.655  12.937  1.00  0.00     0.019 A 
HETATM   16  C   UNL     1      41.979  -9.678  13.573  1.00  0.00     0.032 A 
HETATM   17  C   UNL     1      43.333  -9.544  13.253  1.00  0.00     0.019 A 
HETATM   18  C   UNL     1      43.915 -10.389  12.305  1.00  0.00     0.030 A 
BRANCH  16  19
HETATM   19  C   UNL     1      41.392  -8.731  14.552  1.00  0.00     0.249 C 
HETATM   20  N   UNL     1      42.209  -8.270  15.544  1.00  0.00    -0.366 N 
HETATM   21  H   UNL     1      43.215  -8.361  15.503  1.00  0.00     0.159 HD
HETATM   22  H   UNL     1      41.834  -7.538  16.135  1.00  0.00     0.159 HD
HETATM   23  O   UNL     1      40.227  -8.367  14.458  1.00  0.00    -0.268 OA
ENDBRANCH  16  19
ENDBRANCH  10  13
ENDBRANCH   7   9
ENDBRANCH   6   7
ENDBRANCH   1   6
BRANCH   2  24
HETATM   24  C   UNL     1      42.220 -15.128   4.750  1.00  0.00     0.043 A 
HETATM   25  C   UNL     1      40.865 -14.782   4.856  1.00  0.00     0.033 A 
HETATM   26  C   UNL     1      40.172 -14.342   3.726  1.00  0.00     0.044 A 
HETATM   27  C   UNL     1      40.829 -14.252   2.506  1.00  0.00     0.116 A 
HETATM   28  F   UNL     1      40.162 -13.834   1.424  1.00  0.00    -0.206 F 
HETATM   29  C   UNL     1      42.173 -14.591   2.390  1.00  0.00     0.044 A 
HETATM   30  C   UNL     1      42.875 -15.031   3.515  1.00  0.00     0.033 A 
ENDBRANCH   2  24
BRANCH   3  31
HETATM   31  C   UNL     1      42.481 -18.108   5.669  1.00  0.00     0.315 C 
BRANCH  31  32
HETATM   32  N   UNL     1      43.508 -18.697   4.703  1.00  0.00    -0.064 N 
HETATM   33  H   UNL     1      44.286 -18.016   4.707  1.00  0.00     0.280 HD
HETATM   34  C   UNL     1      44.088 -20.003   5.200  1.00  0.00     0.235 C 
HETATM   35  C   UNL     1      45.213 -20.443   4.275  1.00  0.00     0.028 C 
HETATM   36  C   UNL     1      44.737 -20.559   2.832  1.00  0.00     0.003 C 
HETATM   37  C   UNL     1      44.091 -19.260   2.361  1.00  0.00     0.028 C 
HETATM   38  C   UNL     1      42.980 -18.804   3.298  1.00  0.00     0.235 C 
ENDBRANCH  31  32
ENDBRANCH   3  31
TORSDOF 8
ENDMDL
MODEL 5
REMARK VINA RESULT:      -8.5      2.820      5.226
REMARK  8 active torsions:
REMARK  status: ('A' for Active; 'I' for Inactive)
REMARK    1  A    between atoms: C_2  and  S_3 
REMARK    2  A    between atoms: C_2  and  C_24 
REMARK    3  A    between atoms: S_3  and  C_4 
REMARK    4  A    between atoms: N_5  and  C_6 
REMARK    5  A    between atoms: C_13  and  C_14 
REMARK    6  A    between atoms: C_14  and  N_15 
REMARK       I    between atoms: C_24  and  N_25 
REMARK    7  A    between atoms: N_25  and  C_26 
REMARK    8  A    between atoms: C_29  and  C_30 
REMARK       I    between atoms: C_30  and  N_31 
ROOT
HETATM    1  C   UNL     1      40.723 -12.768   4.538  1.00  0.00     0.197 A 
HETATM    2  N   UNL     1      40.700 -12.987   3.172  1.00  0.00    -0.274 N 
HETATM    3  C   UNL     1      40.577 -11.710   2.634  1.00  0.00     0.161 A 
HETATM    4  N   UNL     1      40.549 -10.818   3.606  1.00  0.00    -0.132 NA
HETATM    5  N   UNL     1      40.680 -11.479   4.790  1.00  0.00    -0.122 NA
ENDROOT
BRANCH   1   6
HETATM    6  S   UNL     1      41.080 -13.947   5.754  1.00  0.00    -0.076 SA
BRANCH   6   7
HETATM    7  C   UNL     1      42.688 -14.653   5.248  1.00  0.00     0.143 C 
HETATM    8  C   UNL     1      43.732 -14.395   6.328  1.00  0.00     0.031 C 
BRANCH   7   9
HETATM    9  C   UNL     1      42.618 -16.127   4.851  1.00  0.00     0.236 C 
HETATM   10  N   UNL     1      43.798 -16.654   4.359  1.00  0.00    -0.326 N 
HETATM   11  H   UNL     1      44.645 -16.164   4.628  1.00  0.00     0.169 HD
HETATM   12  O   UNL     1      41.584 -16.765   5.055  1.00  0.00    -0.272 OA
BRANCH  10  13
HETATM   13  C   UNL     1      43.977 -17.979   3.915  1.00  0.00     0.034 A 
HETATM   14  C   UNL     1      43.684 -18.394   2.613  1.00  0.00     0.030 A 
HETATM   15  C   UNL     1      43.864 -19.731   2.238  1.00  0.00     0.019 A 
HETATM   16  C   UNL     1      44.330 -20.661   3.171  1.00  0.00     0.032 A 
HETATM   17  C   UNL     1      44.634 -20.247   4.472  1.00  0.00     0.019 A 
HETATM   18  C   UNL     1      44.478 -18.908   4.834  1.00  0.00     0.030 A 
BRANCH  16  19
HETATM   19  C   UNL     1      44.468 -22.100   2.842  1.00  0.00     0.249 C 
HETATM   20  N   UNL     1      44.679 -22.962   3.880  1.00  0.00    -0.366 N 
HETATM   21  H   UNL     1      44.519 -22.700   4.843  1.00  0.00     0.159 HD
HETATM   22  H   UNL     1      44.655 -23.951   3.659  1.00  0.00     0.159 HD
HETATM   23  O   UNL     1      44.376 -22.496   1.687  1.00  0.00    -0.268 OA
ENDBRANCH  16  19
ENDBRANCH  10  13
ENDBRANCH   7   9
ENDBRANCH   6   7
ENDBRANCH   1   6
BRANCH   2  24
HETATM   24  C   UNL     1      40.773 -14.210   2.463  1.00  0.00     0.043 A 
HETATM   25  C   UNL     1      39.726 -15.139   2.557  1.00  0.00     0.033 A 
HETATM   26  C   UNL     1      39.810 -16.349   1.866  1.00  0.00     0.044 A 
HETATM   27  C   UNL     1      40.930 -16.626   1.092  1.00  0.00     0.116 A 
HETATM   28  F   UNL     1      41.010 -17.789   0.435  1.00  0.00    -0.206 F 
HETATM   29  C   UNL     1      41.973 -15.712   0.991  1.00  0.00     0.044 A 
HETATM   30  C   UNL     1      41.898 -14.497   1.677  1.00  0.00     0.033 A 
ENDBRANCH   2  24
BRANCH   3  31
HETATM   31  C   UNL     1      40.331 -11.380   1.204  1.00  0.00     0.315 C 
BRANCH  31  32
HETATM   32  N   UNL     1      41.624 -11.045   0.464  1.00  0.00    -0.064 N 
HETATM   33  H   UNL     1      42.375 -11.389   1.085  1.00  0.00     0.280 HD
HETATM   34  C   UNL     1      41.765 -11.813  -0.832  1.00  0.00     0.235 C 
HETATM   35  C   UNL     1      43.141 -11.553  -1.428  1.00  0.00     0.028 C 
HETATM   36  C   UNL     1      43.389 -10.064  -1.634  1.00  0.00     0.003 C 
HETATM   37  C   UNL     1      43.178  -9.288  -0.339  1.00  0.00     0.028 C 
HETATM   38  C   UNL     1      41.811  -9.563   0.273  1.00  0.00     0.235 C 
ENDBRANCH  31  32
ENDBRANCH   3  31
TORSDOF 8
ENDMDL
MODEL 6
REMARK VINA RESULT:      -8.3      3.842      7.313
REMARK  8 active torsions:
REMARK  status: ('A' for Active; 'I' for Inactive)
REMARK    1  A    between atoms: C_2  and  S_3 
REMARK    2  A    between atoms: C_2  and  C_24 
REMARK    3  A    between atoms: S_3  and  C_4 
REMARK    4  A    between atoms: N_5  and  C_6 
REMARK    5  A    between atoms: C_13  and  C_14 
REMARK    6  A    between atoms: C_14  and  N_15 
REMARK       I    between atoms: C_24  and  N_25 
REMARK    7  A    between atoms: N_25  and  C_26 
REMARK    8  A    between atoms: C_29  and  C_30 
REMARK       I    between atoms: C_30  and  N_31 
ROOT
HETATM    1  C   UNL     1      41.443 -14.051   1.882  1.00  0.00     0.197 A 
HETATM    2  N   UNL     1      40.994 -13.239   0.856  1.00  0.00    -0.274 N 
HETATM    3  C   UNL     1      39.773 -13.800   0.498  1.00  0.00     0.161 A 
HETATM    4  N   UNL     1      39.522 -14.844   1.266  1.00  0.00    -0.132 NA
HETATM    5  N   UNL     1      40.547 -14.973   2.153  1.00  0.00    -0.122 NA
ENDROOT
BRANCH   1   6
HETATM    6  S   UNL     1      42.810 -13.748   2.900  1.00  0.00    -0.076 SA
BRANCH   6   7
HETATM    7  C   UNL     1      42.352 -14.479   4.511  1.00  0.00     0.143 C 
HETATM    8  C   UNL     1      40.966 -13.998   4.925  1.00  0.00     0.031 C 
BRANCH   7   9
HETATM    9  C   UNL     1      42.473 -16.003   4.554  1.00  0.00     0.236 C 
HETATM   10  N   UNL     1      43.331 -16.546   3.616  1.00  0.00    -0.326 N 
HETATM   11  H   UNL     1      44.038 -15.916   3.250  1.00  0.00     0.169 HD
HETATM   12  O   UNL     1      41.889 -16.636   5.434  1.00  0.00    -0.272 OA
BRANCH  10  13
HETATM   13  C   UNL     1      43.595 -17.920   3.450  1.00  0.00     0.034 A 
HETATM   14  C   UNL     1      44.349 -18.667   4.357  1.00  0.00     0.030 A 
HETATM   15  C   UNL     1      44.594 -20.026   4.125  1.00  0.00     0.019 A 
HETATM   16  C   UNL     1      44.089 -20.640   2.976  1.00  0.00     0.032 A 
HETATM   17  C   UNL     1      43.324 -19.897   2.071  1.00  0.00     0.019 A 
HETATM   18  C   UNL     1      43.061 -18.549   2.319  1.00  0.00     0.030 A 
BRANCH  16  19
HETATM   19  C   UNL     1      44.382 -22.057   2.651  1.00  0.00     0.249 C 
HETATM   20  N   UNL     1      44.632 -22.899   3.697  1.00  0.00    -0.366 N 
HETATM   21  H   UNL     1      44.406 -22.658   4.652  1.00  0.00     0.159 HD
HETATM   22  H   UNL     1      44.715 -23.884   3.474  1.00  0.00     0.159 HD
HETATM   23  O   UNL     1      44.379 -22.454   1.493  1.00  0.00    -0.268 OA
ENDBRANCH  16  19
ENDBRANCH  10  13
ENDBRANCH   7   9
ENDBRANCH   6   7
ENDBRANCH   1   6
BRANCH   2  24
HETATM   24  C   UNL     1      41.616 -12.104   0.280  1.00  0.00     0.043 A 
HETATM   25  C   UNL     1      42.465 -12.255  -0.826  1.00  0.00     0.033 A 
HETATM   26  C   UNL     1      43.085 -11.134  -1.381  1.00  0.00     0.044 A 
HETATM   27  C   UNL     1      42.858  -9.878  -0.833  1.00  0.00     0.116 A 
HETATM   28  F   UNL     1      43.458  -8.805  -1.363  1.00  0.00    -0.206 F 
HETATM   29  C   UNL     1      42.018  -9.717   0.263  1.00  0.00     0.044 A 
HETATM   30  C   UNL     1      41.391 -10.832   0.825  1.00  0.00     0.033 A 
ENDBRANCH   2  24
BRANCH   3  31
HETATM   31  C   UNL     1      38.943 -13.420  -0.677  1.00  0.00     0.315 C 
BRANCH  31  32
HETATM   32  N   UNL     1      38.864 -14.543  -1.709  1.00  0.00    -0.064 N 
HETATM   33  H   UNL     1      38.559 -15.370  -1.169  1.00  0.00     0.280 HD
HETATM   34  C   UNL     1      37.791 -14.299  -2.748  1.00  0.00     0.235 C 
HETATM   35  C   UNL     1      37.661 -15.526  -3.639  1.00  0.00     0.028 C 
HETATM   36  C   UNL     1      38.991 -15.890  -4.287  1.00  0.00     0.003 C 
HETATM   37  C   UNL     1      40.083 -16.066  -3.237  1.00  0.00     0.028 C 
HETATM   38  C   UNL     1      40.201 -14.850  -2.328  1.00  0.00     0.235 C 
ENDBRANCH  31  32
ENDBRANCH   3  31
TORSDOF 8
ENDMDL
MODEL 7
REMARK VINA RESULT:      -8.0      4.742      7.572
REMARK  8 active torsions:
REMARK  status: ('A' for Active; 'I' for Inactive)
REMARK    1  A    between atoms: C_2  and  S_3 
REMARK    2  A    between atoms: C_2  and  C_24 
REMARK    3  A    between atoms: S_3  and  C_4 
REMARK    4  A    between atoms: N_5  and  C_6 
REMARK    5  A    between atoms: C_13  and  C_14 
REMARK    6  A    between atoms: C_14  and  N_15 
REMARK       I    between atoms: C_24  and  N_25 
REMARK    7  A    between atoms: N_25  and  C_26 
REMARK    8  A    between atoms: C_29  and  C_30 
REMARK       I    between atoms: C_30  and  N_31 
ROOT
HETATM    1  C   UNL     1      39.248 -13.164   0.644  1.00  0.00     0.197 A 
HETATM    2  N   UNL     1      39.279 -12.929  -0.720  1.00  0.00    -0.274 N 
HETATM    3  C   UNL     1      39.383 -11.546  -0.815  1.00  0.00     0.161 A 
HETATM    4  N   UNL     1      39.427 -11.018   0.394  1.00  0.00    -0.132 NA
HETATM    5  N   UNL     1      39.382 -12.034   1.300  1.00  0.00    -0.122 NA
ENDROOT
BRANCH   1   6
HETATM    6  S   UNL     1      39.346 -14.711   1.414  1.00  0.00    -0.076 SA
BRANCH   6   7
HETATM    7  C   UNL     1      41.096 -15.203   1.229  1.00  0.00     0.143 C 
HETATM    8  C   UNL     1      41.999 -14.182   1.910  1.00  0.00     0.031 C 
BRANCH   7   9
HETATM    9  C   UNL     1      41.387 -16.632   1.688  1.00  0.00     0.236 C 
HETATM   10  N   UNL     1      42.721 -16.906   1.928  1.00  0.00    -0.326 N 
HETATM   11  H   UNL     1      43.307 -16.101   2.125  1.00  0.00     0.169 HD
HETATM   12  O   UNL     1      40.454 -17.410   1.890  1.00  0.00    -0.272 OA
BRANCH  10  13
HETATM   13  C   UNL     1      43.237 -18.150   2.343  1.00  0.00     0.034 A 
HETATM   14  C   UNL     1      43.374 -19.244   1.485  1.00  0.00     0.030 A 
HETATM   15  C   UNL     1      43.875 -20.461   1.963  1.00  0.00     0.019 A 
HETATM   16  C   UNL     1      44.232 -20.589   3.308  1.00  0.00     0.032 A 
HETATM   17  C   UNL     1      44.106 -19.493   4.167  1.00  0.00     0.019 A 
HETATM   18  C   UNL     1      43.631 -18.273   3.681  1.00  0.00     0.030 A 
BRANCH  16  19
HETATM   19  C   UNL     1      44.698 -21.877   3.875  1.00  0.00     0.249 C 
HETATM   20  N   UNL     1      45.221 -21.851   5.137  1.00  0.00    -0.366 N 
HETATM   21  H   UNL     1      45.094 -21.066   5.760  1.00  0.00     0.159 HD
HETATM   22  H   UNL     1      45.427 -22.749   5.559  1.00  0.00     0.159 HD
HETATM   23  O   UNL     1      44.597 -22.920   3.242  1.00  0.00    -0.268 OA
ENDBRANCH  16  19
ENDBRANCH  10  13
ENDBRANCH   7   9
ENDBRANCH   6   7
ENDBRANCH   1   6
BRANCH   2  24
HETATM   24  C   UNL     1      39.212 -13.858  -1.787  1.00  0.00     0.043 A 
HETATM   25  C   UNL     1      37.976 -14.159  -2.378  1.00  0.00     0.033 A 
HETATM   26  C   UNL     1      37.916 -15.086  -3.421  1.00  0.00     0.044 A 
HETATM   27  C   UNL     1      39.078 -15.703  -3.864  1.00  0.00     0.116 A 
HETATM   28  F   UNL     1      39.017 -16.595  -4.860  1.00  0.00    -0.206 F 
HETATM   29  C   UNL     1      40.308 -15.411  -3.285  1.00  0.00     0.044 A 
HETATM   30  C   UNL     1      40.381 -14.484  -2.243  1.00  0.00     0.033 A 
ENDBRANCH   2  24
BRANCH   3  31
HETATM   31  C   UNL     1      39.280 -10.742  -2.063  1.00  0.00     0.315 C 
BRANCH  31  32
HETATM   32  N   UNL     1      40.634 -10.578  -2.751  1.00  0.00    -0.064 N 
HETATM   33  H   UNL     1      41.304 -11.045  -2.118  1.00  0.00     0.280 HD
HETATM   34  C   UNL     1      40.709 -11.323  -4.066  1.00  0.00     0.235 C 
HETATM   35  C   UNL     1      42.128 -11.250  -4.610  1.00  0.00     0.028 C 
HETATM   36  C   UNL     1      42.596  -9.808  -4.760  1.00  0.00     0.003 C 
HETATM   37  C   UNL     1      42.453  -9.045  -3.448  1.00  0.00     0.028 C 
HETATM   38  C   UNL     1      41.039  -9.135  -2.888  1.00  0.00     0.235 C 
ENDBRANCH  31  32
ENDBRANCH   3  31
TORSDOF 8
ENDMDL
MODEL 8
REMARK VINA RESULT:      -8.0      2.734      5.875
REMARK  8 active torsions:
REMARK  status: ('A' for Active; 'I' for Inactive)
REMARK    1  A    between atoms: C_2  and  S_3 
REMARK    2  A    between atoms: C_2  and  C_24 
REMARK    3  A    between atoms: S_3  and  C_4 
REMARK    4  A    between atoms: N_5  and  C_6 
REMARK    5  A    between atoms: C_13  and  C_14 
REMARK    6  A    between atoms: C_14  and  N_15 
REMARK       I    between atoms: C_24  and  N_25 
REMARK    7  A    between atoms: N_25  and  C_26 
REMARK    8  A    between atoms: C_29  and  C_30 
REMARK       I    between atoms: C_30  and  N_31 
ROOT
HETATM    1  C   UNL     1      41.218 -12.477   3.244  1.00  0.00     0.197 A 
HETATM    2  N   UNL     1      40.627 -13.203   2.225  1.00  0.00    -0.274 N 
HETATM    3  C   UNL     1      39.804 -12.276   1.593  1.00  0.00     0.161 A 
HETATM    4  N   UNL     1      39.921 -11.102   2.182  1.00  0.00    -0.132 NA
HETATM    5  N   UNL     1      40.833 -11.222   3.187  1.00  0.00    -0.122 NA
ENDROOT
BRANCH   1   6
HETATM    6  S   UNL     1      42.516 -13.012   4.257  1.00  0.00    -0.076 SA
BRANCH   6   7
HETATM    7  C   UNL     1      41.694 -13.938   5.601  1.00  0.00     0.143 C 
HETATM    8  C   UNL     1      40.231 -13.521   5.701  1.00  0.00     0.031 C 
BRANCH   7   9
HETATM    9  C   UNL     1      41.857 -15.454   5.495  1.00  0.00     0.236 C 
HETATM   10  N   UNL     1      43.118 -15.879   5.116  1.00  0.00    -0.326 N 
HETATM   11  H   UNL     1      43.873 -15.222   5.286  1.00  0.00     0.169 HD
HETATM   12  O   UNL     1      40.925 -16.192   5.817  1.00  0.00    -0.272 OA
BRANCH  10  13
HETATM   13  C   UNL     1      43.506 -17.221   4.936  1.00  0.00     0.034 A 
HETATM   14  C   UNL     1      43.962 -18.030   5.980  1.00  0.00     0.030 A 
HETATM   15  C   UNL     1      44.354 -19.351   5.733  1.00  0.00     0.019 A 
HETATM   16  C   UNL     1      44.298 -19.865   4.434  1.00  0.00     0.032 A 
HETATM   17  C   UNL     1      43.832 -19.061   3.389  1.00  0.00     0.019 A 
HETATM   18  C   UNL     1      43.418 -17.752   3.644  1.00  0.00     0.030 A 
BRANCH  16  19
HETATM   19  C   UNL     1      44.770 -21.233   4.112  1.00  0.00     0.249 C 
HETATM   20  N   UNL     1      45.199 -22.008   5.152  1.00  0.00    -0.366 N 
HETATM   21  H   UNL     1      44.998 -21.780   6.116  1.00  0.00     0.159 HD
HETATM   22  H   UNL     1      45.407 -22.976   4.938  1.00  0.00     0.159 HD
HETATM   23  O   UNL     1      44.755 -21.653   2.962  1.00  0.00    -0.268 OA
ENDBRANCH  16  19
ENDBRANCH  10  13
ENDBRANCH   7   9
ENDBRANCH   6   7
ENDBRANCH   1   6
BRANCH   2  24
HETATM   24  C   UNL     1      40.793 -14.568   1.890  1.00  0.00     0.043 A 
HETATM   25  C   UNL     1      41.809 -14.955   1.003  1.00  0.00     0.033 A 
HETATM   26  C   UNL     1      41.958 -16.302   0.667  1.00  0.00     0.044 A 
HETATM   27  C   UNL     1      41.099 -17.248   1.210  1.00  0.00     0.116 A 
HETATM   28  F   UNL     1      41.242 -18.538   0.881  1.00  0.00    -0.206 F 
HETATM   29  C   UNL     1      40.090 -16.876   2.090  1.00  0.00     0.044 A 
HETATM   30  C   UNL     1      39.932 -15.532   2.436  1.00  0.00     0.033 A 
ENDBRANCH   2  24
BRANCH   3  31
HETATM   31  C   UNL     1      38.803 -12.572   0.532  1.00  0.00     0.315 C 
BRANCH  31  32
HETATM   32  N   UNL     1      39.453 -13.154  -0.722  1.00  0.00    -0.064 N 
HETATM   33  H   UNL     1      39.944 -14.000  -0.389  1.00  0.00     0.280 HD
HETATM   34  C   UNL     1      38.435 -13.627  -1.735  1.00  0.00     0.235 C 
HETATM   35  C   UNL     1      39.147 -14.339  -2.876  1.00  0.00     0.028 C 
HETATM   36  C   UNL     1      40.201 -13.445  -3.521  1.00  0.00     0.003 C 
HETATM   37  C   UNL     1      41.183 -12.917  -2.482  1.00  0.00     0.028 C 
HETATM   38  C   UNL     1      40.472 -12.225  -1.326  1.00  0.00     0.235 C 
ENDBRANCH  31  32
ENDBRANCH   3  31
TORSDOF 8
ENDMDL
MODEL 9
REMARK VINA RESULT:      -7.9      3.805      9.193
REMARK  8 active torsions:
REMARK  status: ('A' for Active; 'I' for Inactive)
REMARK    1  A    between atoms: C_2  and  S_3 
REMARK    2  A    between atoms: C_2  and  C_24 
REMARK    3  A    between atoms: S_3  and  C_4 
REMARK    4  A    between atoms: N_5  and  C_6 
REMARK    5  A    between atoms: C_13  and  C_14 
REMARK    6  A    between atoms: C_14  and  N_15 
REMARK       I    between atoms: C_24  and  N_25 
REMARK    7  A    between atoms: N_25  and  C_26 
REMARK    8  A    between atoms: C_29  and  C_30 
REMARK       I    between atoms: C_30  and  N_31 
ROOT
HETATM    1  C   UNL     1      41.226 -12.808   4.728  1.00  0.00     0.197 A 
HETATM    2  N   UNL     1      41.450 -14.166   4.591  1.00  0.00    -0.274 N 
HETATM    3  C   UNL     1      40.978 -14.453   3.315  1.00  0.00     0.161 A 
HETATM    4  N   UNL     1      40.532 -13.350   2.747  1.00  0.00    -0.132 NA
HETATM    5  N   UNL     1      40.724 -12.319   3.616  1.00  0.00    -0.122 NA
ENDROOT
BRANCH   1   6
HETATM    6  S   UNL     1      41.798 -11.804   6.016  1.00  0.00    -0.076 SA
BRANCH   6   7
HETATM    7  C   UNL     1      40.280 -11.224   6.852  1.00  0.00     0.143 C 
HETATM    8  C   UNL     1      39.278 -12.368   6.964  1.00  0.00     0.031 C 
BRANCH   7   9
HETATM    9  C   UNL     1      40.537 -10.546   8.198  1.00  0.00     0.236 C 
HETATM   10  N   UNL     1      40.987 -11.389   9.198  1.00  0.00    -0.326 N 
HETATM   11  H   UNL     1      41.431 -12.246   8.884  1.00  0.00     0.169 HD
HETATM   12  O   UNL     1      40.412  -9.325   8.300  1.00  0.00    -0.272 OA
BRANCH  10  13
HETATM   13  C   UNL     1      41.277 -11.002  10.521  1.00  0.00     0.034 A 
HETATM   14  C   UNL     1      40.329 -11.024  11.548  1.00  0.00     0.030 A 
HETATM   15  C   UNL     1      40.674 -10.607  12.839  1.00  0.00     0.019 A 
HETATM   16  C   UNL     1      41.971 -10.158  13.105  1.00  0.00     0.032 A 
HETATM   17  C   UNL     1      42.924 -10.146  12.083  1.00  0.00     0.019 A 
HETATM   18  C   UNL     1      42.584 -10.587  10.802  1.00  0.00     0.030 A 
BRANCH  16  19
HETATM   19  C   UNL     1      42.363  -9.640  14.438  1.00  0.00     0.249 C 
HETATM   20  N   UNL     1      43.413  -8.768  14.486  1.00  0.00    -0.366 N 
HETATM   21  H   UNL     1      43.768  -8.302  13.662  1.00  0.00     0.159 HD
HETATM   22  H   UNL     1      43.597  -8.331  15.382  1.00  0.00     0.159 HD
HETATM   23  O   UNL     1      41.754  -9.969  15.448  1.00  0.00    -0.268 OA
ENDBRANCH  16  19
ENDBRANCH  10  13
ENDBRANCH   7   9
ENDBRANCH   6   7
ENDBRANCH   1   6
BRANCH   2  24
HETATM   24  C   UNL     1      42.015 -15.075   5.519  1.00  0.00     0.043 A 
HETATM   25  C   UNL     1      43.399 -15.072   5.751  1.00  0.00     0.033 A 
HETATM   26  C   UNL     1      43.951 -15.980   6.656  1.00  0.00     0.044 A 
HETATM   27  C   UNL     1      43.128 -16.880   7.320  1.00  0.00     0.116 A 
HETATM   28  F   UNL     1      43.660 -17.752   8.184  1.00  0.00    -0.206 F 
HETATM   29  C   UNL     1      41.755 -16.891   7.099  1.00  0.00     0.044 A 
HETATM   30  C   UNL     1      41.192 -15.985   6.196  1.00  0.00     0.033 A 
ENDBRANCH   2  24
BRANCH   3  31
HETATM   31  C   UNL     1      40.819 -15.810   2.723  1.00  0.00     0.315 C 
BRANCH  31  32
HETATM   32  N   UNL     1      42.146 -16.563   2.656  1.00  0.00    -0.064 N 
HETATM   33  H   UNL     1      42.810 -15.964   3.174  1.00  0.00     0.280 HD
HETATM   34  C   UNL     1      42.101 -17.882   3.397  1.00  0.00     0.235 C 
HETATM   35  C   UNL     1      43.493 -18.495   3.426  1.00  0.00     0.028 C 
HETATM   36  C   UNL     1      44.059 -18.665   2.021  1.00  0.00     0.003 C 
HETATM   37  C   UNL     1      44.037 -17.346   1.258  1.00  0.00     0.028 C 
HETATM   38  C   UNL     1      42.650 -16.717   1.246  1.00  0.00     0.235 C 
ENDBRANCH  31  32
ENDBRANCH   3  31
TORSDOF 8
ENDMDL
MODEL 10
REMARK VINA RESULT:      -7.9      3.075      5.093
REMARK  8 active torsions:
REMARK  status: ('A' for Active; 'I' for Inactive)
REMARK    1  A    between atoms: C_2  and  S_3 
REMARK    2  A    between atoms: C_2  and  C_24 
REMARK    3  A    between atoms: S_3  and  C_4 
REMARK    4  A    between atoms: N_5  and  C_6 
REMARK    5  A    between atoms: C_13  and  C_14 
REMARK    6  A    between atoms: C_14  and  N_15 
REMARK       I    between atoms: C_24  and  N_25 
REMARK    7  A    between atoms: N_25  and  C_26 
REMARK    8  A    between atoms: C_29  and  C_30 
REMARK       I    between atoms: C_30  and  N_31 
ROOT
HETATM    1  C   UNL     1      42.209 -13.608   3.977  1.00  0.00     0.197 A 
HETATM    2  N   UNL     1      42.192 -14.169   2.712  1.00  0.00    -0.274 N 
HETATM    3  C   UNL     1      41.769 -13.128   1.893  1.00  0.00     0.161 A 
HETATM    4  N   UNL     1      41.572 -12.043   2.618  1.00  0.00    -0.132 NA
HETATM    5  N   UNL     1      41.885 -12.337   3.911  1.00  0.00    -0.122 NA
ENDROOT
BRANCH   1   6
HETATM    6  S   UNL     1      42.859 -14.336   5.407  1.00  0.00    -0.076 SA
BRANCH   6   7
HETATM    7  C   UNL     1      41.534 -15.446   5.998  1.00  0.00     0.143 C 
HETATM    8  C   UNL     1      40.183 -14.967   5.477  1.00  0.00     0.031 C 
BRANCH   7   9
HETATM    9  C   UNL     1      41.782 -16.923   5.690  1.00  0.00     0.236 C 
HETATM   10  N   UNL     1      43.066 -17.364   5.953  1.00  0.00    -0.326 N 
HETATM   11  H   UNL     1      43.592 -16.813   6.624  1.00  0.00     0.169 HD
HETATM   12  O   UNL     1      40.849 -17.633   5.316  1.00  0.00    -0.272 OA
BRANCH  10  13
HETATM   13  C   UNL     1      43.539 -18.674   5.737  1.00  0.00     0.034 A 
HETATM   14  C   UNL     1      43.484 -19.675   6.710  1.00  0.00     0.030 A 
HETATM   15  C   UNL     1      43.990 -20.953   6.440  1.00  0.00     0.019 A 
HETATM   16  C   UNL     1      44.561 -21.229   5.195  1.00  0.00     0.032 A 
HETATM   17  C   UNL     1      44.607 -20.233   4.216  1.00  0.00     0.019 A 
HETATM   18  C   UNL     1      44.078 -18.968   4.479  1.00  0.00     0.030 A 
BRANCH  16  19
HETATM   19  C   UNL     1      45.174 -22.544   4.889  1.00  0.00     0.249 C 
HETATM   20  N   UNL     1      44.711 -23.209   3.789  1.00  0.00    -0.366 N 
HETATM   21  H   UNL     1      44.158 -22.755   3.075  1.00  0.00     0.159 HD
HETATM   22  H   UNL     1      45.215 -24.047   3.522  1.00  0.00     0.159 HD
HETATM   23  O   UNL     1      46.070 -23.002   5.586  1.00  0.00    -0.268 OA
ENDBRANCH  16  19
ENDBRANCH  10  13
ENDBRANCH   7   9
ENDBRANCH   6   7
ENDBRANCH   1   6
BRANCH   2  24
HETATM   24  C   UNL     1      42.514 -15.491   2.318  1.00  0.00     0.043 A 
HETATM   25  C   UNL     1      43.847 -15.838   2.051  1.00  0.00     0.033 A 
HETATM   26  C   UNL     1      44.156 -17.139   1.649  1.00  0.00     0.044 A 
HETATM   27  C   UNL     1      43.143 -18.079   1.515  1.00  0.00     0.116 A 
HETATM   28  F   UNL     1      43.441 -19.324   1.124  1.00  0.00    -0.206 F 
HETATM   29  C   UNL     1      41.819 -17.746   1.778  1.00  0.00     0.044 A 
HETATM   30  C   UNL     1      41.498 -16.448   2.182  1.00  0.00     0.033 A 
ENDBRANCH   2  24
BRANCH   3  31
HETATM   31  C   UNL     1      41.410 -13.234   0.453  1.00  0.00     0.315 C 
BRANCH  31  32
HETATM   32  N   UNL     1      39.905 -13.108   0.228  1.00  0.00    -0.064 N 
HETATM   33  H   UNL     1      39.745 -13.538  -0.699  1.00  0.00     0.280 HD
HETATM   34  C   UNL     1      39.101 -13.925   1.216  1.00  0.00     0.235 C 
HETATM   35  C   UNL     1      37.630 -13.882   0.831  1.00  0.00     0.028 C 
HETATM   36  C   UNL     1      37.116 -12.450   0.745  1.00  0.00     0.003 C 
HETATM   37  C   UNL     1      37.973 -11.615  -0.200  1.00  0.00     0.028 C 
HETATM   38  C   UNL     1      39.450 -11.675   0.167  1.00  0.00     0.235 C 
ENDBRANCH  31  32
ENDBRANCH   3  31
TORSDOF 8
ENDMDL
