MODEL 1
REMARK VINA RESULT:      -8.8      0.000      0.000
REMARK  6 active torsions:
REMARK  status: ('A' for Active; 'I' for Inactive)
REMARK    1  A    between atoms: C_4  and  C_5 
REMARK    2  A    between atoms: C_5  and  N_6 
REMARK    3  A    between atoms: C_8  and  C_9 
REMARK       I    between atoms: C_9  and  N_10 
REMARK    4  A    between atoms: N_13  and  C_15 
REMARK    5  A    between atoms: C_29  and  S_30 
REMARK    6  A    between atoms: S_30  and  C_31 
ROOT
HETATM    1  N   UNL     1      43.609 -15.675   5.754  1.00  0.00    -0.053 N 
HETATM    2  H   UNL     1      44.263 -15.143   5.164  1.00  0.00     0.281 HD
HETATM    3  C   UNL     1      42.462 -16.093   4.796  1.00  0.00     0.281 C 
HETATM    4  C   UNL     1      42.181 -17.522   5.248  1.00  0.00     0.060 C 
HETATM    5  C   UNL     1      43.573 -18.109   5.459  1.00  0.00     0.083 C 
HETATM    6  C   UNL     1      44.330 -16.972   6.153  1.00  0.00     0.252 C 
ENDROOT
BRANCH   3   7
HETATM    7  C   UNL     1      41.221 -15.189   4.641  1.00  0.00     0.251 C 
HETATM    8  N   UNL     1      41.038 -14.474   3.459  1.00  0.00    -0.347 N 
HETATM    9  C   UNL     1      39.784 -13.736   3.267  1.00  0.00     0.153 C 
HETATM   10  C   UNL     1      42.083 -14.064   2.518  1.00  0.00     0.153 C 
HETATM   11  C   UNL     1      39.233 -13.941   1.847  1.00  0.00     0.255 C 
HETATM   12  N   UNL     1      40.273 -13.621   0.756  1.00  0.00    -0.063 N 
HETATM   13  H   UNL     1      40.401 -12.601   0.756  1.00  0.00     0.280 HD
HETATM   14  C   UNL     1      41.638 -14.262   1.057  1.00  0.00     0.255 C 
HETATM   15  O   UNL     1      40.402 -15.085   5.553  1.00  0.00    -0.271 OA
BRANCH  12  16
HETATM   16  C   UNL     1      39.761 -14.041  -0.649  1.00  0.00     0.196 C 
HETATM   17  C   UNL     1      38.345 -13.483  -0.951  1.00  0.00     0.017 C 
HETATM   18  C   UNL     1      38.369 -11.948  -1.071  1.00  0.00     0.011 C 
HETATM   19  C   UNL     1      37.865 -14.076  -2.293  1.00  0.00     0.011 C 
HETATM   20  C   UNL     1      39.323 -11.521  -2.199  1.00  0.00    -0.013 C 
HETATM   21  C   UNL     1      40.738 -12.041  -1.896  1.00  0.00     0.011 C 
HETATM   22  C   UNL     1      38.837 -12.127  -3.528  1.00  0.00     0.009 C 
HETATM   23  C   UNL     1      40.724 -13.577  -1.776  1.00  0.00     0.017 C 
HETATM   24  C   UNL     1      40.228 -14.169  -3.113  1.00  0.00     0.011 C 
HETATM   25  C   UNL     1      38.813 -13.661  -3.428  1.00  0.00    -0.013 C 
ENDBRANCH  12  16
ENDBRANCH   3   7
BRANCH   1  26
HETATM   26  C   UNL     1      43.365 -14.730   6.925  1.00  0.00     0.274 C 
BRANCH  26  27
HETATM   27  C   UNL     1      44.500 -13.840   7.373  1.00  0.00    -0.033 A 
HETATM   28  C   UNL     1      45.667 -13.739   6.590  1.00  0.00     0.009 A 
HETATM   29  C   UNL     1      46.720 -12.906   6.969  1.00  0.00     0.001 A 
HETATM   30  C   UNL     1      46.621 -12.141   8.126  1.00  0.00     0.000 A 
HETATM   31  C   UNL     1      45.464 -12.204   8.898  1.00  0.00     0.001 A 
HETATM   32  C   UNL     1      44.411 -13.045   8.523  1.00  0.00     0.009 A 
ENDBRANCH  26  27
ENDBRANCH   1  26
BRANCH   5  33
HETATM   33  S   UNL     1      44.317 -18.544   3.839  1.00  0.00    -0.084 SA
BRANCH  33  34
HETATM   34  C   UNL     1      44.464 -20.308   4.035  1.00  0.00     0.188 A 
HETATM   35  N   UNL     1      44.716 -20.785   5.266  1.00  0.00    -0.235 NA
HETATM   36  C   UNL     1      44.813 -22.126   5.368  1.00  0.00     0.121 A 
HETATM   37  C   UNL     1      44.719 -22.977   4.292  1.00  0.00     0.038 A 
HETATM   38  C   UNL     1      44.511 -22.374   3.074  1.00  0.00     0.121 A 
HETATM   39  N   UNL     1      44.389 -21.041   2.919  1.00  0.00    -0.235 NA
ENDBRANCH  33  34
ENDBRANCH   5  33
TORSDOF 6
ENDMDL
MODEL 2
REMARK VINA RESULT:      -8.7      2.705      6.262
REMARK  6 active torsions:
REMARK  status: ('A' for Active; 'I' for Inactive)
REMARK    1  A    between atoms: C_4  and  C_5 
REMARK    2  A    between atoms: C_5  and  N_6 
REMARK    3  A    between atoms: C_8  and  C_9 
REMARK       I    between atoms: C_9  and  N_10 
REMARK    4  A    between atoms: N_13  and  C_15 
REMARK    5  A    between atoms: C_29  and  S_30 
REMARK    6  A    between atoms: S_30  and  C_31 
ROOT
HETATM    1  N   UNL     1      43.184 -17.744   3.949  1.00  0.00    -0.053 N 
HETATM    2  H   UNL     1      42.531 -18.495   4.211  1.00  0.00     0.281 HD
HETATM    3  C   UNL     1      42.330 -16.747   3.120  1.00  0.00     0.281 C 
HETATM    4  C   UNL     1      42.838 -15.402   3.627  1.00  0.00     0.060 C 
HETATM    5  C   UNL     1      42.955 -15.609   5.133  1.00  0.00     0.083 C 
HETATM    6  C   UNL     1      43.558 -17.012   5.248  1.00  0.00     0.252 C 
ENDROOT
BRANCH   3   7
HETATM    7  C   UNL     1      42.251 -16.893   1.586  1.00  0.00     0.251 C 
HETATM    8  N   UNL     1      41.312 -16.146   0.876  1.00  0.00    -0.347 N 
HETATM    9  C   UNL     1      41.346 -16.183  -0.591  1.00  0.00     0.153 C 
HETATM   10  C   UNL     1      40.058 -15.598   1.397  1.00  0.00     0.153 C 
HETATM   11  C   UNL     1      41.174 -14.775  -1.184  1.00  0.00     0.255 C 
HETATM   12  N   UNL     1      39.925 -14.053  -0.645  1.00  0.00    -0.063 N 
HETATM   13  H   UNL     1      39.108 -14.524  -1.056  1.00  0.00     0.280 HD
HETATM   14  C   UNL     1      39.809 -14.169   0.884  1.00  0.00     0.255 C 
HETATM   15  O   UNL     1      42.995 -17.669   0.990  1.00  0.00    -0.271 OA
BRANCH  12  16
HETATM   16  C   UNL     1      39.898 -12.566  -1.093  1.00  0.00     0.196 C 
HETATM   17  C   UNL     1      39.861 -12.417  -2.638  1.00  0.00     0.017 C 
HETATM   18  C   UNL     1      38.533 -12.943  -3.213  1.00  0.00     0.011 C 
HETATM   19  C   UNL     1      39.991 -10.919  -2.983  1.00  0.00     0.011 C 
HETATM   20  C   UNL     1      37.351 -12.167  -2.610  1.00  0.00    -0.013 C 
HETATM   21  C   UNL     1      37.358 -12.332  -1.081  1.00  0.00     0.011 C 
HETATM   22  C   UNL     1      37.499 -10.674  -2.956  1.00  0.00     0.009 C 
HETATM   23  C   UNL     1      38.682 -11.806  -0.496  1.00  0.00     0.017 C 
HETATM   24  C   UNL     1      38.818 -10.312  -0.857  1.00  0.00     0.011 C 
HETATM   25  C   UNL     1      38.817 -10.129  -2.383  1.00  0.00    -0.013 C 
ENDBRANCH  12  16
ENDBRANCH   3   7
BRANCH   1  26
HETATM   26  C   UNL     1      44.346 -18.508   3.325  1.00  0.00     0.274 C 
BRANCH  26  27
HETATM   27  C   UNL     1      44.442 -19.994   3.578  1.00  0.00    -0.033 A 
HETATM   28  C   UNL     1      44.316 -20.900   2.507  1.00  0.00     0.009 A 
HETATM   29  C   UNL     1      44.425 -22.277   2.710  1.00  0.00     0.001 A 
HETATM   30  C   UNL     1      44.681 -22.774   3.983  1.00  0.00     0.000 A 
HETATM   31  C   UNL     1      44.838 -21.894   5.049  1.00  0.00     0.001 A 
HETATM   32  C   UNL     1      44.722 -20.514   4.849  1.00  0.00     0.009 A 
ENDBRANCH  26  27
ENDBRANCH   1  26
BRANCH   5  33
HETATM   33  S   UNL     1      41.293 -15.508   5.905  1.00  0.00    -0.084 SA
BRANCH  33  34
HETATM   34  C   UNL     1      40.829 -13.860   5.416  1.00  0.00     0.188 A 
HETATM   35  N   UNL     1      39.791 -13.722   4.575  1.00  0.00    -0.235 NA
HETATM   36  C   UNL     1      39.473 -12.456   4.236  1.00  0.00     0.121 A 
HETATM   37  C   UNL     1      40.179 -11.356   4.664  1.00  0.00     0.038 A 
HETATM   38  C   UNL     1      41.253 -11.621   5.480  1.00  0.00     0.121 A 
HETATM   39  N   UNL     1      41.604 -12.865   5.863  1.00  0.00    -0.235 NA
ENDBRANCH  33  34
ENDBRANCH   5  33
TORSDOF 6
ENDMDL
MODEL 3
REMARK VINA RESULT:      -8.7      2.989      6.540
REMARK  6 active torsions:
REMARK  status: ('A' for Active; 'I' for Inactive)
REMARK    1  A    between atoms: C_4  and  C_5 
REMARK    2  A    between atoms: C_5  and  N_6 
REMARK    3  A    between atoms: C_8  and  C_9 
REMARK       I    between atoms: C_9  and  N_10 
REMARK    4  A    between atoms: N_13  and  C_15 
REMARK    5  A    between atoms: C_29  and  S_30 
REMARK    6  A    between atoms: S_30  and  C_31 
ROOT
HETATM    1  N   UNL     1      42.862 -17.314   3.452  1.00  0.00    -0.053 N 
HETATM    2  H   UNL     1      42.366 -18.097   3.898  1.00  0.00     0.281 HD
HETATM    3  C   UNL     1      41.738 -16.411   2.874  1.00  0.00     0.281 C 
HETATM    4  C   UNL     1      42.262 -15.016   3.195  1.00  0.00     0.060 C 
HETATM    5  C   UNL     1      42.804 -15.156   4.614  1.00  0.00     0.083 C 
HETATM    6  C   UNL     1      43.521 -16.509   4.582  1.00  0.00     0.252 C 
ENDROOT
BRANCH   3   7
HETATM    7  C   UNL     1      41.251 -16.622   1.425  1.00  0.00     0.251 C 
HETATM    8  N   UNL     1      40.937 -15.513   0.642  1.00  0.00    -0.347 N 
HETATM    9  C   UNL     1      40.618 -15.718  -0.776  1.00  0.00     0.153 C 
HETATM   10  C   UNL     1      40.532 -14.190   1.124  1.00  0.00     0.153 C 
HETATM   11  C   UNL     1      41.316 -14.671  -1.658  1.00  0.00     0.255 C 
HETATM   12  N   UNL     1      41.036 -13.227  -1.199  1.00  0.00    -0.063 N 
HETATM   13  H   UNL     1      40.052 -13.028  -1.424  1.00  0.00     0.280 HD
HETATM   14  C   UNL     1      41.208 -13.064   0.320  1.00  0.00     0.255 C 
HETATM   15  O   UNL     1      41.126 -17.754   0.963  1.00  0.00    -0.271 OA
BRANCH  12  16
HETATM   16  C   UNL     1      41.921 -12.210  -1.969  1.00  0.00     0.196 C 
HETATM   17  C   UNL     1      41.644 -12.228  -3.497  1.00  0.00     0.017 C 
HETATM   18  C   UNL     1      40.227 -11.711  -3.808  1.00  0.00     0.011 C 
HETATM   19  C   UNL     1      42.670 -11.304  -4.186  1.00  0.00     0.011 C 
HETATM   20  C   UNL     1      40.062 -10.274  -3.290  1.00  0.00    -0.013 C 
HETATM   21  C   UNL     1      40.303 -10.248  -1.771  1.00  0.00     0.011 C 
HETATM   22  C   UNL     1      41.097  -9.366  -3.979  1.00  0.00     0.009 C 
HETATM   23  C   UNL     1      41.720 -10.760  -1.449  1.00  0.00     0.017 C 
HETATM   24  C   UNL     1      42.744  -9.845  -2.154  1.00  0.00     0.011 C 
HETATM   25  C   UNL     1      42.519  -9.863  -3.673  1.00  0.00    -0.013 C 
ENDBRANCH  12  16
ENDBRANCH   3   7
BRANCH   1  26
HETATM   26  C   UNL     1      43.862 -18.020   2.543  1.00  0.00     0.274 C 
BRANCH  26  27
HETATM   27  C   UNL     1      44.073 -19.504   2.731  1.00  0.00    -0.033 A 
HETATM   28  C   UNL     1      44.607 -19.992   3.940  1.00  0.00     0.009 A 
HETATM   29  C   UNL     1      44.789 -21.360   4.149  1.00  0.00     0.001 A 
HETATM   30  C   UNL     1      44.423 -22.268   3.162  1.00  0.00     0.000 A 
HETATM   31  C   UNL     1      43.866 -21.809   1.972  1.00  0.00     0.001 A 
HETATM   32  C   UNL     1      43.690 -20.438   1.759  1.00  0.00     0.009 A 
ENDBRANCH  26  27
ENDBRANCH   1  26
BRANCH   5  33
HETATM   33  S   UNL     1      41.416 -15.139   5.815  1.00  0.00    -0.084 SA
BRANCH  33  34
HETATM   34  C   UNL     1      40.811 -13.485   5.558  1.00  0.00     0.188 A 
HETATM   35  N   UNL     1      39.574 -13.339   5.055  1.00  0.00    -0.235 NA
HETATM   36  C   UNL     1      39.156 -12.068   4.883  1.00  0.00     0.121 A 
HETATM   37  C   UNL     1      39.940 -10.969   5.144  1.00  0.00     0.038 A 
HETATM   38  C   UNL     1      41.206 -11.240   5.606  1.00  0.00     0.121 A 
HETATM   39  N   UNL     1      41.668 -12.490   5.812  1.00  0.00    -0.235 NA
ENDBRANCH  33  34
ENDBRANCH   5  33
TORSDOF 6
ENDMDL
MODEL 4
REMARK VINA RESULT:      -8.5      3.757      8.821
REMARK  6 active torsions:
REMARK  status: ('A' for Active; 'I' for Inactive)
REMARK    1  A    between atoms: C_4  and  C_5 
REMARK    2  A    between atoms: C_5  and  N_6 
REMARK    3  A    between atoms: C_8  and  C_9 
REMARK       I    between atoms: C_9  and  N_10 
REMARK    4  A    between atoms: N_13  and  C_15 
REMARK    5  A    between atoms: C_29  and  S_30 
REMARK    6  A    between atoms: S_30  and  C_31 
ROOT
HETATM    1  N   UNL     1      39.466 -14.484   2.664  1.00  0.00    -0.053 N 
HETATM    2  H   UNL     1      38.790 -14.594   3.431  1.00  0.00     0.281 HD
HETATM    3  C   UNL     1      40.780 -14.031   3.356  1.00  0.00     0.281 C 
HETATM    4  C   UNL     1      41.829 -14.829   2.590  1.00  0.00     0.060 C 
HETATM    5  C   UNL     1      41.196 -16.209   2.450  1.00  0.00     0.083 C 
HETATM    6  C   UNL     1      39.737 -15.891   2.109  1.00  0.00     0.252 C 
ENDROOT
BRANCH   3   7
HETATM    7  C   UNL     1      41.081 -12.527   3.524  1.00  0.00     0.251 C 
HETATM    8  N   UNL     1      40.607 -11.856   4.650  1.00  0.00    -0.347 N 
HETATM    9  C   UNL     1      41.023 -10.467   4.871  1.00  0.00     0.153 C 
HETATM   10  C   UNL     1      39.454 -12.236   5.470  1.00  0.00     0.153 C 
HETATM   11  C   UNL     1      41.404 -10.230   6.341  1.00  0.00     0.255 C 
HETATM   12  N   UNL     1      40.299 -10.671   7.319  1.00  0.00    -0.063 N 
HETATM   13  H   UNL     1      39.527  -9.999   7.220  1.00  0.00     0.280 HD
HETATM   14  C   UNL     1      39.748 -12.065   6.972  1.00  0.00     0.255 C 
HETATM   15  O   UNL     1      41.721 -11.915   2.670  1.00  0.00    -0.271 OA
BRANCH  12  16
HETATM   16  C   UNL     1      40.795 -10.622   8.789  1.00  0.00     0.196 C 
HETATM   17  C   UNL     1      41.385  -9.236   9.165  1.00  0.00     0.017 C 
HETATM   18  C   UNL     1      40.293  -8.151   9.165  1.00  0.00     0.011 C 
HETATM   19  C   UNL     1      41.986  -9.333  10.583  1.00  0.00     0.011 C 
HETATM   20  C   UNL     1      39.190  -8.511  10.173  1.00  0.00    -0.013 C 
HETATM   21  C   UNL     1      38.574  -9.869   9.793  1.00  0.00     0.011 C 
HETATM   22  C   UNL     1      39.805  -8.613  11.580  1.00  0.00     0.009 C 
HETATM   23  C   UNL     1      39.660 -10.962   9.794  1.00  0.00     0.017 C 
HETATM   24  C   UNL     1      40.272 -11.046  11.208  1.00  0.00     0.011 C 
HETATM   25  C   UNL     1      40.895  -9.697  11.601  1.00  0.00    -0.013 C 
ENDBRANCH  12  16
ENDBRANCH   3   7
BRANCH   1  26
HETATM   26  C   UNL     1      38.726 -13.577   1.687  1.00  0.00     0.274 C 
BRANCH  26  27
HETATM   27  C   UNL     1      39.064 -13.683   0.219  1.00  0.00    -0.033 A 
HETATM   28  C   UNL     1      38.062 -14.022  -0.711  1.00  0.00     0.009 A 
HETATM   29  C   UNL     1      38.342 -14.103  -2.076  1.00  0.00     0.001 A 
HETATM   30  C   UNL     1      39.623 -13.825  -2.541  1.00  0.00     0.000 A 
HETATM   31  C   UNL     1      40.619 -13.459  -1.641  1.00  0.00     0.001 A 
HETATM   32  C   UNL     1      40.342 -13.386  -0.273  1.00  0.00     0.009 A 
ENDBRANCH  26  27
ENDBRANCH   1  26
BRANCH   5  33
HETATM   33  S   UNL     1      41.349 -17.127   4.032  1.00  0.00    -0.084 SA
BRANCH  33  34
HETATM   34  C   UNL     1      42.582 -18.325   3.571  1.00  0.00     0.188 A 
HETATM   35  N   UNL     1      43.432 -18.751   4.520  1.00  0.00    -0.235 NA
HETATM   36  C   UNL     1      44.345 -19.662   4.126  1.00  0.00     0.121 A 
HETATM   37  C   UNL     1      44.460 -20.109   2.830  1.00  0.00     0.038 A 
HETATM   38  C   UNL     1      43.571 -19.567   1.934  1.00  0.00     0.121 A 
HETATM   39  N   UNL     1      42.628 -18.666   2.278  1.00  0.00    -0.235 NA
ENDBRANCH  33  34
ENDBRANCH   5  33
TORSDOF 6
ENDMDL
MODEL 5
REMARK VINA RESULT:      -8.4      2.901      6.547
REMARK  6 active torsions:
REMARK  status: ('A' for Active; 'I' for Inactive)
REMARK    1  A    between atoms: C_4  and  C_5 
REMARK    2  A    between atoms: C_5  and  N_6 
REMARK    3  A    between atoms: C_8  and  C_9 
REMARK       I    between atoms: C_9  and  N_10 
REMARK    4  A    between atoms: N_13  and  C_15 
REMARK    5  A    between atoms: C_29  and  S_30 
REMARK    6  A    between atoms: S_30  and  C_31 
ROOT
HETATM    1  N   UNL     1      42.718 -17.255   3.466  1.00  0.00    -0.053 N 
HETATM    2  H   UNL     1      42.005 -17.982   3.611  1.00  0.00     0.281 HD
HETATM    3  C   UNL     1      41.926 -16.016   2.970  1.00  0.00     0.281 C 
HETATM    4  C   UNL     1      42.618 -14.882   3.719  1.00  0.00     0.060 C 
HETATM    5  C   UNL     1      42.816 -15.449   5.121  1.00  0.00     0.083 C 
HETATM    6  C   UNL     1      43.263 -16.889   4.855  1.00  0.00     0.252 C 
ENDROOT
BRANCH   3   7
HETATM    7  C   UNL     1      41.724 -15.788   1.458  1.00  0.00     0.251 C 
HETATM    8  N   UNL     1      40.624 -15.052   1.018  1.00  0.00    -0.347 N 
HETATM    9  C   UNL     1      40.523 -14.718  -0.407  1.00  0.00     0.153 C 
HETATM   10  C   UNL     1      39.359 -14.865   1.732  1.00  0.00     0.153 C 
HETATM   11  C   UNL     1      40.094 -13.255  -0.604  1.00  0.00     0.255 C 
HETATM   12  N   UNL     1      38.810 -12.904   0.172  1.00  0.00    -0.063 N 
HETATM   13  H   UNL     1      38.034 -13.386  -0.301  1.00  0.00     0.280 HD
HETATM   14  C   UNL     1      38.858 -13.413   1.622  1.00  0.00     0.255 C 
HETATM   15  O   UNL     1      42.512 -16.258   0.640  1.00  0.00    -0.271 OA
BRANCH  12  16
HETATM   16  C   UNL     1      38.526 -11.378   0.129  1.00  0.00     0.196 C 
HETATM   17  C   UNL     1      38.251 -10.871  -1.313  1.00  0.00     0.017 C 
HETATM   18  C   UNL     1      36.935 -11.452  -1.863  1.00  0.00     0.011 C 
HETATM   19  C   UNL     1      38.134  -9.333  -1.272  1.00  0.00     0.011 C 
HETATM   20  C   UNL     1      35.760 -11.045  -0.960  1.00  0.00    -0.013 C 
HETATM   21  C   UNL     1      36.004 -11.569   0.465  1.00  0.00     0.011 C 
HETATM   22  C   UNL     1      35.660  -9.509  -0.922  1.00  0.00     0.009 C 
HETATM   23  C   UNL     1      37.318 -10.990   1.025  1.00  0.00     0.017 C 
HETATM   24  C   UNL     1      37.205  -9.451   1.049  1.00  0.00     0.011 C 
HETATM   25  C   UNL     1      36.964  -8.911  -0.368  1.00  0.00    -0.013 C 
ENDBRANCH  12  16
ENDBRANCH   3   7
BRANCH   1  26
HETATM   26  C   UNL     1      43.740 -17.956   2.577  1.00  0.00     0.274 C 
BRANCH  26  27
HETATM   27  C   UNL     1      43.962 -19.437   2.775  1.00  0.00    -0.033 A 
HETATM   28  C   UNL     1      43.536 -20.350   1.791  1.00  0.00     0.009 A 
HETATM   29  C   UNL     1      43.750 -21.721   1.936  1.00  0.00     0.001 A 
HETATM   30  C   UNL     1      44.412 -22.206   3.059  1.00  0.00     0.000 A 
HETATM   31  C   UNL     1      44.867 -21.317   4.029  1.00  0.00     0.001 A 
HETATM   32  C   UNL     1      44.646 -19.944   3.888  1.00  0.00     0.009 A 
ENDBRANCH  26  27
ENDBRANCH   1  26
BRANCH   5  33
HETATM   33  S   UNL     1      41.234 -15.377   6.049  1.00  0.00    -0.084 SA
BRANCH  33  34
HETATM   34  C   UNL     1      40.778 -13.683   5.745  1.00  0.00     0.188 A 
HETATM   35  N   UNL     1      41.629 -12.722   6.142  1.00  0.00    -0.235 NA
HETATM   36  C   UNL     1      41.245 -11.455   5.886  1.00  0.00     0.121 A 
HETATM   37  C   UNL     1      40.041 -11.130   5.306  1.00  0.00     0.038 A 
HETATM   38  C   UNL     1      39.229 -12.192   4.988  1.00  0.00     0.121 A 
HETATM   39  N   UNL     1      39.572 -13.478   5.206  1.00  0.00    -0.235 NA
ENDBRANCH  33  34
ENDBRANCH   5  33
TORSDOF 6
ENDMDL
MODEL 6
REMARK VINA RESULT:      -8.3      3.363      8.523
REMARK  6 active torsions:
REMARK  status: ('A' for Active; 'I' for Inactive)
REMARK    1  A    between atoms: C_4  and  C_5 
REMARK    2  A    between atoms: C_5  and  N_6 
REMARK    3  A    between atoms: C_8  and  C_9 
REMARK       I    between atoms: C_9  and  N_10 
REMARK    4  A    between atoms: N_13  and  C_15 
REMARK    5  A    between atoms: C_29  and  S_30 
REMARK    6  A    between atoms: S_30  and  C_31 
ROOT
HETATM    1  N   UNL     1      41.400 -15.177   0.848  1.00  0.00    -0.053 N 
HETATM    2  H   UNL     1      40.388 -15.350   0.910  1.00  0.00     0.281 HD
HETATM    3  C   UNL     1      41.776 -14.539   2.212  1.00  0.00     0.281 C 
HETATM    4  C   UNL     1      43.106 -15.218   2.520  1.00  0.00     0.060 C 
HETATM    5  C   UNL     1      42.863 -16.672   2.127  1.00  0.00     0.083 C 
HETATM    6  C   UNL     1      42.082 -16.553   0.815  1.00  0.00     0.252 C 
ENDROOT
BRANCH   3   7
HETATM    7  C   UNL     1      41.761 -13.004   2.374  1.00  0.00     0.251 C 
HETATM    8  N   UNL     1      41.094 -12.438   3.459  1.00  0.00    -0.347 N 
HETATM    9  C   UNL     1      41.210 -10.992   3.682  1.00  0.00     0.153 C 
HETATM   10  C   UNL     1      39.991 -13.037   4.215  1.00  0.00     0.153 C 
HETATM   11  C   UNL     1      41.445 -10.678   5.168  1.00  0.00     0.255 C 
HETATM   12  N   UNL     1      40.391 -11.328   6.085  1.00  0.00    -0.063 N 
HETATM   13  H   UNL     1      39.508 -10.824   5.930  1.00  0.00     0.280 HD
HETATM   14  C   UNL     1      40.151 -12.805   5.728  1.00  0.00     0.255 C 
HETATM   15  O   UNL     1      42.318 -12.280   1.551  1.00  0.00    -0.271 OA
BRANCH  12  16
HETATM   16  C   UNL     1      40.776 -11.175   7.581  1.00  0.00     0.196 C 
HETATM   17  C   UNL     1      41.781 -10.015   7.815  1.00  0.00     0.017 C 
HETATM   18  C   UNL     1      41.133  -8.651   7.515  1.00  0.00     0.011 C 
HETATM   19  C   UNL     1      42.217 -10.041   9.295  1.00  0.00     0.011 C 
HETATM   20  C   UNL     1      39.909  -8.437   8.420  1.00  0.00    -0.013 C 
HETATM   21  C   UNL     1      38.890  -9.563   8.176  1.00  0.00     0.011 C 
HETATM   22  C   UNL     1      40.357  -8.474   9.892  1.00  0.00     0.009 C 
HETATM   23  C   UNL     1      39.529 -10.932   8.476  1.00  0.00     0.017 C 
HETATM   24  C   UNL     1      39.979 -10.950   9.952  1.00  0.00     0.011 C 
HETATM   25  C   UNL     1      41.001  -9.833  10.212  1.00  0.00    -0.013 C 
ENDBRANCH  12  16
ENDBRANCH   3   7
BRANCH   1  26
HETATM   26  C   UNL     1      41.532 -14.401  -0.458  1.00  0.00     0.274 C 
BRANCH  26  27
HETATM   27  C   UNL     1      40.514 -14.654  -1.545  1.00  0.00    -0.033 A 
HETATM   28  C   UNL     1      40.789 -15.586  -2.564  1.00  0.00     0.009 A 
HETATM   29  C   UNL     1      39.856 -15.857  -3.566  1.00  0.00     0.001 A 
HETATM   30  C   UNL     1      38.622 -15.217  -3.557  1.00  0.00     0.000 A 
HETATM   31  C   UNL     1      38.318 -14.315  -2.542  1.00  0.00     0.001 A 
HETATM   32  C   UNL     1      39.256 -14.037  -1.542  1.00  0.00     0.009 A 
ENDBRANCH  26  27
ENDBRANCH   1  26
BRANCH   5  33
HETATM   33  S   UNL     1      41.891 -17.515   3.436  1.00  0.00    -0.084 SA
BRANCH  33  34
HETATM   34  C   UNL     1      43.161 -17.738   4.663  1.00  0.00     0.188 A 
HETATM   35  N   UNL     1      43.232 -16.844   5.663  1.00  0.00    -0.235 NA
HETATM   36  C   UNL     1      44.206 -17.056   6.573  1.00  0.00     0.121 A 
HETATM   37  C   UNL     1      45.118 -18.081   6.482  1.00  0.00     0.038 A 
HETATM   38  C   UNL     1      44.980 -18.903   5.389  1.00  0.00     0.121 A 
HETATM   39  N   UNL     1      44.015 -18.747   4.461  1.00  0.00    -0.235 NA
ENDBRANCH  33  34
ENDBRANCH   5  33
TORSDOF 6
ENDMDL
MODEL 7
REMARK VINA RESULT:      -8.3      2.464      3.422
REMARK  6 active torsions:
REMARK  status: ('A' for Active; 'I' for Inactive)
REMARK    1  A    between atoms: C_4  and  C_5 
REMARK    2  A    between atoms: C_5  and  N_6 
REMARK    3  A    between atoms: C_8  and  C_9 
REMARK       I    between atoms: C_9  and  N_10 
REMARK    4  A    between atoms: N_13  and  C_15 
REMARK    5  A    between atoms: C_29  and  S_30 
REMARK    6  A    between atoms: S_30  and  C_31 
ROOT
HETATM    1  N   UNL     1      41.532 -15.660   4.957  1.00  0.00    -0.053 N 
HETATM    2  H   UNL     1      42.195 -14.883   4.835  1.00  0.00     0.281 HD
HETATM    3  C   UNL     1      41.569 -16.429   3.609  1.00  0.00     0.281 C 
HETATM    4  C   UNL     1      41.531 -17.880   4.075  1.00  0.00     0.060 C 
HETATM    5  C   UNL     1      42.485 -17.898   5.265  1.00  0.00     0.083 C 
HETATM    6  C   UNL     1      42.143 -16.601   6.006  1.00  0.00     0.252 C 
ENDROOT
BRANCH   3   7
HETATM    7  C   UNL     1      40.574 -16.064   2.488  1.00  0.00     0.251 C 
HETATM    8  N   UNL     1      40.620 -14.792   1.920  1.00  0.00    -0.347 N 
HETATM    9  C   UNL     1      39.770 -14.507   0.758  1.00  0.00     0.153 C 
HETATM   10  C   UNL     1      41.145 -13.576   2.545  1.00  0.00     0.153 C 
HETATM   11  C   UNL     1      40.546 -13.731  -0.319  1.00  0.00     0.255 C 
HETATM   12  N   UNL     1      41.222 -12.463   0.236  1.00  0.00    -0.063 N 
HETATM   13  H   UNL     1      40.473 -11.790   0.440  1.00  0.00     0.280 HD
HETATM   14  C   UNL     1      41.970 -12.739   1.551  1.00  0.00     0.255 C 
HETATM   15  O   UNL     1      39.736 -16.877   2.102  1.00  0.00    -0.271 OA
BRANCH  12  16
HETATM   16  C   UNL     1      42.169 -11.825  -0.817  1.00  0.00     0.196 C 
HETATM   17  C   UNL     1      41.470 -11.617  -2.187  1.00  0.00     0.017 C 
HETATM   18  C   UNL     1      40.354 -10.561  -2.086  1.00  0.00     0.011 C 
HETATM   19  C   UNL     1      42.526 -11.126  -3.201  1.00  0.00     0.011 C 
HETATM   20  C   UNL     1      40.937  -9.219  -1.617  1.00  0.00    -0.013 C 
HETATM   21  C   UNL     1      41.606  -9.403  -0.244  1.00  0.00     0.011 C 
HETATM   22  C   UNL     1      41.994  -8.745  -2.632  1.00  0.00     0.009 C 
HETATM   23  C   UNL     1      42.726 -10.456  -0.337  1.00  0.00     0.017 C 
HETATM   24  C   UNL     1      43.772  -9.971  -1.363  1.00  0.00     0.011 C 
HETATM   25  C   UNL     1      43.121  -9.785  -2.742  1.00  0.00    -0.013 C 
ENDBRANCH  12  16
ENDBRANCH   3   7
BRANCH   1  26
HETATM   26  C   UNL     1      40.268 -14.954   5.437  1.00  0.00     0.274 C 
BRANCH  26  27
HETATM   27  C   UNL     1      40.405 -13.575   6.039  1.00  0.00    -0.033 A 
HETATM   28  C   UNL     1      41.637 -12.895   5.968  1.00  0.00     0.009 A 
HETATM   29  C   UNL     1      41.784 -11.611   6.494  1.00  0.00     0.001 A 
HETATM   30  C   UNL     1      40.698 -10.974   7.085  1.00  0.00     0.000 A 
HETATM   31  C   UNL     1      39.465 -11.617   7.139  1.00  0.00     0.001 A 
HETATM   32  C   UNL     1      39.319 -12.907   6.618  1.00  0.00     0.009 A 
ENDBRANCH  26  27
ENDBRANCH   1  26
BRANCH   5  33
HETATM   33  S   UNL     1      44.221 -17.915   4.670  1.00  0.00    -0.084 SA
BRANCH  33  34
HETATM   34  C   UNL     1      44.380 -19.636   4.243  1.00  0.00     0.188 A 
HETATM   35  N   UNL     1      44.717 -20.497   5.217  1.00  0.00    -0.235 NA
HETATM   36  C   UNL     1      44.820 -21.790   4.849  1.00  0.00     0.121 A 
HETATM   37  C   UNL     1      44.650 -22.227   3.556  1.00  0.00     0.038 A 
HETATM   38  C   UNL     1      44.358 -21.250   2.634  1.00  0.00     0.121 A 
HETATM   39  N   UNL     1      44.226 -19.947   2.951  1.00  0.00    -0.235 NA
ENDBRANCH  33  34
ENDBRANCH   5  33
TORSDOF 6
ENDMDL
MODEL 8
REMARK VINA RESULT:      -8.2      4.405      9.809
REMARK  6 active torsions:
REMARK  status: ('A' for Active; 'I' for Inactive)
REMARK    1  A    between atoms: C_4  and  C_5 
REMARK    2  A    between atoms: C_5  and  N_6 
REMARK    3  A    between atoms: C_8  and  C_9 
REMARK       I    between atoms: C_9  and  N_10 
REMARK    4  A    between atoms: N_13  and  C_15 
REMARK    5  A    between atoms: C_29  and  S_30 
REMARK    6  A    between atoms: S_30  and  C_31 
ROOT
HETATM    1  N   UNL     1      39.651 -13.324   4.299  1.00  0.00    -0.053 N 
HETATM    2  H   UNL     1      38.764 -13.374   4.817  1.00  0.00     0.281 HD
HETATM    3  C   UNL     1      40.715 -12.961   5.369  1.00  0.00     0.281 C 
HETATM    4  C   UNL     1      41.888 -13.845   4.959  1.00  0.00     0.060 C 
HETATM    5  C   UNL     1      41.227 -15.176   4.615  1.00  0.00     0.083 C 
HETATM    6  C   UNL     1      39.975 -14.755   3.841  1.00  0.00     0.252 C 
ENDROOT
BRANCH   3   7
HETATM    7  C   UNL     1      41.060 -11.481   5.639  1.00  0.00     0.251 C 
HETATM    8  N   UNL     1      40.727 -10.914   6.868  1.00  0.00    -0.347 N 
HETATM    9  C   UNL     1      41.190  -9.554   7.166  1.00  0.00     0.153 C 
HETATM   10  C   UNL     1      39.666 -11.359   7.774  1.00  0.00     0.153 C 
HETATM   11  C   UNL     1      41.737  -9.457   8.599  1.00  0.00     0.255 C 
HETATM   12  N   UNL     1      40.739  -9.979   9.651  1.00  0.00    -0.063 N 
HETATM   13  H   UNL     1      39.974  -9.294   9.702  1.00  0.00     0.280 HD
HETATM   14  C   UNL     1      40.128 -11.330   9.243  1.00  0.00     0.255 C 
HETATM   15  O   UNL     1      41.612 -10.798   4.778  1.00  0.00    -0.271 OA
BRANCH  12  16
HETATM   16  C   UNL     1      41.398 -10.069  11.054  1.00  0.00     0.196 C 
HETATM   17  C   UNL     1      42.011  -8.716  11.505  1.00  0.00     0.017 C 
HETATM   18  C   UNL     1      40.913  -7.662  11.740  1.00  0.00     0.011 C 
HETATM   19  C   UNL     1      42.769  -8.945  12.830  1.00  0.00     0.011 C 
HETATM   20  C   UNL     1      39.935  -8.149  12.820  1.00  0.00    -0.013 C 
HETATM   21  C   UNL     1      39.296  -9.474  12.371  1.00  0.00     0.011 C 
HETATM   22  C   UNL     1      40.705  -8.381  14.132  1.00  0.00     0.009 C 
HETATM   23  C   UNL     1      40.386 -10.536  12.137  1.00  0.00     0.017 C 
HETATM   24  C   UNL     1      41.154 -10.751  13.458  1.00  0.00     0.011 C 
HETATM   25  C   UNL     1      41.802  -9.436  13.919  1.00  0.00    -0.013 C 
ENDBRANCH  12  16
ENDBRANCH   3   7
BRANCH   1  26
HETATM   26  C   UNL     1      39.321 -12.378   3.150  1.00  0.00     0.274 C 
BRANCH  26  27
HETATM   27  C   UNL     1      39.985 -12.618   1.814  1.00  0.00    -0.033 A 
HETATM   28  C   UNL     1      41.331 -12.252   1.622  1.00  0.00     0.009 A 
HETATM   29  C   UNL     1      41.976 -12.485   0.406  1.00  0.00     0.001 A 
HETATM   30  C   UNL     1      41.293 -13.106  -0.635  1.00  0.00     0.000 A 
HETATM   31  C   UNL     1      39.971 -13.501  -0.454  1.00  0.00     0.001 A 
HETATM   32  C   UNL     1      39.322 -13.261   0.761  1.00  0.00     0.009 A 
ENDBRANCH  26  27
ENDBRANCH   1  26
BRANCH   5  33
HETATM   33  S   UNL     1      40.813 -16.081   6.157  1.00  0.00    -0.084 SA
BRANCH  33  34
HETATM   34  C   UNL     1      42.322 -16.998   6.387  1.00  0.00     0.188 A 
HETATM   35  N   UNL     1      42.682 -17.311   7.642  1.00  0.00    -0.235 NA
HETATM   36  C   UNL     1      43.829 -18.010   7.767  1.00  0.00     0.121 A 
HETATM   37  C   UNL     1      44.630 -18.351   6.702  1.00  0.00     0.038 A 
HETATM   38  C   UNL     1      44.187 -17.934   5.470  1.00  0.00     0.121 A 
HETATM   39  N   UNL     1      43.041 -17.248   5.287  1.00  0.00    -0.235 NA
ENDBRANCH  33  34
ENDBRANCH   5  33
TORSDOF 6
ENDMDL
MODEL 9
REMARK VINA RESULT:      -8.2      2.869      4.122
REMARK  6 active torsions:
REMARK  status: ('A' for Active; 'I' for Inactive)
REMARK    1  A    between atoms: C_4  and  C_5 
REMARK    2  A    between atoms: C_5  and  N_6 
REMARK    3  A    between atoms: C_8  and  C_9 
REMARK       I    between atoms: C_9  and  N_10 
REMARK    4  A    between atoms: N_13  and  C_15 
REMARK    5  A    between atoms: C_29  and  S_30 
REMARK    6  A    between atoms: S_30  and  C_31 
ROOT
HETATM    1  N   UNL     1      41.157 -15.087   3.590  1.00  0.00    -0.053 N 
HETATM    2  H   UNL     1      41.913 -14.416   3.395  1.00  0.00     0.281 HD
HETATM    3  C   UNL     1      40.633 -15.511   2.192  1.00  0.00     0.281 C 
HETATM    4  C   UNL     1      40.410 -17.008   2.382  1.00  0.00     0.060 C 
HETATM    5  C   UNL     1      41.637 -17.455   3.169  1.00  0.00     0.083 C 
HETATM    6  C   UNL     1      41.820 -16.334   4.197  1.00  0.00     0.252 C 
ENDROOT
BRANCH   3   7
HETATM    7  C   UNL     1      39.464 -14.742   1.543  1.00  0.00     0.251 C 
HETATM    8  N   UNL     1      39.735 -13.621   0.759  1.00  0.00    -0.347 N 
HETATM    9  C   UNL     1      38.630 -12.987   0.029  1.00  0.00     0.153 C 
HETATM   10  C   UNL     1      40.921 -12.765   0.841  1.00  0.00     0.153 C 
HETATM   11  C   UNL     1      39.046 -12.635  -1.408  1.00  0.00     0.255 C 
HETATM   12  N   UNL     1      40.339 -11.800  -1.463  1.00  0.00    -0.063 N 
HETATM   13  H   UNL     1      40.106 -10.864  -1.107  1.00  0.00     0.280 HD
HETATM   14  C   UNL     1      41.438 -12.381  -0.558  1.00  0.00     0.255 C 
HETATM   15  O   UNL     1      38.301 -15.098   1.721  1.00  0.00    -0.271 OA
BRANCH  12  16
HETATM   16  C   UNL     1      40.848 -11.646  -2.923  1.00  0.00     0.196 C 
HETATM   17  C   UNL     1      40.054 -10.570  -3.712  1.00  0.00     0.017 C 
HETATM   18  C   UNL     1      40.309  -9.163  -3.140  1.00  0.00     0.011 C 
HETATM   19  C   UNL     1      40.526 -10.600  -5.181  1.00  0.00     0.011 C 
HETATM   20  C   UNL     1      41.807  -8.827  -3.211  1.00  0.00    -0.013 C 
HETATM   21  C   UNL     1      42.603  -9.868  -2.405  1.00  0.00     0.011 C 
HETATM   22  C   UNL     1      42.265  -8.869  -4.679  1.00  0.00     0.009 C 
HETATM   23  C   UNL     1      42.357 -11.279  -2.972  1.00  0.00     0.017 C 
HETATM   24  C   UNL     1      42.814 -11.302  -4.446  1.00  0.00     0.011 C 
HETATM   25  C   UNL     1      42.025 -10.270  -5.266  1.00  0.00    -0.013 C 
ENDBRANCH  12  16
ENDBRANCH   3   7
BRANCH   1  26
HETATM   26  C   UNL     1      40.275 -14.327   4.574  1.00  0.00     0.274 C 
BRANCH  26  27
HETATM   27  C   UNL     1      40.249 -12.819   4.492  1.00  0.00    -0.033 A 
HETATM   28  C   UNL     1      39.058 -12.154   4.140  1.00  0.00     0.009 A 
HETATM   29  C   UNL     1      38.999 -10.761   4.081  1.00  0.00     0.001 A 
HETATM   30  C   UNL     1      40.124 -10.004   4.391  1.00  0.00     0.000 A 
HETATM   31  C   UNL     1      41.302 -10.641   4.770  1.00  0.00     0.001 A 
HETATM   32  C   UNL     1      41.364 -12.037   4.822  1.00  0.00     0.009 A 
ENDBRANCH  26  27
ENDBRANCH   1  26
BRANCH   5  33
HETATM   33  S   UNL     1      43.079 -17.600   2.043  1.00  0.00    -0.084 SA
BRANCH  33  34
HETATM   34  C   UNL     1      43.662 -19.219   2.503  1.00  0.00     0.188 A 
HETATM   35  N   UNL     1      44.298 -19.347   3.679  1.00  0.00    -0.235 NA
HETATM   36  C   UNL     1      44.717 -20.592   3.988  1.00  0.00     0.121 A 
HETATM   37  C   UNL     1      44.566 -21.672   3.151  1.00  0.00     0.038 A 
HETATM   38  C   UNL     1      43.945 -21.412   1.952  1.00  0.00     0.121 A 
HETATM   39  N   UNL     1      43.493 -20.192   1.601  1.00  0.00    -0.235 NA
ENDBRANCH  33  34
ENDBRANCH   5  33
TORSDOF 6
ENDMDL
MODEL 10
REMARK VINA RESULT:      -8.1      4.646     10.565
REMARK  6 active torsions:
REMARK  status: ('A' for Active; 'I' for Inactive)
REMARK    1  A    between atoms: C_4  and  C_5 
REMARK    2  A    between atoms: C_5  and  N_6 
REMARK    3  A    between atoms: C_8  and  C_9 
REMARK       I    between atoms: C_9  and  N_10 
REMARK    4  A    between atoms: N_13  and  C_15 
REMARK    5  A    between atoms: C_29  and  S_30 
REMARK    6  A    between atoms: S_30  and  C_31 
ROOT
HETATM    1  N   UNL     1      39.335 -12.097   4.080  1.00  0.00    -0.053 N 
HETATM    2  H   UNL     1      38.414 -12.557   4.080  1.00  0.00     0.281 HD
HETATM    3  C   UNL     1      39.640 -11.823   5.577  1.00  0.00     0.281 C 
HETATM    4  C   UNL     1      41.124 -12.163   5.662  1.00  0.00     0.060 C 
HETATM    5  C   UNL     1      41.246 -13.437   4.831  1.00  0.00     0.083 C 
HETATM    6  C   UNL     1      40.354 -13.151   3.620  1.00  0.00     0.252 C 
ENDROOT
BRANCH   3   7
HETATM    7  C   UNL     1      39.230 -10.478   6.212  1.00  0.00     0.251 C 
HETATM    8  N   UNL     1      39.401 -10.289   7.583  1.00  0.00    -0.347 N 
HETATM    9  C   UNL     1      39.145  -8.959   8.148  1.00  0.00     0.153 C 
HETATM   10  C   UNL     1      39.461 -11.334   8.607  1.00  0.00     0.153 C 
HETATM   11  C   UNL     1      40.243  -8.562   9.149  1.00  0.00     0.255 C 
HETATM   12  N   UNL     1      40.465  -9.628  10.239  1.00  0.00    -0.063 N 
HETATM   13  H   UNL     1      39.641  -9.603  10.853  1.00  0.00     0.280 HD
HETATM   14  C   UNL     1      40.560 -11.044   9.646  1.00  0.00     0.255 C 
HETATM   15  O   UNL     1      38.743  -9.582   5.526  1.00  0.00    -0.271 OA
BRANCH  12  16
HETATM   16  C   UNL     1      41.716  -9.302  11.098  1.00  0.00     0.196 C 
HETATM   17  C   UNL     1      41.383  -8.363  12.289  1.00  0.00     0.017 C 
HETATM   18  C   UNL     1      40.474  -9.068  13.312  1.00  0.00     0.011 C 
HETATM   19  C   UNL     1      42.705  -7.976  12.986  1.00  0.00     0.011 C 
HETATM   20  C   UNL     1      41.165 -10.330  13.852  1.00  0.00    -0.013 C 
HETATM   21  C   UNL     1      41.471 -11.284  12.685  1.00  0.00     0.011 C 
HETATM   22  C   UNL     1      42.484  -9.931  14.536  1.00  0.00     0.009 C 
HETATM   23  C   UNL     1      42.384 -10.588  11.657  1.00  0.00     0.017 C 
HETATM   24  C   UNL     1      43.698 -10.187  12.360  1.00  0.00     0.011 C 
HETATM   25  C   UNL     1      43.409  -9.231  13.527  1.00  0.00    -0.013 C 
ENDBRANCH  12  16
ENDBRANCH   3   7
BRANCH   1  26
HETATM   26  C   UNL     1      39.145 -10.958   3.085  1.00  0.00     0.274 C 
BRANCH  26  27
HETATM   27  C   UNL     1      37.916 -10.976   2.206  1.00  0.00    -0.033 A 
HETATM   28  C   UNL     1      37.723 -12.025   1.287  1.00  0.00     0.009 A 
HETATM   29  C   UNL     1      36.585 -12.079   0.481  1.00  0.00     0.001 A 
HETATM   30  C   UNL     1      35.608 -11.095   0.592  1.00  0.00     0.000 A 
HETATM   31  C   UNL     1      35.766 -10.066   1.514  1.00  0.00     0.001 A 
HETATM   32  C   UNL     1      36.910 -10.007   2.317  1.00  0.00     0.009 A 
ENDBRANCH  26  27
ENDBRANCH   1  26
BRANCH   5  33
HETATM   33  S   UNL     1      40.647 -14.873   5.805  1.00  0.00    -0.084 SA
BRANCH  33  34
HETATM   34  C   UNL     1      41.714 -16.144   5.160  1.00  0.00     0.188 A 
HETATM   35  N   UNL     1      41.383 -16.706   3.985  1.00  0.00    -0.235 NA
HETATM   36  C   UNL     1      42.223 -17.659   3.533  1.00  0.00     0.121 A 
HETATM   37  C   UNL     1      43.327 -18.092   4.231  1.00  0.00     0.038 A 
HETATM   38  C   UNL     1      43.537 -17.482   5.444  1.00  0.00     0.121 A 
HETATM   39  N   UNL     1      42.740 -16.512   5.935  1.00  0.00    -0.235 NA
ENDBRANCH  33  34
ENDBRANCH   5  33
TORSDOF 6
ENDMDL
