MODEL 1
REMARK VINA RESULT:      -9.0      0.000      0.000
REMARK  6 active torsions:
REMARK  status: ('A' for Active; 'I' for Inactive)
REMARK    1  A    between atoms: C_5  and  C_6 
REMARK    2  A    between atoms: C_6  and  N_7 
REMARK    3  A    between atoms: C_6  and  C_11 
REMARK       I    between atoms: N_7  and  C_8 
REMARK    4  A    between atoms: C_11  and  C_12 
REMARK       I    between atoms: C_12  and  N_13 
REMARK    5  A    between atoms: N_13  and  C_14 
REMARK    6  A    between atoms: C_16  and  C_17 
ROOT
HETATM    1  C   UNL     1      41.060 -16.154   3.710  1.00  0.00     0.224 C 
HETATM    2  N   UNL     1      40.228 -16.380   2.629  1.00  0.00    -0.327 N 
HETATM    3  O   UNL     1      41.667 -15.117   3.962  1.00  0.00    -0.273 OA
HETATM    4  H   UNL     1      39.763 -17.281   2.602  1.00  0.00     0.169 HD
ENDROOT
BRANCH   1   5
HETATM    5  C   UNL     1      41.235 -17.383   4.578  1.00  0.00     0.133 C 
BRANCH   5   6
HETATM    6  C   UNL     1      42.711 -17.610   4.921  1.00  0.00     0.126 C 
BRANCH   6   7
HETATM    7  C   UNL     1      43.280 -18.744   4.080  1.00  0.00    -0.035 A 
HETATM    8  C   UNL     1      44.177 -19.683   4.611  1.00  0.00     0.010 A 
HETATM    9  C   UNL     1      44.642 -20.746   3.832  1.00  0.00     0.007 A 
HETATM   10  C   UNL     1      44.218 -20.897   2.508  1.00  0.00    -0.062 A 
HETATM   11  C   UNL     1      44.680 -22.071   1.697  1.00  0.00     0.048 C 
HETATM   12  C   UNL     1      43.311 -19.975   1.979  1.00  0.00     0.007 A 
HETATM   13  C   UNL     1      42.851 -18.907   2.754  1.00  0.00     0.010 A 
ENDBRANCH   6   7
BRANCH   6  14
HETATM   14  N   UNL     1      43.028 -17.784   6.340  1.00  0.00    -0.352 N 
HETATM   15  C   UNL     1      43.302 -16.782   7.239  1.00  0.00     0.214 C 
HETATM   16  C   UNL     1      43.537 -17.287   8.638  1.00  0.00     0.117 C 
HETATM   17  O   UNL     1      43.345 -15.588   6.962  1.00  0.00    -0.274 OA
HETATM   18  H   UNL     1      42.910 -18.721   6.700  1.00  0.00     0.163 HD
ENDBRANCH   6  14
ENDBRANCH   5   6
ENDBRANCH   1   5
BRANCH   2  19
HETATM   19  C   UNL     1      39.890 -15.486   1.593  1.00  0.00     0.035 A 
HETATM   20  C   UNL     1      40.737 -15.159   0.531  1.00  0.00     0.042 A 
HETATM   21  C   UNL     1      40.337 -14.252  -0.465  1.00  0.00    -0.021 A 
HETATM   22  C   UNL     1      39.056 -13.689  -0.391  1.00  0.00     0.012 A 
HETATM   23  C   UNL     1      38.202 -14.010   0.664  1.00  0.00     0.003 A 
HETATM   24  C   UNL     1      38.621 -14.897   1.655  1.00  0.00     0.029 A 
BRANCH  21  25
HETATM   25  C   UNL     1      41.247 -13.909  -1.547  1.00  0.00     0.010 A 
HETATM   26  C   UNL     1      42.219 -12.883  -1.651  1.00  0.00     0.152 A 
HETATM   27  N   UNL     1      42.846 -12.880  -2.831  1.00  0.00    -0.187 NA
HETATM   28  N   UNL     1      42.272 -13.895  -3.492  1.00  0.00    -0.289 N 
HETATM   29  H   UNL     1      42.582 -14.088  -4.439  1.00  0.00     0.188 HD
HETATM   30  C   UNL     1      41.311 -14.542  -2.771  1.00  0.00     0.123 A 
ENDBRANCH  21  25
ENDBRANCH   2  19
TORSDOF 6
ENDMDL
MODEL 2
REMARK VINA RESULT:      -8.8      2.519      3.520
REMARK  6 active torsions:
REMARK  status: ('A' for Active; 'I' for Inactive)
REMARK    1  A    between atoms: C_5  and  C_6 
REMARK    2  A    between atoms: C_6  and  N_7 
REMARK    3  A    between atoms: C_6  and  C_11 
REMARK       I    between atoms: N_7  and  C_8 
REMARK    4  A    between atoms: C_11  and  C_12 
REMARK       I    between atoms: C_12  and  N_13 
REMARK    5  A    between atoms: N_13  and  C_14 
REMARK    6  A    between atoms: C_16  and  C_17 
ROOT
HETATM    1  C   UNL     1      41.942 -16.665   0.699  1.00  0.00     0.224 C 
HETATM    2  N   UNL     1      42.096 -15.523  -0.066  1.00  0.00    -0.327 N 
HETATM    3  O   UNL     1      40.893 -17.088   1.177  1.00  0.00    -0.273 OA
HETATM    4  H   UNL     1      43.029 -15.348  -0.425  1.00  0.00     0.169 HD
ENDROOT
BRANCH   1   5
HETATM    5  C   UNL     1      43.257 -17.361   0.980  1.00  0.00     0.133 C 
BRANCH   5   6
HETATM    6  C   UNL     1      43.708 -17.124   2.425  1.00  0.00     0.126 C 
BRANCH   6   7
HETATM    7  C   UNL     1      43.999 -18.450   3.113  1.00  0.00    -0.035 A 
HETATM    8  C   UNL     1      44.154 -19.643   2.390  1.00  0.00     0.010 A 
HETATM    9  C   UNL     1      44.475 -20.837   3.041  1.00  0.00     0.007 A 
HETATM   10  C   UNL     1      44.653 -20.866   4.428  1.00  0.00    -0.062 A 
HETATM   11  C   UNL     1      45.050 -22.140   5.112  1.00  0.00     0.048 C 
HETATM   12  C   UNL     1      44.519 -19.678   5.152  1.00  0.00     0.007 A 
HETATM   13  C   UNL     1      44.190 -18.484   4.503  1.00  0.00     0.010 A 
ENDBRANCH   6   7
BRANCH   6  14
HETATM   14  N   UNL     1      42.840 -16.276   3.245  1.00  0.00    -0.352 N 
HETATM   15  C   UNL     1      42.990 -14.927   3.458  1.00  0.00     0.214 C 
HETATM   16  C   UNL     1      41.897 -14.335   4.309  1.00  0.00     0.117 C 
HETATM   17  O   UNL     1      43.903 -14.246   3.004  1.00  0.00    -0.274 OA
HETATM   18  H   UNL     1      41.991 -16.714   3.576  1.00  0.00     0.163 HD
ENDBRANCH   6  14
ENDBRANCH   5   6
ENDBRANCH   1   5
BRANCH   2  19
HETATM   19  C   UNL     1      41.104 -14.606  -0.466  1.00  0.00     0.035 A 
HETATM   20  C   UNL     1      40.197 -14.837  -1.505  1.00  0.00     0.042 A 
HETATM   21  C   UNL     1      39.235 -13.873  -1.856  1.00  0.00    -0.021 A 
HETATM   22  C   UNL     1      39.183 -12.675  -1.131  1.00  0.00     0.012 A 
HETATM   23  C   UNL     1      40.082 -12.437  -0.091  1.00  0.00     0.003 A 
HETATM   24  C   UNL     1      41.043 -13.395   0.232  1.00  0.00     0.029 A 
BRANCH  21  25
HETATM   25  C   UNL     1      38.319 -14.126  -2.958  1.00  0.00     0.010 A 
HETATM   26  C   UNL     1      38.071 -15.303  -3.705  1.00  0.00     0.152 A 
HETATM   27  N   UNL     1      37.159 -15.126  -4.665  1.00  0.00    -0.187 NA
HETATM   28  N   UNL     1      36.827 -13.832  -4.546  1.00  0.00    -0.289 N 
HETATM   29  H   UNL     1      36.142 -13.450  -5.190  1.00  0.00     0.188 HD
HETATM   30  C   UNL     1      37.491 -13.189  -3.542  1.00  0.00     0.123 A 
ENDBRANCH  21  25
ENDBRANCH   2  19
TORSDOF 6
ENDMDL
MODEL 3
REMARK VINA RESULT:      -8.7      4.343      8.311
REMARK  6 active torsions:
REMARK  status: ('A' for Active; 'I' for Inactive)
REMARK    1  A    between atoms: C_5  and  C_6 
REMARK    2  A    between atoms: C_6  and  N_7 
REMARK    3  A    between atoms: C_6  and  C_11 
REMARK       I    between atoms: N_7  and  C_8 
REMARK    4  A    between atoms: C_11  and  C_12 
REMARK       I    between atoms: C_12  and  N_13 
REMARK    5  A    between atoms: N_13  and  C_14 
REMARK    6  A    between atoms: C_16  and  C_17 
ROOT
HETATM    1  C   UNL     1      44.412 -15.549   7.040  1.00  0.00     0.224 C 
HETATM    2  N   UNL     1      45.137 -14.383   6.869  1.00  0.00    -0.327 N 
HETATM    3  O   UNL     1      43.755 -15.862   8.028  1.00  0.00    -0.273 OA
HETATM    4  H   UNL     1      45.582 -14.261   5.965  1.00  0.00     0.169 HD
ENDROOT
BRANCH   1   5
HETATM    5  C   UNL     1      44.555 -16.501   5.871  1.00  0.00     0.133 C 
BRANCH   5   6
HETATM    6  C   UNL     1      43.196 -17.081   5.464  1.00  0.00     0.126 C 
BRANCH   6   7
HETATM    7  C   UNL     1      43.384 -18.227   4.480  1.00  0.00    -0.035 A 
HETATM    8  C   UNL     1      42.758 -18.238   3.225  1.00  0.00     0.010 A 
HETATM    9  C   UNL     1      42.991 -19.276   2.319  1.00  0.00     0.007 A 
HETATM   10  C   UNL     1      43.858 -20.324   2.645  1.00  0.00    -0.062 A 
HETATM   11  C   UNL     1      44.144 -21.405   1.646  1.00  0.00     0.048 C 
HETATM   12  C   UNL     1      44.500 -20.310   3.886  1.00  0.00     0.007 A 
HETATM   13  C   UNL     1      44.261 -19.276   4.797  1.00  0.00     0.010 A 
ENDBRANCH   6   7
BRANCH   6  14
HETATM   14  N   UNL     1      42.199 -16.122   4.985  1.00  0.00    -0.352 N 
HETATM   15  C   UNL     1      40.950 -15.915   5.517  1.00  0.00     0.214 C 
HETATM   16  C   UNL     1      40.184 -14.818   4.827  1.00  0.00     0.117 C 
HETATM   17  O   UNL     1      40.484 -16.536   6.467  1.00  0.00    -0.274 OA
HETATM   18  H   UNL     1      42.521 -15.478   4.275  1.00  0.00     0.163 HD
ENDBRANCH   6  14
ENDBRANCH   5   6
ENDBRANCH   1   5
BRANCH   2  19
HETATM   19  C   UNL     1      45.280 -13.310   7.771  1.00  0.00     0.035 A 
HETATM   20  C   UNL     1      44.328 -12.964   8.734  1.00  0.00     0.042 A 
HETATM   21  C   UNL     1      44.533 -11.874   9.599  1.00  0.00    -0.021 A 
HETATM   22  C   UNL     1      45.724 -11.144   9.496  1.00  0.00     0.012 A 
HETATM   23  C   UNL     1      46.680 -11.483   8.538  1.00  0.00     0.003 A 
HETATM   24  C   UNL     1      46.454 -12.555   7.675  1.00  0.00     0.029 A 
BRANCH  21  25
HETATM   25  C   UNL     1      43.515 -11.519  10.576  1.00  0.00     0.010 A 
HETATM   26  C   UNL     1      43.423 -11.799  11.962  1.00  0.00     0.152 A 
HETATM   27  N   UNL     1      42.308 -11.314  12.516  1.00  0.00    -0.187 NA
HETATM   28  N   UNL     1      41.676 -10.731  11.488  1.00  0.00    -0.289 N 
HETATM   29  H   UNL     1      40.779 -10.290  11.663  1.00  0.00     0.188 HD
HETATM   30  C   UNL     1      42.354 -10.824  10.307  1.00  0.00     0.123 A 
ENDBRANCH  21  25
ENDBRANCH   2  19
TORSDOF 6
ENDMDL
MODEL 4
REMARK VINA RESULT:      -8.5      2.419      3.745
REMARK  6 active torsions:
REMARK  status: ('A' for Active; 'I' for Inactive)
REMARK    1  A    between atoms: C_5  and  C_6 
REMARK    2  A    between atoms: C_6  and  N_7 
REMARK    3  A    between atoms: C_6  and  C_11 
REMARK       I    between atoms: N_7  and  C_8 
REMARK    4  A    between atoms: C_11  and  C_12 
REMARK       I    between atoms: C_12  and  N_13 
REMARK    5  A    between atoms: N_13  and  C_14 
REMARK    6  A    between atoms: C_16  and  C_17 
ROOT
HETATM    1  C   UNL     1      42.148 -16.902   0.599  1.00  0.00     0.224 C 
HETATM    2  N   UNL     1      42.137 -15.811  -0.251  1.00  0.00    -0.327 N 
HETATM    3  O   UNL     1      41.177 -17.571   0.942  1.00  0.00    -0.273 OA
HETATM    4  H   UNL     1      43.041 -15.405  -0.470  1.00  0.00     0.169 HD
ENDROOT
BRANCH   1   5
HETATM    5  C   UNL     1      43.522 -17.185   1.168  1.00  0.00     0.133 C 
BRANCH   5   6
HETATM    6  C   UNL     1      43.524 -17.057   2.695  1.00  0.00     0.126 C 
BRANCH   6   7
HETATM    7  C   UNL     1      43.980 -18.361   3.333  1.00  0.00    -0.035 A 
HETATM    8  C   UNL     1      44.183 -18.479   4.716  1.00  0.00     0.010 A 
HETATM    9  C   UNL     1      44.549 -19.703   5.283  1.00  0.00     0.007 A 
HETATM   10  C   UNL     1      44.715 -20.837   4.482  1.00  0.00    -0.062 A 
HETATM   11  C   UNL     1      45.055 -22.158   5.105  1.00  0.00     0.048 C 
HETATM   12  C   UNL     1      44.496 -20.731   3.106  1.00  0.00     0.007 A 
HETATM   13  C   UNL     1      44.138 -19.506   2.536  1.00  0.00     0.010 A 
ENDBRANCH   6   7
BRANCH   6  14
HETATM   14  N   UNL     1      42.287 -16.565   3.305  1.00  0.00    -0.352 N 
HETATM   15  C   UNL     1      42.166 -15.463   4.118  1.00  0.00     0.214 C 
HETATM   16  C   UNL     1      40.747 -15.192   4.542  1.00  0.00     0.117 C 
HETATM   17  O   UNL     1      43.099 -14.748   4.467  1.00  0.00    -0.274 OA
HETATM   18  H   UNL     1      41.439 -17.016   2.993  1.00  0.00     0.163 HD
ENDBRANCH   6  14
ENDBRANCH   5   6
ENDBRANCH   1   5
BRANCH   2  19
HETATM   19  C   UNL     1      41.032 -15.234  -0.908  1.00  0.00     0.035 A 
HETATM   20  C   UNL     1      40.090 -14.412  -0.283  1.00  0.00     0.042 A 
HETATM   21  C   UNL     1      39.006 -13.875  -1.000  1.00  0.00    -0.021 A 
HETATM   22  C   UNL     1      38.891 -14.161  -2.367  1.00  0.00     0.012 A 
HETATM   23  C   UNL     1      39.827 -14.979  -2.999  1.00  0.00     0.003 A 
HETATM   24  C   UNL     1      40.886 -15.519  -2.270  1.00  0.00     0.029 A 
BRANCH  21  25
HETATM   25  C   UNL     1      38.024 -13.043  -0.321  1.00  0.00     0.010 A 
HETATM   26  C   UNL     1      37.234 -11.967  -0.795  1.00  0.00     0.152 A 
HETATM   27  N   UNL     1      36.459 -11.435   0.154  1.00  0.00    -0.187 NA
HETATM   28  N   UNL     1      36.756 -12.159   1.243  1.00  0.00    -0.289 N 
HETATM   29  H   UNL     1      36.289 -11.929   2.114  1.00  0.00     0.188 HD
HETATM   30  C   UNL     1      37.685 -13.131   1.014  1.00  0.00     0.123 A 
ENDBRANCH  21  25
ENDBRANCH   2  19
TORSDOF 6
ENDMDL
MODEL 5
REMARK VINA RESULT:      -8.4      2.336      3.039
REMARK  6 active torsions:
REMARK  status: ('A' for Active; 'I' for Inactive)
REMARK    1  A    between atoms: C_5  and  C_6 
REMARK    2  A    between atoms: C_6  and  N_7 
REMARK    3  A    between atoms: C_6  and  C_11 
REMARK       I    between atoms: N_7  and  C_8 
REMARK    4  A    between atoms: C_11  and  C_12 
REMARK       I    between atoms: C_12  and  N_13 
REMARK    5  A    between atoms: N_13  and  C_14 
REMARK    6  A    between atoms: C_16  and  C_17 
ROOT
HETATM    1  C   UNL     1      40.521 -15.709   1.418  1.00  0.00     0.224 C 
HETATM    2  N   UNL     1      41.450 -15.741   0.394  1.00  0.00    -0.327 N 
HETATM    3  O   UNL     1      39.482 -15.055   1.442  1.00  0.00    -0.273 OA
HETATM    4  H   UNL     1      42.230 -16.378   0.517  1.00  0.00     0.169 HD
ENDROOT
BRANCH   1   5
HETATM    5  C   UNL     1      40.941 -16.537   2.614  1.00  0.00     0.133 C 
BRANCH   5   6
HETATM    6  C   UNL     1      42.455 -16.455   2.835  1.00  0.00     0.126 C 
BRANCH   6   7
HETATM    7  C   UNL     1      43.065 -17.850   2.841  1.00  0.00    -0.035 A 
HETATM    8  C   UNL     1      43.837 -18.318   3.915  1.00  0.00     0.010 A 
HETATM    9  C   UNL     1      44.339 -19.622   3.919  1.00  0.00     0.007 A 
HETATM   10  C   UNL     1      44.078 -20.489   2.853  1.00  0.00    -0.062 A 
HETATM   11  C   UNL     1      44.575 -21.903   2.891  1.00  0.00     0.048 C 
HETATM   12  C   UNL     1      43.294 -20.035   1.789  1.00  0.00     0.007 A 
HETATM   13  C   UNL     1      42.797 -18.729   1.779  1.00  0.00     0.010 A 
ENDBRANCH   6   7
BRANCH   6  14
HETATM   14  N   UNL     1      42.900 -15.672   3.990  1.00  0.00    -0.352 N 
HETATM   15  C   UNL     1      43.395 -14.390   3.959  1.00  0.00     0.214 C 
HETATM   16  C   UNL     1      43.715 -13.844   5.325  1.00  0.00     0.117 C 
HETATM   17  O   UNL     1      43.558 -13.730   2.939  1.00  0.00    -0.274 OA
HETATM   18  H   UNL     1      42.705 -16.080   4.894  1.00  0.00     0.163 HD
ENDBRANCH   6  14
ENDBRANCH   5   6
ENDBRANCH   1   5
BRANCH   2  19
HETATM   19  C   UNL     1      41.412 -15.048  -0.833  1.00  0.00     0.035 A 
HETATM   20  C   UNL     1      41.872 -13.740  -1.008  1.00  0.00     0.042 A 
HETATM   21  C   UNL     1      41.797 -13.106  -2.262  1.00  0.00    -0.021 A 
HETATM   22  C   UNL     1      41.271 -13.817  -3.348  1.00  0.00     0.012 A 
HETATM   23  C   UNL     1      40.811 -15.123  -3.183  1.00  0.00     0.003 A 
HETATM   24  C   UNL     1      40.874 -15.731  -1.929  1.00  0.00     0.029 A 
BRANCH  21  25
HETATM   25  C   UNL     1      42.259 -11.735  -2.413  1.00  0.00     0.010 A 
HETATM   26  C   UNL     1      42.043 -10.793  -3.449  1.00  0.00     0.152 A 
HETATM   27  N   UNL     1      42.663  -9.630  -3.231  1.00  0.00    -0.187 NA
HETATM   28  N   UNL     1      43.288  -9.823  -2.060  1.00  0.00    -0.289 N 
HETATM   29  H   UNL     1      43.846  -9.065  -1.682  1.00  0.00     0.188 HD
HETATM   30  C   UNL     1      43.079 -11.063  -1.529  1.00  0.00     0.123 A 
ENDBRANCH  21  25
ENDBRANCH   2  19
TORSDOF 6
ENDMDL
MODEL 6
REMARK VINA RESULT:      -8.3      2.414      8.283
REMARK  6 active torsions:
REMARK  status: ('A' for Active; 'I' for Inactive)
REMARK    1  A    between atoms: C_5  and  C_6 
REMARK    2  A    between atoms: C_6  and  N_7 
REMARK    3  A    between atoms: C_6  and  C_11 
REMARK       I    between atoms: N_7  and  C_8 
REMARK    4  A    between atoms: C_11  and  C_12 
REMARK       I    between atoms: C_12  and  N_13 
REMARK    5  A    between atoms: N_13  and  C_14 
REMARK    6  A    between atoms: C_16  and  C_17 
ROOT
HETATM    1  C   UNL     1      41.799 -17.140   1.347  1.00  0.00     0.224 C 
HETATM    2  N   UNL     1      43.095 -17.458   1.714  1.00  0.00    -0.327 N 
HETATM    3  O   UNL     1      40.772 -17.463   1.938  1.00  0.00    -0.273 OA
HETATM    4  H   UNL     1      43.832 -17.064   1.139  1.00  0.00     0.169 HD
ENDROOT
BRANCH   1   5
HETATM    5  C   UNL     1      41.733 -16.377   0.041  1.00  0.00     0.133 C 
BRANCH   5   6
HETATM    6  C   UNL     1      40.982 -15.053   0.215  1.00  0.00     0.126 C 
BRANCH   6   7
HETATM    7  C   UNL     1      41.303 -14.109  -0.935  1.00  0.00    -0.035 A 
HETATM    8  C   UNL     1      41.926 -12.869  -0.727  1.00  0.00     0.010 A 
HETATM    9  C   UNL     1      42.258 -12.046  -1.807  1.00  0.00     0.007 A 
HETATM   10  C   UNL     1      41.979 -12.444  -3.118  1.00  0.00    -0.062 A 
HETATM   11  C   UNL     1      42.388 -11.579  -4.273  1.00  0.00     0.048 C 
HETATM   12  C   UNL     1      41.376 -13.687  -3.334  1.00  0.00     0.007 A 
HETATM   13  C   UNL     1      41.036 -14.508  -2.255  1.00  0.00     0.010 A 
ENDBRANCH   6   7
BRANCH   6  14
HETATM   14  N   UNL     1      41.132 -14.387   1.511  1.00  0.00    -0.352 N 
HETATM   15  C   UNL     1      40.120 -14.085   2.390  1.00  0.00     0.214 C 
HETATM   16  C   UNL     1      40.610 -13.446   3.662  1.00  0.00     0.117 C 
HETATM   17  O   UNL     1      38.931 -14.312   2.190  1.00  0.00    -0.274 OA
HETATM   18  H   UNL     1      42.084 -14.256   1.825  1.00  0.00     0.163 HD
ENDBRANCH   6  14
ENDBRANCH   5   6
ENDBRANCH   1   5
BRANCH   2  19
HETATM   19  C   UNL     1      43.522 -18.204   2.831  1.00  0.00     0.035 A 
HETATM   20  C   UNL     1      43.403 -17.772   4.154  1.00  0.00     0.042 A 
HETATM   21  C   UNL     1      43.858 -18.568   5.221  1.00  0.00    -0.021 A 
HETATM   22  C   UNL     1      44.418 -19.820   4.939  1.00  0.00     0.012 A 
HETATM   23  C   UNL     1      44.539 -20.260   3.621  1.00  0.00     0.003 A 
HETATM   24  C   UNL     1      44.101 -19.452   2.573  1.00  0.00     0.029 A 
BRANCH  21  25
HETATM   25  C   UNL     1      43.746 -18.085   6.589  1.00  0.00     0.010 A 
HETATM   26  C   UNL     1      43.499 -16.785   7.096  1.00  0.00     0.152 A 
HETATM   27  N   UNL     1      43.493 -16.742   8.432  1.00  0.00    -0.187 NA
HETATM   28  N   UNL     1      43.747 -18.010   8.787  1.00  0.00    -0.289 N 
HETATM   29  H   UNL     1      43.804 -18.230   9.776  1.00  0.00     0.188 HD
HETATM   30  C   UNL     1      43.906 -18.852   7.725  1.00  0.00     0.123 A 
ENDBRANCH  21  25
ENDBRANCH   2  19
TORSDOF 6
ENDMDL
MODEL 7
REMARK VINA RESULT:      -8.3      1.871      2.330
REMARK  6 active torsions:
REMARK  status: ('A' for Active; 'I' for Inactive)
REMARK    1  A    between atoms: C_5  and  C_6 
REMARK    2  A    between atoms: C_6  and  N_7 
REMARK    3  A    between atoms: C_6  and  C_11 
REMARK       I    between atoms: N_7  and  C_8 
REMARK    4  A    between atoms: C_11  and  C_12 
REMARK       I    between atoms: C_12  and  N_13 
REMARK    5  A    between atoms: N_13  and  C_14 
REMARK    6  A    between atoms: C_16  and  C_17 
ROOT
HETATM    1  C   UNL     1      42.344 -14.981   2.322  1.00  0.00     0.224 C 
HETATM    2  N   UNL     1      41.497 -15.482   1.350  1.00  0.00    -0.327 N 
HETATM    3  O   UNL     1      42.208 -13.926   2.935  1.00  0.00    -0.273 OA
HETATM    4  H   UNL     1      41.732 -16.398   0.981  1.00  0.00     0.169 HD
ENDROOT
BRANCH   1   5
HETATM    5  C   UNL     1      43.564 -15.850   2.538  1.00  0.00     0.133 C 
BRANCH   5   6
HETATM    6  C   UNL     1      43.383 -16.762   3.756  1.00  0.00     0.126 C 
BRANCH   6   7
HETATM    7  C   UNL     1      43.624 -18.214   3.369  1.00  0.00    -0.035 A 
HETATM    8  C   UNL     1      43.220 -18.729   2.128  1.00  0.00     0.010 A 
HETATM    9  C   UNL     1      43.503 -20.052   1.776  1.00  0.00     0.007 A 
HETATM   10  C   UNL     1      44.199 -20.889   2.655  1.00  0.00    -0.062 A 
HETATM   11  C   UNL     1      44.545 -22.290   2.247  1.00  0.00     0.048 C 
HETATM   12  C   UNL     1      44.621 -20.377   3.885  1.00  0.00     0.007 A 
HETATM   13  C   UNL     1      44.332 -19.056   4.241  1.00  0.00     0.010 A 
ENDBRANCH   6   7
BRANCH   6  14
HETATM   14  N   UNL     1      42.132 -16.607   4.501  1.00  0.00    -0.352 N 
HETATM   15  C   UNL     1      42.009 -16.175   5.799  1.00  0.00     0.214 C 
HETATM   16  C   UNL     1      40.579 -16.075   6.259  1.00  0.00     0.117 C 
HETATM   17  O   UNL     1      42.950 -15.880   6.529  1.00  0.00    -0.274 OA
HETATM   18  H   UNL     1      41.286 -16.717   3.958  1.00  0.00     0.163 HD
ENDBRANCH   6  14
ENDBRANCH   5   6
ENDBRANCH   1   5
BRANCH   2  19
HETATM   19  C   UNL     1      40.308 -14.910   0.856  1.00  0.00     0.035 A 
HETATM   20  C   UNL     1      40.200 -14.274  -0.384  1.00  0.00     0.042 A 
HETATM   21  C   UNL     1      38.981 -13.718  -0.811  1.00  0.00    -0.021 A 
HETATM   22  C   UNL     1      37.859 -13.828   0.022  1.00  0.00     0.012 A 
HETATM   23  C   UNL     1      37.957 -14.463   1.260  1.00  0.00     0.003 A 
HETATM   24  C   UNL     1      39.178 -14.992   1.678  1.00  0.00     0.029 A 
BRANCH  21  25
HETATM   25  C   UNL     1      38.900 -13.039  -2.095  1.00  0.00     0.010 A 
HETATM   26  C   UNL     1      39.450 -11.807  -2.528  1.00  0.00     0.152 A 
HETATM   27  N   UNL     1      39.127 -11.511  -3.791  1.00  0.00    -0.187 NA
HETATM   28  N   UNL     1      38.361 -12.544  -4.168  1.00  0.00    -0.289 N 
HETATM   29  H   UNL     1      37.978 -12.540  -5.108  1.00  0.00     0.188 HD
HETATM   30  C   UNL     1      38.194 -13.484  -3.193  1.00  0.00     0.123 A 
ENDBRANCH  21  25
ENDBRANCH   2  19
TORSDOF 6
ENDMDL
MODEL 8
REMARK VINA RESULT:      -8.2      2.899      8.704
REMARK  6 active torsions:
REMARK  status: ('A' for Active; 'I' for Inactive)
REMARK    1  A    between atoms: C_5  and  C_6 
REMARK    2  A    between atoms: C_6  and  N_7 
REMARK    3  A    between atoms: C_6  and  C_11 
REMARK       I    between atoms: N_7  and  C_8 
REMARK    4  A    between atoms: C_11  and  C_12 
REMARK       I    between atoms: C_12  and  N_13 
REMARK    5  A    between atoms: N_13  and  C_14 
REMARK    6  A    between atoms: C_16  and  C_17 
ROOT
HETATM    1  C   UNL     1      41.468 -16.125   0.893  1.00  0.00     0.224 C 
HETATM    2  N   UNL     1      41.556 -16.214   2.271  1.00  0.00    -0.327 N 
HETATM    3  O   UNL     1      42.128 -16.761   0.076  1.00  0.00    -0.273 OA
HETATM    4  H   UNL     1      40.896 -15.652   2.798  1.00  0.00     0.169 HD
ENDROOT
BRANCH   1   5
HETATM    5  C   UNL     1      40.482 -15.070   0.438  1.00  0.00     0.133 C 
BRANCH   5   6
HETATM    6  C   UNL     1      40.711 -14.699  -1.031  1.00  0.00     0.126 C 
BRANCH   6   7
HETATM    7  C   UNL     1      41.549 -13.433  -1.132  1.00  0.00    -0.035 A 
HETATM    8  C   UNL     1      42.232 -13.085  -2.307  1.00  0.00     0.010 A 
HETATM    9  C   UNL     1      42.949 -11.889  -2.390  1.00  0.00     0.007 A 
HETATM   10  C   UNL     1      42.998 -11.011  -1.303  1.00  0.00    -0.062 A 
HETATM   11  C   UNL     1      43.725  -9.705  -1.419  1.00  0.00     0.048 C 
HETATM   12  C   UNL     1      42.304 -11.341  -0.135  1.00  0.00     0.007 A 
HETATM   13  C   UNL     1      41.592 -12.541  -0.048  1.00  0.00     0.010 A 
ENDBRANCH   6   7
BRANCH   6  14
HETATM   14  N   UNL     1      39.516 -14.619  -1.874  1.00  0.00    -0.352 N 
HETATM   15  C   UNL     1      39.390 -15.105  -3.153  1.00  0.00     0.214 C 
HETATM   16  C   UNL     1      38.013 -14.910  -3.729  1.00  0.00     0.117 C 
HETATM   17  O   UNL     1      40.288 -15.657  -3.781  1.00  0.00    -0.274 OA
HETATM   18  H   UNL     1      38.681 -14.282  -1.413  1.00  0.00     0.163 HD
ENDBRANCH   6  14
ENDBRANCH   5   6
ENDBRANCH   1   5
BRANCH   2  19
HETATM   19  C   UNL     1      42.405 -17.040   3.034  1.00  0.00     0.035 A 
HETATM   20  C   UNL     1      42.804 -18.323   2.649  1.00  0.00     0.042 A 
HETATM   21  C   UNL     1      43.649 -19.096   3.465  1.00  0.00    -0.021 A 
HETATM   22  C   UNL     1      44.107 -18.550   4.672  1.00  0.00     0.012 A 
HETATM   23  C   UNL     1      43.716 -17.270   5.063  1.00  0.00     0.003 A 
HETATM   24  C   UNL     1      42.862 -16.524   4.252  1.00  0.00     0.029 A 
BRANCH  21  25
HETATM   25  C   UNL     1      44.030 -20.438   3.054  1.00  0.00     0.010 A 
HETATM   26  C   UNL     1      43.837 -21.122   1.829  1.00  0.00     0.152 A 
HETATM   27  N   UNL     1      44.316 -22.370   1.850  1.00  0.00    -0.187 NA
HETATM   28  N   UNL     1      44.807 -22.495   3.091  1.00  0.00    -0.289 N 
HETATM   29  H   UNL     1      45.225 -23.381   3.355  1.00  0.00     0.188 HD
HETATM   30  C   UNL     1      44.662 -21.371   3.851  1.00  0.00     0.123 A 
ENDBRANCH  21  25
ENDBRANCH   2  19
TORSDOF 6
ENDMDL
MODEL 9
REMARK VINA RESULT:      -8.1      4.028      6.166
REMARK  6 active torsions:
REMARK  status: ('A' for Active; 'I' for Inactive)
REMARK    1  A    between atoms: C_5  and  C_6 
REMARK    2  A    between atoms: C_6  and  N_7 
REMARK    3  A    between atoms: C_6  and  C_11 
REMARK       I    between atoms: N_7  and  C_8 
REMARK    4  A    between atoms: C_11  and  C_12 
REMARK       I    between atoms: C_12  and  N_13 
REMARK    5  A    between atoms: N_13  and  C_14 
REMARK    6  A    between atoms: C_16  and  C_17 
ROOT
HETATM    1  C   UNL     1      41.253 -15.307   4.763  1.00  0.00     0.224 C 
HETATM    2  N   UNL     1      41.820 -14.119   4.337  1.00  0.00    -0.327 N 
HETATM    3  O   UNL     1      40.493 -15.453   5.716  1.00  0.00    -0.273 OA
HETATM    4  H   UNL     1      42.386 -14.170   3.497  1.00  0.00     0.169 HD
ENDROOT
BRANCH   1   5
HETATM    5  C   UNL     1      41.723 -16.500   3.958  1.00  0.00     0.133 C 
BRANCH   5   6
HETATM    6  C   UNL     1      42.964 -17.137   4.592  1.00  0.00     0.126 C 
BRANCH   6   7
HETATM    7  C   UNL     1      43.328 -18.423   3.863  1.00  0.00    -0.035 A 
HETATM    8  C   UNL     1      42.827 -18.721   2.587  1.00  0.00     0.010 A 
HETATM    9  C   UNL     1      43.220 -19.883   1.918  1.00  0.00     0.007 A 
HETATM   10  C   UNL     1      44.126 -20.771   2.506  1.00  0.00    -0.062 A 
HETATM   11  C   UNL     1      44.584 -21.988   1.759  1.00  0.00     0.048 C 
HETATM   12  C   UNL     1      44.644 -20.471   3.770  1.00  0.00     0.007 A 
HETATM   13  C   UNL     1      44.246 -19.313   4.444  1.00  0.00     0.010 A 
ENDBRANCH   6   7
BRANCH   6  14
HETATM   14  N   UNL     1      42.922 -17.337   6.042  1.00  0.00    -0.352 N 
HETATM   15  C   UNL     1      43.709 -16.702   6.972  1.00  0.00     0.214 C 
HETATM   16  C   UNL     1      43.383 -17.090   8.390  1.00  0.00     0.117 C 
HETATM   17  O   UNL     1      44.587 -15.888   6.704  1.00  0.00    -0.274 OA
HETATM   18  H   UNL     1      42.157 -17.905   6.380  1.00  0.00     0.163 HD
ENDBRANCH   6  14
ENDBRANCH   5   6
ENDBRANCH   1   5
BRANCH   2  19
HETATM   19  C   UNL     1      41.654 -12.833   4.888  1.00  0.00     0.035 A 
HETATM   20  C   UNL     1      41.962 -12.500   6.210  1.00  0.00     0.042 A 
HETATM   21  C   UNL     1      41.765 -11.195   6.694  1.00  0.00    -0.021 A 
HETATM   22  C   UNL     1      41.270 -10.217   5.822  1.00  0.00     0.012 A 
HETATM   23  C   UNL     1      40.961 -10.539   4.500  1.00  0.00     0.003 A 
HETATM   24  C   UNL     1      41.145 -11.843   4.040  1.00  0.00     0.029 A 
BRANCH  21  25
HETATM   25  C   UNL     1      42.069 -10.879   8.082  1.00  0.00     0.010 A 
HETATM   26  C   UNL     1      43.249 -11.080   8.841  1.00  0.00     0.152 A 
HETATM   27  N   UNL     1      43.126 -10.672  10.107  1.00  0.00    -0.187 NA
HETATM   28  N   UNL     1      41.866 -10.218  10.169  1.00  0.00    -0.289 N 
HETATM   29  H   UNL     1      41.528  -9.856  11.055  1.00  0.00     0.188 HD
HETATM   30  C   UNL     1      41.191 -10.319   8.987  1.00  0.00     0.123 A 
ENDBRANCH  21  25
ENDBRANCH   2  19
TORSDOF 6
ENDMDL
MODEL 10
REMARK VINA RESULT:      -8.0      2.303      8.964
REMARK  6 active torsions:
REMARK  status: ('A' for Active; 'I' for Inactive)
REMARK    1  A    between atoms: C_5  and  C_6 
REMARK    2  A    between atoms: C_6  and  N_7 
REMARK    3  A    between atoms: C_6  and  C_11 
REMARK       I    between atoms: N_7  and  C_8 
REMARK    4  A    between atoms: C_11  and  C_12 
REMARK       I    between atoms: C_12  and  N_13 
REMARK    5  A    between atoms: N_13  and  C_14 
REMARK    6  A    between atoms: C_16  and  C_17 
ROOT
HETATM    1  C   UNL     1      41.557 -15.440   1.486  1.00  0.00     0.224 C 
HETATM    2  N   UNL     1      41.415 -16.793   1.735  1.00  0.00    -0.327 N 
HETATM    3  O   UNL     1      42.436 -14.704   1.926  1.00  0.00    -0.273 OA
HETATM    4  H   UNL     1      40.659 -17.261   1.247  1.00  0.00     0.169 HD
ENDROOT
BRANCH   1   5
HETATM    5  C   UNL     1      40.437 -14.883   0.633  1.00  0.00     0.133 C 
BRANCH   5   6
HETATM    6  C   UNL     1      40.909 -14.636  -0.803  1.00  0.00     0.126 C 
BRANCH   6   7
HETATM    7  C   UNL     1      41.379 -13.198  -0.965  1.00  0.00    -0.035 A 
HETATM    8  C   UNL     1      42.521 -12.869  -1.710  1.00  0.00     0.010 A 
HETATM    9  C   UNL     1      42.899 -11.535  -1.888  1.00  0.00     0.007 A 
HETATM   10  C   UNL     1      42.143 -10.500  -1.330  1.00  0.00    -0.062 A 
HETATM   11  C   UNL     1      42.525  -9.070  -1.571  1.00  0.00     0.048 C 
HETATM   12  C   UNL     1      40.993 -10.819  -0.602  1.00  0.00     0.007 A 
HETATM   13  C   UNL     1      40.618 -12.153  -0.416  1.00  0.00     0.010 A 
ENDBRANCH   6   7
BRANCH   6  14
HETATM   14  N   UNL     1      39.977 -15.018  -1.867  1.00  0.00    -0.352 N 
HETATM   15  C   UNL     1      40.316 -15.459  -3.123  1.00  0.00     0.214 C 
HETATM   16  C   UNL     1      39.123 -15.822  -3.966  1.00  0.00     0.117 C 
HETATM   17  O   UNL     1      41.465 -15.569  -3.538  1.00  0.00    -0.274 OA
HETATM   18  H   UNL     1      39.005 -15.071  -1.594  1.00  0.00     0.163 HD
ENDBRANCH   6  14
ENDBRANCH   5   6
ENDBRANCH   1   5
BRANCH   2  19
HETATM   19  C   UNL     1      42.234 -17.619   2.530  1.00  0.00     0.035 A 
HETATM   20  C   UNL     1      42.333 -17.519   3.921  1.00  0.00     0.042 A 
HETATM   21  C   UNL     1      43.178 -18.374   4.652  1.00  0.00    -0.021 A 
HETATM   22  C   UNL     1      43.910 -19.350   3.965  1.00  0.00     0.012 A 
HETATM   23  C   UNL     1      43.817 -19.459   2.577  1.00  0.00     0.003 A 
HETATM   24  C   UNL     1      42.990 -18.591   1.864  1.00  0.00     0.029 A 
BRANCH  21  25
HETATM   25  C   UNL     1      43.283 -18.233   6.096  1.00  0.00     0.010 A 
HETATM   26  C   UNL     1      42.942 -17.155   6.950  1.00  0.00     0.152 A 
HETATM   27  N   UNL     1      43.214 -17.405   8.234  1.00  0.00    -0.187 NA
HETATM   28  N   UNL     1      43.740 -18.638   8.209  1.00  0.00    -0.289 N 
HETATM   29  H   UNL     1      44.041 -19.050   9.086  1.00  0.00     0.188 HD
HETATM   30  C   UNL     1      43.804 -19.177   6.957  1.00  0.00     0.123 A 
ENDBRANCH  21  25
ENDBRANCH   2  19
TORSDOF 6
ENDMDL
