MODEL 1
REMARK VINA RESULT:      -9.1      0.000      0.000
REMARK  6 active torsions:
REMARK  status: ('A' for Active; 'I' for Inactive)
REMARK    1  A    between atoms: C_4  and  C_5 
REMARK    2  A    between atoms: C_5  and  O_6 
REMARK    3  A    between atoms: O_6  and  C_7 
REMARK    4  A    between atoms: C_10  and  C_11 
REMARK    5  A    between atoms: C_17  and  C_18 
REMARK    6  A    between atoms: C_26  and  N_27 
ROOT
HETATM    1  C   UNL     1      41.208 -15.501  -0.834  1.00  0.00     0.072 A 
HETATM    2  N   UNL     1      40.440 -16.034  -1.850  1.00  0.00    -0.274 N 
HETATM    3  H   UNL     1      40.042 -16.966  -1.899  1.00  0.00     0.189 HD
HETATM    4  N   UNL     1      40.227 -15.194  -2.882  1.00  0.00    -0.148 NA
HETATM    5  C   UNL     1      40.893 -14.111  -2.507  1.00  0.00     0.199 A 
HETATM    6  C   UNL     1      41.510 -14.219  -1.261  1.00  0.00     0.040 A 
HETATM    7  C   UNL     1      42.262 -13.071  -0.679  1.00  0.00     0.108 A 
HETATM    8  C   UNL     1      42.354 -11.927  -1.689  1.00  0.00     0.081 A 
HETATM    9  C   UNL     1      43.198 -10.831  -1.338  1.00  0.00     0.100 C 
HETATM   10  N   UNL     1      43.884  -9.943  -1.046  1.00  0.00    -0.191 NA
HETATM   11  C   UNL     1      41.718 -11.946  -2.891  1.00  0.00     0.140 A 
HETATM   12  O   UNL     1      40.929 -13.028  -3.303  1.00  0.00    -0.277 OA
ENDROOT
BRANCH   7  13
HETATM   13  C   UNL     1      41.650 -12.614   0.619  1.00  0.00    -0.020 A 
HETATM   14  C   UNL     1      40.488 -11.885   0.802  1.00  0.00     0.149 A 
HETATM   15  O   UNL     1      40.261 -11.656   2.120  1.00  0.00    -0.334 OA
HETATM   16  C   UNL     1      41.278 -12.238   2.802  1.00  0.00     0.142 A 
HETATM   17  C   UNL     1      42.156 -12.839   1.933  1.00  0.00     0.034 A 
ENDBRANCH   7  13
BRANCH  11  18
HETATM   18  N   UNL     1      41.772 -10.942  -3.834  1.00  0.00    -0.282 NA
HETATM   19  H   UNL     1      40.875 -10.572  -4.141  1.00  0.00     0.126 HD
HETATM   20  H   UNL     1      42.393 -11.176  -4.606  1.00  0.00     0.126 HD
ENDBRANCH  11  18
BRANCH   1  21
HETATM   21  C   UNL     1      41.541 -16.235   0.381  1.00  0.00    -0.007 A 
HETATM   22  C   UNL     1      42.814 -16.788   0.552  1.00  0.00     0.016 A 
HETATM   23  C   UNL     1      43.144 -17.455   1.735  1.00  0.00     0.037 A 
HETATM   24  C   UNL     1      42.212 -17.582   2.766  1.00  0.00     0.069 A 
HETATM   25  C   UNL     1      40.930 -17.062   2.590  1.00  0.00     0.037 A 
HETATM   26  C   UNL     1      40.601 -16.388   1.407  1.00  0.00     0.016 A 
BRANCH  24  27
HETATM   27  O   UNL     1      42.673 -18.229   3.877  1.00  0.00    -0.347 OA
BRANCH  27  28
HETATM   28  C   UNL     1      44.073 -18.510   3.931  1.00  0.00     0.214 C 
BRANCH  28  29
HETATM   29  C   UNL     1      44.297 -20.005   3.902  1.00  0.00    -0.034 A 
HETATM   30  C   UNL     1      44.165 -20.712   2.697  1.00  0.00     0.009 A 
HETATM   31  C   UNL     1      44.387 -22.090   2.653  1.00  0.00     0.001 A 
HETATM   32  C   UNL     1      44.755 -22.774   3.808  1.00  0.00     0.000 A 
HETATM   33  C   UNL     1      44.906 -22.083   5.008  1.00  0.00     0.001 A 
HETATM   34  C   UNL     1      44.685 -20.705   5.054  1.00  0.00     0.009 A 
ENDBRANCH  28  29
ENDBRANCH  27  28
ENDBRANCH  24  27
ENDBRANCH   1  21
TORSDOF 6
ENDMDL
MODEL 2
REMARK VINA RESULT:      -8.9      3.229      5.019
REMARK  6 active torsions:
REMARK  status: ('A' for Active; 'I' for Inactive)
REMARK    1  A    between atoms: C_4  and  C_5 
REMARK    2  A    between atoms: C_5  and  O_6 
REMARK    3  A    between atoms: O_6  and  C_7 
REMARK    4  A    between atoms: C_10  and  C_11 
REMARK    5  A    between atoms: C_17  and  C_18 
REMARK    6  A    between atoms: C_26  and  N_27 
ROOT
HETATM    1  C   UNL     1      41.367 -14.193   5.143  1.00  0.00     0.072 A 
HETATM    2  N   UNL     1      41.673 -13.116   5.950  1.00  0.00    -0.274 N 
HETATM    3  H   UNL     1      42.279 -13.106   6.765  1.00  0.00     0.189 HD
HETATM    4  N   UNL     1      41.071 -11.965   5.590  1.00  0.00    -0.148 NA
HETATM    5  C   UNL     1      40.357 -12.337   4.538  1.00  0.00     0.199 A 
HETATM    6  C   UNL     1      40.495 -13.683   4.197  1.00  0.00     0.040 A 
HETATM    7  C   UNL     1      39.789 -14.247   3.011  1.00  0.00     0.108 A 
HETATM    8  C   UNL     1      38.850 -13.204   2.403  1.00  0.00     0.081 A 
HETATM    9  C   UNL     1      37.976 -13.657   1.371  1.00  0.00     0.100 C 
HETATM   10  N   UNL     1      37.269 -14.030   0.531  1.00  0.00    -0.191 NA
HETATM   11  C   UNL     1      38.790 -11.917   2.838  1.00  0.00     0.140 A 
HETATM   12  O   UNL     1      39.587 -11.445   3.890  1.00  0.00    -0.277 OA
ENDROOT
BRANCH   7  13
HETATM   13  C   UNL     1      40.763 -14.774   1.990  1.00  0.00    -0.020 A 
HETATM   14  C   UNL     1      41.661 -14.055   1.221  1.00  0.00     0.149 A 
HETATM   15  O   UNL     1      42.369 -14.877   0.406  1.00  0.00    -0.334 OA
HETATM   16  C   UNL     1      41.934 -16.139   0.645  1.00  0.00     0.142 A 
HETATM   17  C   UNL     1      40.952 -16.134   1.605  1.00  0.00     0.034 A 
ENDBRANCH   7  13
BRANCH  11  18
HETATM   18  N   UNL     1      37.961 -10.943   2.326  1.00  0.00    -0.282 NA
HETATM   19  H   UNL     1      38.262 -10.517   1.452  1.00  0.00     0.126 HD
HETATM   20  H   UNL     1      37.692 -10.260   3.031  1.00  0.00     0.126 HD
ENDBRANCH  11  18
BRANCH   1  21
HETATM   21  C   UNL     1      41.926 -15.525   5.346  1.00  0.00    -0.007 A 
HETATM   22  C   UNL     1      43.284 -15.690   5.632  1.00  0.00     0.016 A 
HETATM   23  C   UNL     1      43.808 -16.964   5.867  1.00  0.00     0.037 A 
HETATM   24  C   UNL     1      42.989 -18.092   5.820  1.00  0.00     0.069 A 
HETATM   25  C   UNL     1      41.640 -17.939   5.503  1.00  0.00     0.037 A 
HETATM   26  C   UNL     1      41.112 -16.662   5.274  1.00  0.00     0.016 A 
BRANCH  24  27
HETATM   27  O   UNL     1      43.623 -19.271   6.098  1.00  0.00    -0.347 OA
BRANCH  27  28
HETATM   28  C   UNL     1      44.826 -19.547   5.380  1.00  0.00     0.214 C 
BRANCH  28  29
HETATM   29  C   UNL     1      44.507 -20.334   4.129  1.00  0.00    -0.034 A 
HETATM   30  C   UNL     1      43.979 -19.681   3.004  1.00  0.00     0.009 A 
HETATM   31  C   UNL     1      43.698 -20.392   1.836  1.00  0.00     0.001 A 
HETATM   32  C   UNL     1      43.951 -21.760   1.774  1.00  0.00     0.000 A 
HETATM   33  C   UNL     1      44.491 -22.418   2.877  1.00  0.00     0.001 A 
HETATM   34  C   UNL     1      44.773 -21.709   4.046  1.00  0.00     0.009 A 
ENDBRANCH  28  29
ENDBRANCH  27  28
ENDBRANCH  24  27
ENDBRANCH   1  21
TORSDOF 6
ENDMDL
MODEL 3
REMARK VINA RESULT:      -8.5      1.902      2.485
REMARK  6 active torsions:
REMARK  status: ('A' for Active; 'I' for Inactive)
REMARK    1  A    between atoms: C_4  and  C_5 
REMARK    2  A    between atoms: C_5  and  O_6 
REMARK    3  A    between atoms: O_6  and  C_7 
REMARK    4  A    between atoms: C_10  and  C_11 
REMARK    5  A    between atoms: C_17  and  C_18 
REMARK    6  A    between atoms: C_26  and  N_27 
ROOT
HETATM    1  C   UNL     1      41.122 -15.198  -1.212  1.00  0.00     0.072 A 
HETATM    2  N   UNL     1      40.590 -15.857  -2.303  1.00  0.00    -0.274 N 
HETATM    3  H   UNL     1      40.196 -16.792  -2.328  1.00  0.00     0.189 HD
HETATM    4  N   UNL     1      40.628 -15.149  -3.450  1.00  0.00    -0.148 NA
HETATM    5  C   UNL     1      41.213 -14.023  -3.068  1.00  0.00     0.199 A 
HETATM    6  C   UNL     1      41.534 -13.974  -1.711  1.00  0.00     0.040 A 
HETATM    7  C   UNL     1      42.159 -12.758  -1.117  1.00  0.00     0.108 A 
HETATM    8  C   UNL     1      42.494 -11.742  -2.211  1.00  0.00     0.081 A 
HETATM    9  C   UNL     1      43.258 -10.605  -1.813  1.00  0.00     0.100 C 
HETATM   10  N   UNL     1      43.877  -9.682  -1.484  1.00  0.00    -0.191 NA
HETATM   11  C   UNL     1      42.142 -11.912  -3.513  1.00  0.00     0.140 A 
HETATM   12  O   UNL     1      41.445 -13.043  -3.958  1.00  0.00    -0.277 OA
ENDROOT
BRANCH   7  13
HETATM   13  C   UNL     1      41.281 -12.152  -0.053  1.00  0.00    -0.020 A 
HETATM   14  C   UNL     1      39.985 -11.686  -0.183  1.00  0.00     0.149 A 
HETATM   15  O   UNL     1      39.522 -11.203   0.998  1.00  0.00    -0.334 OA
HETATM   16  C   UNL     1      40.518 -11.357   1.904  1.00  0.00     0.142 A 
HETATM   17  C   UNL     1      41.618 -11.933   1.316  1.00  0.00     0.034 A 
ENDBRANCH   7  13
BRANCH  11  18
HETATM   18  N   UNL     1      42.423 -11.029  -4.533  1.00  0.00    -0.282 NA
HETATM   19  H   UNL     1      42.473 -11.430  -5.467  1.00  0.00     0.126 HD
HETATM   20  H   UNL     1      43.217 -10.431  -4.313  1.00  0.00     0.126 HD
ENDBRANCH  11  18
BRANCH   1  21
HETATM   21  C   UNL     1      41.162 -15.776   0.126  1.00  0.00    -0.007 A 
HETATM   22  C   UNL     1      40.264 -15.354   1.111  1.00  0.00     0.016 A 
HETATM   23  C   UNL     1      40.278 -15.940   2.380  1.00  0.00     0.037 A 
HETATM   24  C   UNL     1      41.186 -16.953   2.688  1.00  0.00     0.069 A 
HETATM   25  C   UNL     1      42.107 -17.356   1.722  1.00  0.00     0.037 A 
HETATM   26  C   UNL     1      42.090 -16.775   0.447  1.00  0.00     0.016 A 
BRANCH  24  27
HETATM   27  O   UNL     1      41.072 -17.458   3.952  1.00  0.00    -0.347 OA
BRANCH  27  28
HETATM   28  C   UNL     1      41.436 -16.596   5.032  1.00  0.00     0.214 C 
BRANCH  28  29
HETATM   29  C   UNL     1      42.548 -17.225   5.838  1.00  0.00    -0.034 A 
HETATM   30  C   UNL     1      43.624 -17.847   5.186  1.00  0.00     0.009 A 
HETATM   31  C   UNL     1      44.668 -18.415   5.919  1.00  0.00     0.001 A 
HETATM   32  C   UNL     1      44.655 -18.359   7.310  1.00  0.00     0.000 A 
HETATM   33  C   UNL     1      43.602 -17.729   7.971  1.00  0.00     0.001 A 
HETATM   34  C   UNL     1      42.557 -17.160   7.240  1.00  0.00     0.009 A 
ENDBRANCH  28  29
ENDBRANCH  27  28
ENDBRANCH  24  27
ENDBRANCH   1  21
TORSDOF 6
ENDMDL
MODEL 4
REMARK VINA RESULT:      -8.5      2.692      4.273
REMARK  6 active torsions:
REMARK  status: ('A' for Active; 'I' for Inactive)
REMARK    1  A    between atoms: C_4  and  C_5 
REMARK    2  A    between atoms: C_5  and  O_6 
REMARK    3  A    between atoms: O_6  and  C_7 
REMARK    4  A    between atoms: C_10  and  C_11 
REMARK    5  A    between atoms: C_17  and  C_18 
REMARK    6  A    between atoms: C_26  and  N_27 
ROOT
HETATM    1  C   UNL     1      39.419 -13.374   0.587  1.00  0.00     0.072 A 
HETATM    2  N   UNL     1      39.246 -12.192   1.279  1.00  0.00    -0.274 N 
HETATM    3  H   UNL     1      39.602 -11.957   2.200  1.00  0.00     0.189 HD
HETATM    4  N   UNL     1      38.504 -11.273   0.630  1.00  0.00    -0.148 NA
HETATM    5  C   UNL     1      38.192 -11.904  -0.493  1.00  0.00     0.199 A 
HETATM    6  C   UNL     1      38.724 -13.190  -0.596  1.00  0.00     0.040 A 
HETATM    7  C   UNL     1      38.499 -14.014  -1.818  1.00  0.00     0.108 A 
HETATM    8  C   UNL     1      37.530 -13.307  -2.767  1.00  0.00     0.081 A 
HETATM    9  C   UNL     1      37.082 -14.056  -3.896  1.00  0.00     0.100 C 
HETATM   10  N   UNL     1      36.722 -14.669  -4.812  1.00  0.00    -0.191 NA
HETATM   11  C   UNL     1      37.061 -12.050  -2.547  1.00  0.00     0.140 A 
HETATM   12  O   UNL     1      37.427 -11.302  -1.421  1.00  0.00    -0.277 OA
ENDROOT
BRANCH   7  13
HETATM   13  C   UNL     1      39.798 -14.348  -2.504  1.00  0.00    -0.020 A 
HETATM   14  C   UNL     1      40.250 -15.590  -2.912  1.00  0.00     0.149 A 
HETATM   15  O   UNL     1      41.474 -15.496  -3.489  1.00  0.00    -0.334 OA
HETATM   16  C   UNL     1      41.824 -14.186  -3.459  1.00  0.00     0.142 A 
HETATM   17  C   UNL     1      40.835 -13.439  -2.868  1.00  0.00     0.034 A 
ENDBRANCH   7  13
BRANCH  11  18
HETATM   18  N   UNL     1      36.187 -11.373  -3.370  1.00  0.00    -0.282 NA
HETATM   19  H   UNL     1      35.778 -11.917  -4.127  1.00  0.00     0.126 HD
HETATM   20  H   UNL     1      36.567 -10.481  -3.679  1.00  0.00     0.126 HD
ENDBRANCH  11  18
BRANCH   1  21
HETATM   21  C   UNL     1      40.202 -14.491   1.102  1.00  0.00    -0.007 A 
HETATM   22  C   UNL     1      39.673 -15.341   2.078  1.00  0.00     0.016 A 
HETATM   23  C   UNL     1      40.411 -16.435   2.539  1.00  0.00     0.037 A 
HETATM   24  C   UNL     1      41.685 -16.699   2.037  1.00  0.00     0.069 A 
HETATM   25  C   UNL     1      42.232 -15.838   1.087  1.00  0.00     0.037 A 
HETATM   26  C   UNL     1      41.492 -14.745   0.619  1.00  0.00     0.016 A 
BRANCH  24  27
HETATM   27  O   UNL     1      42.282 -17.816   2.551  1.00  0.00    -0.347 OA
BRANCH  27  28
HETATM   28  C   UNL     1      43.244 -18.476   1.727  1.00  0.00     0.214 C 
BRANCH  28  29
HETATM   29  C   UNL     1      43.758 -19.712   2.428  1.00  0.00    -0.034 A 
HETATM   30  C   UNL     1      43.711 -20.957   1.782  1.00  0.00     0.009 A 
HETATM   31  C   UNL     1      44.200 -22.103   2.411  1.00  0.00     0.001 A 
HETATM   32  C   UNL     1      44.751 -22.018   3.687  1.00  0.00     0.000 A 
HETATM   33  C   UNL     1      44.820 -20.786   4.334  1.00  0.00     0.001 A 
HETATM   34  C   UNL     1      44.332 -19.638   3.706  1.00  0.00     0.009 A 
ENDBRANCH  28  29
ENDBRANCH  27  28
ENDBRANCH  24  27
ENDBRANCH   1  21
TORSDOF 6
ENDMDL
MODEL 5
REMARK VINA RESULT:      -8.4      3.342      4.895
REMARK  6 active torsions:
REMARK  status: ('A' for Active; 'I' for Inactive)
REMARK    1  A    between atoms: C_4  and  C_5 
REMARK    2  A    between atoms: C_5  and  O_6 
REMARK    3  A    between atoms: O_6  and  C_7 
REMARK    4  A    between atoms: C_10  and  C_11 
REMARK    5  A    between atoms: C_17  and  C_18 
REMARK    6  A    between atoms: C_26  and  N_27 
ROOT
HETATM    1  C   UNL     1      41.043 -14.000   4.538  1.00  0.00     0.072 A 
HETATM    2  N   UNL     1      41.168 -13.665   5.872  1.00  0.00    -0.274 N 
HETATM    3  H   UNL     1      41.747 -14.119   6.571  1.00  0.00     0.189 HD
HETATM    4  N   UNL     1      40.409 -12.619   6.255  1.00  0.00    -0.148 NA
HETATM    5  C   UNL     1      39.781 -12.300   5.132  1.00  0.00     0.199 A 
HETATM    6  C   UNL     1      40.126 -13.092   4.036  1.00  0.00     0.040 A 
HETATM    7  C   UNL     1      39.538 -12.833   2.691  1.00  0.00     0.108 A 
HETATM    8  C   UNL     1      38.468 -11.744   2.778  1.00  0.00     0.081 A 
HETATM    9  C   UNL     1      37.694 -11.514   1.601  1.00  0.00     0.100 C 
HETATM   10  N   UNL     1      37.069 -11.331   0.641  1.00  0.00    -0.191 NA
HETATM   11  C   UNL     1      38.208 -11.049   3.917  1.00  0.00     0.140 A 
HETATM   12  O   UNL     1      38.901 -11.284   5.111  1.00  0.00    -0.277 OA
ENDROOT
BRANCH   7  13
HETATM   13  C   UNL     1      40.602 -12.481   1.684  1.00  0.00    -0.020 A 
HETATM   14  C   UNL     1      41.531 -11.458   1.750  1.00  0.00     0.149 A 
HETATM   15  O   UNL     1      42.324 -11.451   0.649  1.00  0.00    -0.334 OA
HETATM   16  C   UNL     1      41.914 -12.475  -0.139  1.00  0.00     0.142 A 
HETATM   17  C   UNL     1      40.864 -13.140   0.446  1.00  0.00     0.034 A 
ENDBRANCH   7  13
BRANCH  11  18
HETATM   18  N   UNL     1      37.254 -10.062   4.045  1.00  0.00    -0.282 NA
HETATM   19  H   UNL     1      37.227  -9.584   4.943  1.00  0.00     0.126 HD
HETATM   20  H   UNL     1      36.337 -10.374   3.732  1.00  0.00     0.126 HD
ENDBRANCH  11  18
BRANCH   1  21
HETATM   21  C   UNL     1      41.789 -15.087   3.916  1.00  0.00    -0.007 A 
HETATM   22  C   UNL     1      43.022 -14.844   3.302  1.00  0.00     0.016 A 
HETATM   23  C   UNL     1      43.753 -15.895   2.743  1.00  0.00     0.037 A 
HETATM   24  C   UNL     1      43.270 -17.203   2.786  1.00  0.00     0.069 A 
HETATM   25  C   UNL     1      42.027 -17.449   3.368  1.00  0.00     0.037 A 
HETATM   26  C   UNL     1      41.295 -16.397   3.934  1.00  0.00     0.016 A 
BRANCH  24  27
HETATM   27  O   UNL     1      44.098 -18.137   2.231  1.00  0.00    -0.347 OA
BRANCH  27  28
HETATM   28  C   UNL     1      43.528 -19.410   1.921  1.00  0.00     0.214 C 
BRANCH  28  29
HETATM   29  C   UNL     1      44.058 -20.456   2.875  1.00  0.00    -0.034 A 
HETATM   30  C   UNL     1      44.401 -20.100   4.188  1.00  0.00     0.009 A 
HETATM   31  C   UNL     1      44.875 -21.061   5.084  1.00  0.00     0.001 A 
HETATM   32  C   UNL     1      45.000 -22.388   4.683  1.00  0.00     0.000 A 
HETATM   33  C   UNL     1      44.648 -22.758   3.387  1.00  0.00     0.001 A 
HETATM   34  C   UNL     1      44.174 -21.800   2.489  1.00  0.00     0.009 A 
ENDBRANCH  28  29
ENDBRANCH  27  28
ENDBRANCH  24  27
ENDBRANCH   1  21
TORSDOF 6
ENDMDL
MODEL 6
REMARK VINA RESULT:      -8.3      1.647      1.955
REMARK  6 active torsions:
REMARK  status: ('A' for Active; 'I' for Inactive)
REMARK    1  A    between atoms: C_4  and  C_5 
REMARK    2  A    between atoms: C_5  and  O_6 
REMARK    3  A    between atoms: O_6  and  C_7 
REMARK    4  A    between atoms: C_10  and  C_11 
REMARK    5  A    between atoms: C_17  and  C_18 
REMARK    6  A    between atoms: C_26  and  N_27 
ROOT
HETATM    1  C   UNL     1      41.300 -15.078  -1.349  1.00  0.00     0.072 A 
HETATM    2  N   UNL     1      41.379 -15.759  -2.548  1.00  0.00    -0.274 N 
HETATM    3  H   UNL     1      41.651 -16.726  -2.692  1.00  0.00     0.189 HD
HETATM    4  N   UNL     1      41.063 -15.018  -3.628  1.00  0.00    -0.148 NA
HETATM    5  C   UNL     1      40.792 -13.837  -3.091  1.00  0.00     0.199 A 
HETATM    6  C   UNL     1      40.905 -13.798  -1.701  1.00  0.00     0.040 A 
HETATM    7  C   UNL     1      40.593 -12.553  -0.943  1.00  0.00     0.108 A 
HETATM    8  C   UNL     1      40.315 -11.398  -1.907  1.00  0.00     0.081 A 
HETATM    9  C   UNL     1      40.177 -10.102  -1.326  1.00  0.00     0.100 C 
HETATM   10  N   UNL     1      40.064  -9.051  -0.849  1.00  0.00    -0.191 NA
HETATM   11  C   UNL     1      40.249 -11.557  -3.256  1.00  0.00     0.140 A 
HETATM   12  O   UNL     1      40.440 -12.801  -3.872  1.00  0.00    -0.277 OA
ENDROOT
BRANCH   7  13
HETATM   13  C   UNL     1      39.448 -12.763   0.012  1.00  0.00    -0.020 A 
HETATM   14  C   UNL     1      39.412 -12.496   1.369  1.00  0.00     0.149 A 
HETATM   15  O   UNL     1      38.205 -12.823   1.897  1.00  0.00    -0.334 OA
HETATM   16  C   UNL     1      37.448 -13.303   0.880  1.00  0.00     0.142 A 
HETATM   17  C   UNL     1      38.158 -13.288  -0.296  1.00  0.00     0.034 A 
ENDBRANCH   7  13
BRANCH  11  18
HETATM   18  N   UNL     1      40.004 -10.549  -4.163  1.00  0.00    -0.282 NA
HETATM   19  H   UNL     1      40.760 -10.342  -4.812  1.00  0.00     0.126 HD
HETATM   20  H   UNL     1      39.623  -9.717  -3.716  1.00  0.00     0.126 HD
ENDBRANCH  11  18
BRANCH   1  21
HETATM   21  C   UNL     1      41.582 -15.699  -0.061  1.00  0.00    -0.007 A 
HETATM   22  C   UNL     1      41.136 -16.994   0.218  1.00  0.00     0.016 A 
HETATM   23  C   UNL     1      41.443 -17.601   1.439  1.00  0.00     0.037 A 
HETATM   24  C   UNL     1      42.199 -16.929   2.400  1.00  0.00     0.069 A 
HETATM   25  C   UNL     1      42.620 -15.625   2.143  1.00  0.00     0.037 A 
HETATM   26  C   UNL     1      42.318 -15.017   0.917  1.00  0.00     0.016 A 
BRANCH  24  27
HETATM   27  O   UNL     1      42.452 -17.648   3.534  1.00  0.00    -0.347 OA
BRANCH  27  28
HETATM   28  C   UNL     1      43.820 -17.940   3.826  1.00  0.00     0.214 C 
BRANCH  28  29
HETATM   29  C   UNL     1      44.079 -19.418   3.644  1.00  0.00    -0.034 A 
HETATM   30  C   UNL     1      43.942 -20.006   2.378  1.00  0.00     0.009 A 
HETATM   31  C   UNL     1      44.197 -21.366   2.193  1.00  0.00     0.001 A 
HETATM   32  C   UNL     1      44.602 -22.152   3.268  1.00  0.00     0.000 A 
HETATM   33  C   UNL     1      44.759 -21.579   4.529  1.00  0.00     0.001 A 
HETATM   34  C   UNL     1      44.505 -20.219   4.715  1.00  0.00     0.009 A 
ENDBRANCH  28  29
ENDBRANCH  27  28
ENDBRANCH  24  27
ENDBRANCH   1  21
TORSDOF 6
ENDMDL
MODEL 7
REMARK VINA RESULT:      -8.2      3.809      8.610
REMARK  6 active torsions:
REMARK  status: ('A' for Active; 'I' for Inactive)
REMARK    1  A    between atoms: C_4  and  C_5 
REMARK    2  A    between atoms: C_5  and  O_6 
REMARK    3  A    between atoms: O_6  and  C_7 
REMARK    4  A    between atoms: C_10  and  C_11 
REMARK    5  A    between atoms: C_17  and  C_18 
REMARK    6  A    between atoms: C_26  and  N_27 
ROOT
HETATM    1  C   UNL     1      41.160 -15.202   3.811  1.00  0.00     0.072 A 
HETATM    2  N   UNL     1      40.001 -14.912   4.504  1.00  0.00    -0.274 N 
HETATM    3  H   UNL     1      39.204 -14.376   4.177  1.00  0.00     0.189 HD
HETATM    4  N   UNL     1      39.967 -15.405   5.758  1.00  0.00    -0.148 NA
HETATM    5  C   UNL     1      41.143 -16.007   5.857  1.00  0.00     0.199 A 
HETATM    6  C   UNL     1      41.924 -15.936   4.703  1.00  0.00     0.040 A 
HETATM    7  C   UNL     1      43.257 -16.600   4.640  1.00  0.00     0.108 A 
HETATM    8  C   UNL     1      43.631 -17.175   6.007  1.00  0.00     0.081 A 
HETATM    9  C   UNL     1      44.957 -17.684   6.144  1.00  0.00     0.100 C 
HETATM   10  N   UNL     1      46.035 -18.098   6.250  1.00  0.00    -0.191 NA
HETATM   11  C   UNL     1      42.785 -17.168   7.072  1.00  0.00     0.140 A 
HETATM   12  O   UNL     1      41.496 -16.623   6.999  1.00  0.00    -0.277 OA
ENDROOT
BRANCH   7  13
HETATM   13  C   UNL     1      43.295 -17.658   3.568  1.00  0.00    -0.020 A 
HETATM   14  C   UNL     1      42.695 -18.905   3.582  1.00  0.00     0.149 A 
HETATM   15  O   UNL     1      42.959 -19.583   2.436  1.00  0.00    -0.334 OA
HETATM   16  C   UNL     1      43.732 -18.775   1.669  1.00  0.00     0.142 A 
HETATM   17  C   UNL     1      43.968 -17.584   2.313  1.00  0.00     0.034 A 
ENDBRANCH   7  13
BRANCH  11  18
HETATM   18  N   UNL     1      43.076 -17.671   8.321  1.00  0.00    -0.282 NA
HETATM   19  H   UNL     1      43.082 -18.685   8.402  1.00  0.00     0.126 HD
HETATM   20  H   UNL     1      42.534 -17.215   9.052  1.00  0.00     0.126 HD
ENDBRANCH  11  18
BRANCH   1  21
HETATM   21  C   UNL     1      41.392 -14.781   2.435  1.00  0.00    -0.007 A 
HETATM   22  C   UNL     1      41.145 -15.654   1.372  1.00  0.00     0.016 A 
HETATM   23  C   UNL     1      41.330 -15.233   0.052  1.00  0.00     0.037 A 
HETATM   24  C   UNL     1      41.764 -13.938  -0.229  1.00  0.00     0.069 A 
HETATM   25  C   UNL     1      42.045 -13.071   0.826  1.00  0.00     0.037 A 
HETATM   26  C   UNL     1      41.854 -13.490   2.149  1.00  0.00     0.016 A 
BRANCH  24  27
HETATM   27  O   UNL     1      41.873 -13.648  -1.561  1.00  0.00    -0.347 OA
BRANCH  27  28
HETATM   28  C   UNL     1      40.822 -12.879  -2.146  1.00  0.00     0.214 C 
BRANCH  28  29
HETATM   29  C   UNL     1      39.827 -13.797  -2.819  1.00  0.00    -0.034 A 
HETATM   30  C   UNL     1      40.262 -14.993  -3.408  1.00  0.00     0.009 A 
HETATM   31  C   UNL     1      39.351 -15.859  -4.016  1.00  0.00     0.001 A 
HETATM   32  C   UNL     1      37.995 -15.546  -4.032  1.00  0.00     0.000 A 
HETATM   33  C   UNL     1      37.546 -14.369  -3.436  1.00  0.00     0.001 A 
HETATM   34  C   UNL     1      38.455 -13.502  -2.827  1.00  0.00     0.009 A 
ENDBRANCH  28  29
ENDBRANCH  27  28
ENDBRANCH  24  27
ENDBRANCH   1  21
TORSDOF 6
ENDMDL
MODEL 8
REMARK VINA RESULT:      -8.2      4.760      7.036
REMARK  6 active torsions:
REMARK  status: ('A' for Active; 'I' for Inactive)
REMARK    1  A    between atoms: C_4  and  C_5 
REMARK    2  A    between atoms: C_5  and  O_6 
REMARK    3  A    between atoms: O_6  and  C_7 
REMARK    4  A    between atoms: C_10  and  C_11 
REMARK    5  A    between atoms: C_17  and  C_18 
REMARK    6  A    between atoms: C_26  and  N_27 
ROOT
HETATM    1  C   UNL     1      42.791 -16.342   3.730  1.00  0.00     0.072 A 
HETATM    2  N   UNL     1      42.671 -17.713   3.620  1.00  0.00    -0.274 N 
HETATM    3  H   UNL     1      42.921 -18.412   4.313  1.00  0.00     0.189 HD
HETATM    4  N   UNL     1      42.174 -18.133   2.440  1.00  0.00    -0.148 NA
HETATM    5  C   UNL     1      41.991 -16.993   1.789  1.00  0.00     0.199 A 
HETATM    6  C   UNL     1      42.336 -15.854   2.517  1.00  0.00     0.040 A 
HETATM    7  C   UNL     1      42.149 -14.493   1.939  1.00  0.00     0.108 A 
HETATM    8  C   UNL     1      41.706 -14.590   0.478  1.00  0.00     0.081 A 
HETATM    9  C   UNL     1      41.660 -13.368  -0.258  1.00  0.00     0.100 C 
HETATM   10  N   UNL     1      41.624 -12.372  -0.850  1.00  0.00    -0.191 NA
HETATM   11  C   UNL     1      41.415 -15.770  -0.132  1.00  0.00     0.140 A 
HETATM   12  O   UNL     1      41.506 -16.999   0.535  1.00  0.00    -0.277 OA
ENDROOT
BRANCH   7  13
HETATM   13  C   UNL     1      41.182 -13.676   2.755  1.00  0.00    -0.020 A 
HETATM   14  C   UNL     1      39.909 -14.028   3.169  1.00  0.00     0.149 A 
HETATM   15  O   UNL     1      39.337 -13.027   3.884  1.00  0.00    -0.334 OA
HETATM   16  C   UNL     1      40.240 -12.016   3.939  1.00  0.00     0.142 A 
HETATM   17  C   UNL     1      41.386 -12.360   3.266  1.00  0.00     0.034 A 
ENDBRANCH   7  13
BRANCH  11  18
HETATM   18  N   UNL     1      41.016 -15.908  -1.444  1.00  0.00    -0.282 NA
HETATM   19  H   UNL     1      41.562 -16.555  -2.009  1.00  0.00     0.126 HD
HETATM   20  H   UNL     1      40.870 -15.008  -1.896  1.00  0.00     0.126 HD
ENDBRANCH  11  18
BRANCH   1  21
HETATM   21  C   UNL     1      43.290 -15.679   4.929  1.00  0.00    -0.007 A 
HETATM   22  C   UNL     1      43.212 -16.309   6.175  1.00  0.00     0.016 A 
HETATM   23  C   UNL     1      43.728 -15.688   7.316  1.00  0.00     0.037 A 
HETATM   24  C   UNL     1      44.328 -14.432   7.234  1.00  0.00     0.069 A 
HETATM   25  C   UNL     1      44.380 -13.783   6.002  1.00  0.00     0.037 A 
HETATM   26  C   UNL     1      43.870 -14.406   4.856  1.00  0.00     0.016 A 
BRANCH  24  27
HETATM   27  O   UNL     1      44.817 -13.954   8.418  1.00  0.00    -0.347 OA
BRANCH  27  28
HETATM   28  C   UNL     1      45.362 -12.634   8.410  1.00  0.00     0.214 C 
BRANCH  28  29
HETATM   29  C   UNL     1      44.557 -11.742   9.327  1.00  0.00    -0.034 A 
HETATM   30  C   UNL     1      45.039 -11.434  10.609  1.00  0.00     0.009 A 
HETATM   31  C   UNL     1      44.315 -10.595  11.458  1.00  0.00     0.001 A 
HETATM   32  C   UNL     1      43.108 -10.046  11.034  1.00  0.00     0.000 A 
HETATM   33  C   UNL     1      42.625 -10.330   9.758  1.00  0.00     0.001 A 
HETATM   34  C   UNL     1      43.348 -11.167   8.907  1.00  0.00     0.009 A 
ENDBRANCH  28  29
ENDBRANCH  27  28
ENDBRANCH  24  27
ENDBRANCH   1  21
TORSDOF 6
ENDMDL
MODEL 9
REMARK VINA RESULT:      -8.1      3.813      8.817
REMARK  6 active torsions:
REMARK  status: ('A' for Active; 'I' for Inactive)
REMARK    1  A    between atoms: C_4  and  C_5 
REMARK    2  A    between atoms: C_5  and  O_6 
REMARK    3  A    between atoms: O_6  and  C_7 
REMARK    4  A    between atoms: C_10  and  C_11 
REMARK    5  A    between atoms: C_17  and  C_18 
REMARK    6  A    between atoms: C_26  and  N_27 
ROOT
HETATM    1  C   UNL     1      42.928 -18.009   2.798  1.00  0.00     0.072 A 
HETATM    2  N   UNL     1      43.565 -18.353   1.622  1.00  0.00    -0.274 N 
HETATM    3  H   UNL     1      43.459 -17.917   0.711  1.00  0.00     0.189 HD
HETATM    4  N   UNL     1      44.408 -19.398   1.734  1.00  0.00    -0.148 NA
HETATM    5  C   UNL     1      44.284 -19.726   3.012  1.00  0.00     0.199 A 
HETATM    6  C   UNL     1      43.404 -18.915   3.730  1.00  0.00     0.040 A 
HETATM    7  C   UNL     1      43.187 -19.128   5.189  1.00  0.00     0.108 A 
HETATM    8  C   UNL     1      43.917 -20.388   5.659  1.00  0.00     0.081 A 
HETATM    9  C   UNL     1      43.654 -20.817   6.994  1.00  0.00     0.100 C 
HETATM   10  N   UNL     1      43.438 -21.161   8.080  1.00  0.00    -0.191 NA
HETATM   11  C   UNL     1      44.739 -21.112   4.853  1.00  0.00     0.140 A 
HETATM   12  O   UNL     1      44.976 -20.761   3.518  1.00  0.00    -0.277 OA
ENDROOT
BRANCH   7  13
HETATM   13  C   UNL     1      43.600 -17.921   5.989  1.00  0.00    -0.020 A 
HETATM   14  C   UNL     1      44.862 -17.365   6.101  1.00  0.00     0.149 A 
HETATM   15  O   UNL     1      44.845 -16.283   6.920  1.00  0.00    -0.334 OA
HETATM   16  C   UNL     1      43.566 -16.129   7.343  1.00  0.00     0.142 A 
HETATM   17  C   UNL     1      42.762 -17.103   6.804  1.00  0.00     0.034 A 
ENDBRANCH   7  13
BRANCH  11  18
HETATM   18  N   UNL     1      45.415 -22.253   5.229  1.00  0.00    -0.282 NA
HETATM   19  H   UNL     1      46.425 -22.233   5.103  1.00  0.00     0.126 HD
HETATM   20  H   UNL     1      44.983 -23.094   4.853  1.00  0.00     0.126 HD
ENDBRANCH  11  18
BRANCH   1  21
HETATM   21  C   UNL     1      41.991 -16.897   2.900  1.00  0.00    -0.007 A 
HETATM   22  C   UNL     1      42.382 -15.689   3.486  1.00  0.00     0.016 A 
HETATM   23  C   UNL     1      41.494 -14.611   3.546  1.00  0.00     0.037 A 
HETATM   24  C   UNL     1      40.205 -14.719   3.024  1.00  0.00     0.069 A 
HETATM   25  C   UNL     1      39.797 -15.930   2.467  1.00  0.00     0.037 A 
HETATM   26  C   UNL     1      40.687 -17.009   2.401  1.00  0.00     0.016 A 
BRANCH  24  27
HETATM   27  O   UNL     1      39.452 -13.582   3.120  1.00  0.00    -0.347 OA
BRANCH  27  28
HETATM   28  C   UNL     1      39.747 -12.528   2.203  1.00  0.00     0.214 C 
BRANCH  28  29
HETATM   29  C   UNL     1      39.500 -12.996   0.787  1.00  0.00    -0.034 A 
HETATM   30  C   UNL     1      40.580 -13.197  -0.086  1.00  0.00     0.009 A 
HETATM   31  C   UNL     1      40.366 -13.647  -1.390  1.00  0.00     0.001 A 
HETATM   32  C   UNL     1      39.074 -13.912  -1.834  1.00  0.00     0.000 A 
HETATM   33  C   UNL     1      37.993 -13.733  -0.973  1.00  0.00     0.001 A 
HETATM   34  C   UNL     1      38.204 -13.283   0.331  1.00  0.00     0.009 A 
ENDBRANCH  28  29
ENDBRANCH  27  28
ENDBRANCH  24  27
ENDBRANCH   1  21
TORSDOF 6
ENDMDL
MODEL 10
REMARK VINA RESULT:      -8.1      3.119      3.802
REMARK  6 active torsions:
REMARK  status: ('A' for Active; 'I' for Inactive)
REMARK    1  A    between atoms: C_4  and  C_5 
REMARK    2  A    between atoms: C_5  and  O_6 
REMARK    3  A    between atoms: O_6  and  C_7 
REMARK    4  A    between atoms: C_10  and  C_11 
REMARK    5  A    between atoms: C_17  and  C_18 
REMARK    6  A    between atoms: C_26  and  N_27 
ROOT
HETATM    1  C   UNL     1      39.485 -14.460   1.656  1.00  0.00     0.072 A 
HETATM    2  N   UNL     1      38.327 -14.920   1.060  1.00  0.00    -0.274 N 
HETATM    3  H   UNL     1      38.127 -15.865   0.746  1.00  0.00     0.189 HD
HETATM    4  N   UNL     1      37.382 -13.976   0.882  1.00  0.00    -0.148 NA
HETATM    5  C   UNL     1      37.971 -12.892   1.366  1.00  0.00     0.199 A 
HETATM    6  C   UNL     1      39.254 -13.111   1.868  1.00  0.00     0.040 A 
HETATM    7  C   UNL     1      40.033 -12.001   2.486  1.00  0.00     0.108 A 
HETATM    8  C   UNL     1      39.288 -10.674   2.327  1.00  0.00     0.081 A 
HETATM    9  C   UNL     1      39.994  -9.496   2.713  1.00  0.00     0.100 C 
HETATM   10  N   UNL     1      40.572  -8.542   3.028  1.00  0.00    -0.191 NA
HETATM   11  C   UNL     1      38.038 -10.584   1.800  1.00  0.00     0.140 A 
HETATM   12  O   UNL     1      37.333 -11.709   1.353  1.00  0.00    -0.277 OA
ENDROOT
BRANCH   7  13
HETATM   13  C   UNL     1      40.348 -12.287   3.931  1.00  0.00    -0.020 A 
HETATM   14  C   UNL     1      41.589 -12.325   4.541  1.00  0.00     0.149 A 
HETATM   15  O   UNL     1      41.474 -12.623   5.859  1.00  0.00    -0.334 OA
HETATM   16  C   UNL     1      40.151 -12.778   6.114  1.00  0.00     0.142 A 
HETATM   17  C   UNL     1      39.416 -12.583   4.970  1.00  0.00     0.034 A 
ENDBRANCH   7  13
BRANCH  11  18
HETATM   18  N   UNL     1      37.328  -9.415   1.635  1.00  0.00    -0.282 NA
HETATM   19  H   UNL     1      36.421  -9.376   2.094  1.00  0.00     0.126 HD
HETATM   20  H   UNL     1      37.295  -9.123   0.660  1.00  0.00     0.126 HD
ENDBRANCH  11  18
BRANCH   1  21
HETATM   21  C   UNL     1      40.622 -15.321   1.956  1.00  0.00    -0.007 A 
HETATM   22  C   UNL     1      40.848 -15.773   3.260  1.00  0.00     0.016 A 
HETATM   23  C   UNL     1      41.916 -16.631   3.537  1.00  0.00     0.037 A 
HETATM   24  C   UNL     1      42.775 -17.051   2.521  1.00  0.00     0.069 A 
HETATM   25  C   UNL     1      42.577 -16.578   1.225  1.00  0.00     0.037 A 
HETATM   26  C   UNL     1      41.503 -15.724   0.944  1.00  0.00     0.016 A 
BRANCH  24  27
HETATM   27  O   UNL     1      43.758 -17.912   2.924  1.00  0.00    -0.347 OA
BRANCH  27  28
HETATM   28  C   UNL     1      43.980 -19.067   2.114  1.00  0.00     0.214 C 
BRANCH  28  29
HETATM   29  C   UNL     1      44.283 -20.259   2.992  1.00  0.00    -0.034 A 
HETATM   30  C   UNL     1      44.460 -20.087   4.374  1.00  0.00     0.009 A 
HETATM   31  C   UNL     1      44.721 -21.182   5.199  1.00  0.00     0.001 A 
HETATM   32  C   UNL     1      44.798 -22.462   4.657  1.00  0.00     0.000 A 
HETATM   33  C   UNL     1      44.609 -22.650   3.289  1.00  0.00     0.001 A 
HETATM   34  C   UNL     1      44.347 -21.557   2.462  1.00  0.00     0.009 A 
ENDBRANCH  28  29
ENDBRANCH  27  28
ENDBRANCH  24  27
ENDBRANCH   1  21
TORSDOF 6
ENDMDL
