MODEL 1
REMARK VINA RESULT:      -8.1      0.000      0.000
REMARK  10 active torsions:
REMARK  status: ('A' for Active; 'I' for Inactive)
REMARK    1  A    between atoms: C_2  and  N_3 
REMARK    2  A    between atoms: N_3  and  C_5 
REMARK    3  A    between atoms: N_3  and  C_35 
REMARK    4  A    between atoms: C_5  and  C_6 
REMARK    5  A    between atoms: C_6  and  N_7 
REMARK       I    between atoms: N_7  and  C_8 
REMARK    6  A    between atoms: C_8  and  C_9 
REMARK    7  A    between atoms: N_15  and  C_16 
REMARK    8  A    between atoms: C_16  and  C_17 
REMARK       I    between atoms: C_17  and  N_18 
REMARK    9  A    between atoms: N_18  and  C_19 
REMARK   10  A    between atoms: C_21  and  C_22 
ROOT
HETATM    1  C   UNL     1      41.099 -13.352   3.124  1.00  0.00     0.081 A 
HETATM    2  S   UNL     1      42.189 -12.713   4.286  1.00  0.00    -0.063 SA
HETATM    3  C   UNL     1      42.288 -14.184   5.124  1.00  0.00     0.116 A 
HETATM    4  C   UNL     1      41.489 -15.154   4.559  1.00  0.00     0.075 A 
HETATM    5  C   UNL     1      41.541 -16.484   5.157  1.00  0.00     0.262 C 
HETATM    6  O   UNL     1      40.825 -17.411   4.785  1.00  0.00    -0.267 OA
HETATM    7  N   UNL     1      42.500 -16.621   6.153  1.00  0.00    -0.299 N 
HETATM    8  C   UNL     1      43.186 -15.531   6.653  1.00  0.00     0.214 C 
HETATM    9  N   UNL     1      43.109 -14.324   6.193  1.00  0.00    -0.235 NA
HETATM   10  C   UNL     1      40.765 -14.679   3.397  1.00  0.00    -0.021 A 
HETATM   11  C   UNL     1      39.855 -15.539   2.574  1.00  0.00     0.051 C 
ENDROOT
BRANCH   7  12
HETATM   12  C   UNL     1      42.773 -17.953   6.669  1.00  0.00     0.236 C 
BRANCH  12  13
HETATM   13  C   UNL     1      44.266 -18.279   6.619  1.00  0.00     0.240 C 
HETATM   14  N   UNL     1      44.887 -18.384   5.401  1.00  0.00    -0.326 N 
HETATM   15  H   UNL     1      45.886 -18.213   5.451  1.00  0.00     0.169 HD
HETATM   16  O   UNL     1      44.961 -18.248   7.638  1.00  0.00    -0.271 OA
BRANCH  14  17
HETATM   17  C   UNL     1      44.365 -18.703   4.138  1.00  0.00     0.035 A 
HETATM   18  C   UNL     1      44.247 -20.017   3.676  1.00  0.00     0.045 A 
HETATM   19  C   UNL     1      43.752 -20.285   2.388  1.00  0.00     0.050 A 
HETATM   20  C   UNL     1      43.379 -19.212   1.565  1.00  0.00     0.016 A 
HETATM   21  C   UNL     1      43.532 -17.899   2.007  1.00  0.00     0.003 A 
HETATM   22  C   UNL     1      44.047 -17.647   3.281  1.00  0.00     0.029 A 
BRANCH  19  23
HETATM   23  C   UNL     1      43.638 -21.701   1.873  1.00  0.00     0.417 C 
HETATM   24  F   UNL     1      42.373 -22.047   1.506  1.00  0.00    -0.166 F 
HETATM   25  F   UNL     1      44.414 -21.915   0.776  1.00  0.00    -0.166 F 
HETATM   26  F   UNL     1      44.024 -22.625   2.795  1.00  0.00    -0.166 F 
ENDBRANCH  19  23
ENDBRANCH  14  17
ENDBRANCH  12  13
ENDBRANCH   7  12
BRANCH   1  27
HETATM   27  C   UNL     1      40.736 -12.478   2.017  1.00  0.00     0.259 C 
HETATM   28  N   UNL     1      41.568 -12.508   0.911  1.00  0.00    -0.355 N 
HETATM   29  H   UNL     1      42.149 -13.332   0.796  1.00  0.00     0.162 HD
HETATM   30  O   UNL     1      39.774 -11.709   2.017  1.00  0.00    -0.267 OA
BRANCH  28  31
HETATM   31  C   UNL     1      41.299 -11.657  -0.235  1.00  0.00     0.150 C 
BRANCH  31  32
HETATM   32  C   UNL     1      40.772 -12.449  -1.452  1.00  0.00     0.254 C 
BRANCH  32  33
HETATM   33  N   UNL     1      40.151 -13.797  -1.107  1.00  0.00    -0.070 N 
HETATM   34  H   UNL     1      40.262 -13.881  -0.087  1.00  0.00     0.279 HD
BRANCH  33  35
HETATM   35  C   UNL     1      40.892 -14.992  -1.683  1.00  0.00     0.230 C 
HETATM   36  C   UNL     1      41.367 -15.935  -0.593  1.00  0.00     0.034 C 
ENDBRANCH  33  35
BRANCH  33  37
HETATM   37  C   UNL     1      38.661 -13.904  -1.364  1.00  0.00     0.230 C 
HETATM   38  C   UNL     1      37.863 -13.804  -0.076  1.00  0.00     0.034 C 
ENDBRANCH  33  37
ENDBRANCH  32  33
ENDBRANCH  31  32
ENDBRANCH  28  31
ENDBRANCH   1  27
TORSDOF 10
ENDMDL
MODEL 2
REMARK VINA RESULT:      -8.0      1.855      2.727
REMARK  10 active torsions:
REMARK  status: ('A' for Active; 'I' for Inactive)
REMARK    1  A    between atoms: C_2  and  N_3 
REMARK    2  A    between atoms: N_3  and  C_5 
REMARK    3  A    between atoms: N_3  and  C_35 
REMARK    4  A    between atoms: C_5  and  C_6 
REMARK    5  A    between atoms: C_6  and  N_7 
REMARK       I    between atoms: N_7  and  C_8 
REMARK    6  A    between atoms: C_8  and  C_9 
REMARK    7  A    between atoms: N_15  and  C_16 
REMARK    8  A    between atoms: C_16  and  C_17 
REMARK       I    between atoms: C_17  and  N_18 
REMARK    9  A    between atoms: N_18  and  C_19 
REMARK   10  A    between atoms: C_21  and  C_22 
ROOT
HETATM    1  C   UNL     1      40.021 -13.779   1.350  1.00  0.00     0.081 A 
HETATM    2  S   UNL     1      39.472 -13.128   2.840  1.00  0.00    -0.063 SA
HETATM    3  C   UNL     1      40.029 -14.464   3.724  1.00  0.00     0.116 A 
HETATM    4  C   UNL     1      40.604 -15.416   2.912  1.00  0.00     0.075 A 
HETATM    5  C   UNL     1      41.178 -16.585   3.569  1.00  0.00     0.262 C 
HETATM    6  O   UNL     1      41.656 -17.532   2.949  1.00  0.00    -0.267 OA
HETATM    7  N   UNL     1      41.176 -16.514   4.957  1.00  0.00    -0.299 N 
HETATM    8  C   UNL     1      40.502 -15.514   5.630  1.00  0.00     0.214 C 
HETATM    9  N   UNL     1      39.920 -14.501   5.075  1.00  0.00    -0.235 NA
HETATM   10  C   UNL     1      40.588 -15.044   1.512  1.00  0.00    -0.021 A 
HETATM   11  C   UNL     1      41.183 -15.882   0.421  1.00  0.00     0.051 C 
ENDROOT
BRANCH   7  12
HETATM   12  C   UNL     1      41.906 -17.529   5.701  1.00  0.00     0.236 C 
BRANCH  12  13
HETATM   13  C   UNL     1      43.355 -17.109   5.948  1.00  0.00     0.240 C 
HETATM   14  N   UNL     1      44.368 -17.830   5.371  1.00  0.00    -0.326 N 
HETATM   15  H   UNL     1      45.221 -17.292   5.257  1.00  0.00     0.169 HD
HETATM   16  O   UNL     1      43.625 -16.029   6.481  1.00  0.00    -0.271 OA
BRANCH  14  17
HETATM   17  C   UNL     1      44.407 -19.167   4.947  1.00  0.00     0.035 A 
HETATM   18  C   UNL     1      44.201 -19.547   3.617  1.00  0.00     0.045 A 
HETATM   19  C   UNL     1      44.213 -20.903   3.245  1.00  0.00     0.050 A 
HETATM   20  C   UNL     1      44.431 -21.876   4.231  1.00  0.00     0.016 A 
HETATM   21  C   UNL     1      44.597 -21.504   5.564  1.00  0.00     0.003 A 
HETATM   22  C   UNL     1      44.561 -20.155   5.922  1.00  0.00     0.029 A 
BRANCH  19  23
HETATM   23  C   UNL     1      43.973 -21.323   1.815  1.00  0.00     0.417 C 
HETATM   24  F   UNL     1      44.882 -22.226   1.353  1.00  0.00    -0.166 F 
HETATM   25  F   UNL     1      42.754 -21.904   1.645  1.00  0.00    -0.166 F 
HETATM   26  F   UNL     1      44.016 -20.275   0.947  1.00  0.00    -0.166 F 
ENDBRANCH  19  23
ENDBRANCH  14  17
ENDBRANCH  12  13
ENDBRANCH   7  12
BRANCH   1  27
HETATM   27  C   UNL     1      39.886 -12.930   0.175  1.00  0.00     0.259 C 
HETATM   28  N   UNL     1      38.845 -13.235  -0.687  1.00  0.00    -0.355 N 
HETATM   29  H   UNL     1      38.076 -13.776  -0.304  1.00  0.00     0.162 HD
HETATM   30  O   UNL     1      40.641 -12.001  -0.110  1.00  0.00    -0.267 OA
BRANCH  28  31
HETATM   31  C   UNL     1      38.641 -12.458  -1.897  1.00  0.00     0.150 C 
BRANCH  31  32
HETATM   32  C   UNL     1      38.439 -13.346  -3.145  1.00  0.00     0.254 C 
BRANCH  32  33
HETATM   33  N   UNL     1      39.732 -13.821  -3.797  1.00  0.00    -0.070 N 
HETATM   34  H   UNL     1      39.539 -13.794  -4.808  1.00  0.00     0.279 HD
BRANCH  33  35
HETATM   35  C   UNL     1      40.084 -15.270  -3.503  1.00  0.00     0.230 C 
HETATM   36  C   UNL     1      39.030 -16.223  -4.036  1.00  0.00     0.034 C 
ENDBRANCH  33  35
BRANCH  33  37
HETATM   37  C   UNL     1      40.930 -12.915  -3.589  1.00  0.00     0.230 C 
HETATM   38  C   UNL     1      42.067 -13.643  -2.896  1.00  0.00     0.034 C 
ENDBRANCH  33  37
ENDBRANCH  32  33
ENDBRANCH  31  32
ENDBRANCH  28  31
ENDBRANCH   1  27
TORSDOF 10
ENDMDL
MODEL 3
REMARK VINA RESULT:      -8.0      1.576      2.091
REMARK  10 active torsions:
REMARK  status: ('A' for Active; 'I' for Inactive)
REMARK    1  A    between atoms: C_2  and  N_3 
REMARK    2  A    between atoms: N_3  and  C_5 
REMARK    3  A    between atoms: N_3  and  C_35 
REMARK    4  A    between atoms: C_5  and  C_6 
REMARK    5  A    between atoms: C_6  and  N_7 
REMARK       I    between atoms: N_7  and  C_8 
REMARK    6  A    between atoms: C_8  and  C_9 
REMARK    7  A    between atoms: N_15  and  C_16 
REMARK    8  A    between atoms: C_16  and  C_17 
REMARK       I    between atoms: C_17  and  N_18 
REMARK    9  A    between atoms: N_18  and  C_19 
REMARK   10  A    between atoms: C_21  and  C_22 
ROOT
HETATM    1  C   UNL     1      41.412 -13.690   3.297  1.00  0.00     0.081 A 
HETATM    2  S   UNL     1      42.486 -13.091   4.494  1.00  0.00    -0.063 SA
HETATM    3  C   UNL     1      42.489 -14.559   5.344  1.00  0.00     0.116 A 
HETATM    4  C   UNL     1      41.670 -15.496   4.756  1.00  0.00     0.075 A 
HETATM    5  C   UNL     1      41.641 -16.823   5.363  1.00  0.00     0.262 C 
HETATM    6  O   UNL     1      40.898 -17.720   4.971  1.00  0.00    -0.267 OA
HETATM    7  N   UNL     1      42.556 -16.994   6.395  1.00  0.00    -0.299 N 
HETATM    8  C   UNL     1      43.270 -15.932   6.913  1.00  0.00     0.214 C 
HETATM    9  N   UNL     1      43.264 -14.727   6.443  1.00  0.00    -0.235 NA
HETATM   10  C   UNL     1      41.010 -14.999   3.565  1.00  0.00    -0.021 A 
HETATM   11  C   UNL     1      40.094 -15.825   2.714  1.00  0.00     0.051 C 
ENDROOT
BRANCH   7  12
HETATM   12  C   UNL     1      42.750 -18.334   6.929  1.00  0.00     0.236 C 
BRANCH  12  13
HETATM   13  C   UNL     1      44.235 -18.669   7.073  1.00  0.00     0.240 C 
HETATM   14  N   UNL     1      44.995 -18.839   5.944  1.00  0.00    -0.326 N 
HETATM   15  H   UNL     1      45.983 -18.671   6.104  1.00  0.00     0.169 HD
HETATM   16  O   UNL     1      44.805 -18.591   8.165  1.00  0.00    -0.271 OA
BRANCH  14  17
HETATM   17  C   UNL     1      44.623 -19.219   4.645  1.00  0.00     0.035 A 
HETATM   18  C   UNL     1      44.140 -18.310   3.698  1.00  0.00     0.045 A 
HETATM   19  C   UNL     1      43.746 -18.744   2.421  1.00  0.00     0.050 A 
HETATM   20  C   UNL     1      43.839 -20.108   2.106  1.00  0.00     0.016 A 
HETATM   21  C   UNL     1      44.283 -21.021   3.060  1.00  0.00     0.003 A 
HETATM   22  C   UNL     1      44.650 -20.580   4.333  1.00  0.00     0.029 A 
BRANCH  19  23
HETATM   23  C   UNL     1      43.205 -17.772   1.398  1.00  0.00     0.417 C 
HETATM   24  F   UNL     1      43.848 -17.831   0.199  1.00  0.00    -0.166 F 
HETATM   25  F   UNL     1      41.890 -17.989   1.124  1.00  0.00    -0.166 F 
HETATM   26  F   UNL     1      43.297 -16.477   1.806  1.00  0.00    -0.166 F 
ENDBRANCH  19  23
ENDBRANCH  14  17
ENDBRANCH  12  13
ENDBRANCH   7  12
BRANCH   1  27
HETATM   27  C   UNL     1      41.129 -12.809   2.172  1.00  0.00     0.259 C 
HETATM   28  N   UNL     1      42.183 -12.549   1.313  1.00  0.00    -0.355 N 
HETATM   29  H   UNL     1      42.951 -13.212   1.316  1.00  0.00     0.162 HD
HETATM   30  O   UNL     1      40.042 -12.270   1.961  1.00  0.00    -0.267 OA
BRANCH  28  31
HETATM   31  C   UNL     1      42.003 -11.666   0.175  1.00  0.00     0.150 C 
BRANCH  31  32
HETATM   32  C   UNL     1      41.648 -12.431  -1.120  1.00  0.00     0.254 C 
BRANCH  32  33
HETATM   33  N   UNL     1      40.170 -12.767  -1.268  1.00  0.00    -0.070 N 
HETATM   34  H   UNL     1      39.706 -12.245  -0.511  1.00  0.00     0.279 HD
BRANCH  33  35
HETATM   35  C   UNL     1      39.830 -14.225  -1.005  1.00  0.00     0.230 C 
HETATM   36  C   UNL     1      41.079 -15.082  -0.907  1.00  0.00     0.034 C 
ENDBRANCH  33  35
BRANCH  33  37
HETATM   37  C   UNL     1      39.524 -12.280  -2.551  1.00  0.00     0.230 C 
HETATM   38  C   UNL     1      38.589 -13.322  -3.137  1.00  0.00     0.034 C 
ENDBRANCH  33  37
ENDBRANCH  32  33
ENDBRANCH  31  32
ENDBRANCH  28  31
ENDBRANCH   1  27
TORSDOF 10
ENDMDL
MODEL 4
REMARK VINA RESULT:      -7.9      3.905      7.026
REMARK  10 active torsions:
REMARK  status: ('A' for Active; 'I' for Inactive)
REMARK    1  A    between atoms: C_2  and  N_3 
REMARK    2  A    between atoms: N_3  and  C_5 
REMARK    3  A    between atoms: N_3  and  C_35 
REMARK    4  A    between atoms: C_5  and  C_6 
REMARK    5  A    between atoms: C_6  and  N_7 
REMARK       I    between atoms: N_7  and  C_8 
REMARK    6  A    between atoms: C_8  and  C_9 
REMARK    7  A    between atoms: N_15  and  C_16 
REMARK    8  A    between atoms: C_16  and  C_17 
REMARK       I    between atoms: C_17  and  N_18 
REMARK    9  A    between atoms: N_18  and  C_19 
REMARK   10  A    between atoms: C_21  and  C_22 
ROOT
HETATM    1  C   UNL     1      41.375 -11.846   5.867  1.00  0.00     0.081 A 
HETATM    2  S   UNL     1      40.006 -11.671   4.847  1.00  0.00    -0.063 SA
HETATM    3  C   UNL     1      40.341 -13.108   4.012  1.00  0.00     0.116 A 
HETATM    4  C   UNL     1      41.489 -13.715   4.469  1.00  0.00     0.075 A 
HETATM    5  C   UNL     1      41.845 -14.996   3.868  1.00  0.00     0.262 C 
HETATM    6  O   UNL     1      42.880 -15.598   4.143  1.00  0.00    -0.267 OA
HETATM    7  N   UNL     1      40.890 -15.494   2.989  1.00  0.00    -0.299 N 
HETATM    8  C   UNL     1      39.811 -14.733   2.584  1.00  0.00     0.214 C 
HETATM    9  N   UNL     1      39.507 -13.563   3.045  1.00  0.00    -0.235 NA
HETATM   10  C   UNL     1      42.125 -12.978   5.542  1.00  0.00    -0.021 A 
HETATM   11  C   UNL     1      43.368 -13.435   6.245  1.00  0.00     0.051 C 
ENDROOT
BRANCH   7  12
HETATM   12  C   UNL     1      41.050 -16.853   2.494  1.00  0.00     0.236 C 
BRANCH  12  13
HETATM   13  C   UNL     1      42.023 -16.908   1.316  1.00  0.00     0.240 C 
HETATM   14  N   UNL     1      42.911 -17.950   1.230  1.00  0.00    -0.326 N 
HETATM   15  H   UNL     1      43.224 -18.125   0.281  1.00  0.00     0.169 HD
HETATM   16  O   UNL     1      41.893 -16.158   0.344  1.00  0.00    -0.271 OA
BRANCH  14  17
HETATM   17  C   UNL     1      43.449 -18.772   2.232  1.00  0.00     0.035 A 
HETATM   18  C   UNL     1      43.745 -18.307   3.516  1.00  0.00     0.045 A 
HETATM   19  C   UNL     1      44.318 -19.160   4.476  1.00  0.00     0.050 A 
HETATM   20  C   UNL     1      44.594 -20.490   4.127  1.00  0.00     0.016 A 
HETATM   21  C   UNL     1      44.336 -20.946   2.835  1.00  0.00     0.003 A 
HETATM   22  C   UNL     1      43.788 -20.082   1.885  1.00  0.00     0.029 A 
BRANCH  19  23
HETATM   23  C   UNL     1      44.658 -18.662   5.861  1.00  0.00     0.417 C 
HETATM   24  F   UNL     1      43.923 -17.582   6.246  1.00  0.00    -0.166 F 
HETATM   25  F   UNL     1      44.452 -19.609   6.816  1.00  0.00    -0.166 F 
HETATM   26  F   UNL     1      45.961 -18.286   5.977  1.00  0.00    -0.166 F 
ENDBRANCH  19  23
ENDBRANCH  14  17
ENDBRANCH  12  13
ENDBRANCH   7  12
BRANCH   1  27
HETATM   27  C   UNL     1      41.529 -10.866   6.933  1.00  0.00     0.259 C 
HETATM   28  N   UNL     1      41.237 -11.300   8.215  1.00  0.00    -0.355 N 
HETATM   29  H   UNL     1      41.265 -12.301   8.377  1.00  0.00     0.162 HD
HETATM   30  O   UNL     1      41.863  -9.693   6.763  1.00  0.00    -0.267 OA
BRANCH  28  31
HETATM   31  C   UNL     1      41.340 -10.389   9.341  1.00  0.00     0.150 C 
BRANCH  31  32
HETATM   32  C   UNL     1      42.745 -10.397   9.984  1.00  0.00     0.254 C 
BRANCH  32  33
HETATM   33  N   UNL     1      43.094 -11.684  10.721  1.00  0.00    -0.070 N 
HETATM   34  H   UNL     1      42.335 -12.337  10.480  1.00  0.00     0.279 HD
BRANCH  33  35
HETATM   35  C   UNL     1      43.046 -11.569  12.237  1.00  0.00     0.230 C 
HETATM   36  C   UNL     1      43.369 -10.162  12.702  1.00  0.00     0.034 C 
ENDBRANCH  33  35
BRANCH  33  37
HETATM   37  C   UNL     1      44.371 -12.362  10.266  1.00  0.00     0.230 C 
HETATM   38  C   UNL     1      45.405 -11.352   9.803  1.00  0.00     0.034 C 
ENDBRANCH  33  37
ENDBRANCH  32  33
ENDBRANCH  31  32
ENDBRANCH  28  31
ENDBRANCH   1  27
TORSDOF 10
ENDMDL
MODEL 5
REMARK VINA RESULT:      -7.8      3.920      7.564
REMARK  10 active torsions:
REMARK  status: ('A' for Active; 'I' for Inactive)
REMARK    1  A    between atoms: C_2  and  N_3 
REMARK    2  A    between atoms: N_3  and  C_5 
REMARK    3  A    between atoms: N_3  and  C_35 
REMARK    4  A    between atoms: C_5  and  C_6 
REMARK    5  A    between atoms: C_6  and  N_7 
REMARK       I    between atoms: N_7  and  C_8 
REMARK    6  A    between atoms: C_8  and  C_9 
REMARK    7  A    between atoms: N_15  and  C_16 
REMARK    8  A    between atoms: C_16  and  C_17 
REMARK       I    between atoms: C_17  and  N_18 
REMARK    9  A    between atoms: N_18  and  C_19 
REMARK   10  A    between atoms: C_21  and  C_22 
ROOT
HETATM    1  C   UNL     1      40.680 -11.796   5.635  1.00  0.00     0.081 A 
HETATM    2  S   UNL     1      39.570 -11.065   4.550  1.00  0.00    -0.063 SA
HETATM    3  C   UNL     1      40.325 -11.743   3.191  1.00  0.00     0.116 A 
HETATM    4  C   UNL     1      41.425 -12.497   3.534  1.00  0.00     0.075 A 
HETATM    5  C   UNL     1      42.120 -13.184   2.451  1.00  0.00     0.262 C 
HETATM    6  O   UNL     1      43.152 -13.828   2.623  1.00  0.00    -0.267 OA
HETATM    7  N   UNL     1      41.490 -13.080   1.217  1.00  0.00    -0.299 N 
HETATM    8  C   UNL     1      40.418 -12.231   1.020  1.00  0.00     0.214 C 
HETATM    9  N   UNL     1      39.823 -11.552   1.946  1.00  0.00    -0.235 NA
HETATM   10  C   UNL     1      41.665 -12.522   4.963  1.00  0.00    -0.021 A 
HETATM   11  C   UNL     1      42.774 -13.297   5.608  1.00  0.00     0.051 C 
ENDROOT
BRANCH   7  12
HETATM   12  C   UNL     1      41.987 -13.893   0.118  1.00  0.00     0.236 C 
BRANCH  12  13
HETATM   13  C   UNL     1      40.949 -14.922  -0.332  1.00  0.00     0.240 C 
HETATM   14  N   UNL     1      40.770 -16.061   0.412  1.00  0.00    -0.326 N 
HETATM   15  H   UNL     1      39.851 -16.473   0.288  1.00  0.00     0.169 HD
HETATM   16  O   UNL     1      40.135 -14.662  -1.222  1.00  0.00    -0.271 OA
BRANCH  14  17
HETATM   17  C   UNL     1      41.650 -16.731   1.276  1.00  0.00     0.035 A 
HETATM   18  C   UNL     1      41.370 -16.939   2.630  1.00  0.00     0.045 A 
HETATM   19  C   UNL     1      42.299 -17.584   3.466  1.00  0.00     0.050 A 
HETATM   20  C   UNL     1      43.518 -18.015   2.923  1.00  0.00     0.016 A 
HETATM   21  C   UNL     1      43.816 -17.774   1.583  1.00  0.00     0.003 A 
HETATM   22  C   UNL     1      42.894 -17.112   0.770  1.00  0.00     0.029 A 
BRANCH  19  23
HETATM   23  C   UNL     1      42.013 -17.797   4.934  1.00  0.00     0.417 C 
HETATM   24  F   UNL     1      42.402 -16.756   5.720  1.00  0.00    -0.166 F 
HETATM   25  F   UNL     1      40.686 -17.973   5.181  1.00  0.00    -0.166 F 
HETATM   26  F   UNL     1      42.639 -18.897   5.435  1.00  0.00    -0.166 F 
ENDBRANCH  19  23
ENDBRANCH  14  17
ENDBRANCH  12  13
ENDBRANCH   7  12
BRANCH   1  27
HETATM   27  C   UNL     1      40.418 -11.622   7.057  1.00  0.00     0.259 C 
HETATM   28  N   UNL     1      41.402 -10.980   7.790  1.00  0.00    -0.355 N 
HETATM   29  H   UNL     1      42.053 -10.398   7.272  1.00  0.00     0.162 HD
HETATM   30  O   UNL     1      39.412 -12.029   7.640  1.00  0.00    -0.267 OA
BRANCH  28  31
HETATM   31  C   UNL     1      41.241 -10.778   9.218  1.00  0.00     0.150 C 
BRANCH  31  32
HETATM   32  C   UNL     1      42.591 -10.606   9.950  1.00  0.00     0.254 C 
BRANCH  32  33
HETATM   33  N   UNL     1      42.921 -11.721  10.934  1.00  0.00    -0.070 N 
HETATM   34  H   UNL     1      42.279 -12.486  10.686  1.00  0.00     0.279 HD
BRANCH  33  35
HETATM   35  C   UNL     1      42.599 -11.392  12.383  1.00  0.00     0.230 C 
HETATM   36  C   UNL     1      43.301 -10.126  12.839  1.00  0.00     0.034 C 
ENDBRANCH  33  35
BRANCH  33  37
HETATM   37  C   UNL     1      44.315 -12.303  10.805  1.00  0.00     0.230 C 
HETATM   38  C   UNL     1      45.234 -11.384  10.019  1.00  0.00     0.034 C 
ENDBRANCH  33  37
ENDBRANCH  32  33
ENDBRANCH  31  32
ENDBRANCH  28  31
ENDBRANCH   1  27
TORSDOF 10
ENDMDL
MODEL 6
REMARK VINA RESULT:      -7.8      1.717      2.406
REMARK  10 active torsions:
REMARK  status: ('A' for Active; 'I' for Inactive)
REMARK    1  A    between atoms: C_2  and  N_3 
REMARK    2  A    between atoms: N_3  and  C_5 
REMARK    3  A    between atoms: N_3  and  C_35 
REMARK    4  A    between atoms: C_5  and  C_6 
REMARK    5  A    between atoms: C_6  and  N_7 
REMARK       I    between atoms: N_7  and  C_8 
REMARK    6  A    between atoms: C_8  and  C_9 
REMARK    7  A    between atoms: N_15  and  C_16 
REMARK    8  A    between atoms: C_16  and  C_17 
REMARK       I    between atoms: C_17  and  N_18 
REMARK    9  A    between atoms: N_18  and  C_19 
REMARK   10  A    between atoms: C_21  and  C_22 
ROOT
HETATM    1  C   UNL     1      41.294 -12.911   1.586  1.00  0.00     0.081 A 
HETATM    2  S   UNL     1      41.420 -12.176   3.132  1.00  0.00    -0.063 SA
HETATM    3  C   UNL     1      41.202 -13.651   3.941  1.00  0.00     0.116 A 
HETATM    4  C   UNL     1      41.009 -14.696   3.066  1.00  0.00     0.075 A 
HETATM    5  C   UNL     1      40.874 -16.028   3.646  1.00  0.00     0.262 C 
HETATM    6  O   UNL     1      40.629 -17.027   2.973  1.00  0.00    -0.267 OA
HETATM    7  N   UNL     1      41.089 -16.073   5.018  1.00  0.00    -0.299 N 
HETATM    8  C   UNL     1      41.214 -14.922   5.770  1.00  0.00     0.214 C 
HETATM    9  N   UNL     1      41.265 -13.720   5.294  1.00  0.00    -0.235 NA
HETATM   10  C   UNL     1      41.035 -14.279   1.678  1.00  0.00    -0.021 A 
HETATM   11  C   UNL     1      40.887 -15.222   0.522  1.00  0.00     0.051 C 
ENDROOT
BRANCH   7  12
HETATM   12  C   UNL     1      41.180 -17.376   5.659  1.00  0.00     0.236 C 
BRANCH  12  13
HETATM   13  C   UNL     1      42.546 -17.584   6.314  1.00  0.00     0.240 C 
HETATM   14  N   UNL     1      43.648 -17.769   5.518  1.00  0.00    -0.326 N 
HETATM   15  H   UNL     1      44.515 -17.514   5.978  1.00  0.00     0.169 HD
HETATM   16  O   UNL     1      42.713 -17.388   7.521  1.00  0.00    -0.271 OA
BRANCH  14  17
HETATM   17  C   UNL     1      43.752 -18.263   4.208  1.00  0.00     0.035 A 
HETATM   18  C   UNL     1      43.810 -19.628   3.915  1.00  0.00     0.045 A 
HETATM   19  C   UNL     1      43.951 -20.075   2.589  1.00  0.00     0.050 A 
HETATM   20  C   UNL     1      44.038 -19.127   1.558  1.00  0.00     0.016 A 
HETATM   21  C   UNL     1      44.019 -17.765   1.851  1.00  0.00     0.003 A 
HETATM   22  C   UNL     1      43.901 -17.336   3.174  1.00  0.00     0.029 A 
BRANCH  19  23
HETATM   23  C   UNL     1      44.034 -21.548   2.265  1.00  0.00     0.417 C 
HETATM   24  F   UNL     1      45.080 -21.869   1.455  1.00  0.00    -0.166 F 
HETATM   25  F   UNL     1      44.180 -22.314   3.380  1.00  0.00    -0.166 F 
HETATM   26  F   UNL     1      42.919 -22.008   1.634  1.00  0.00    -0.166 F 
ENDBRANCH  19  23
ENDBRANCH  14  17
ENDBRANCH  12  13
ENDBRANCH   7  12
BRANCH   1  27
HETATM   27  C   UNL     1      41.529 -12.054   0.432  1.00  0.00     0.259 C 
HETATM   28  N   UNL     1      40.406 -11.522  -0.179  1.00  0.00    -0.355 N 
HETATM   29  H   UNL     1      39.558 -11.480   0.378  1.00  0.00     0.162 HD
HETATM   30  O   UNL     1      42.638 -11.804  -0.041  1.00  0.00    -0.267 OA
BRANCH  28  31
HETATM   31  C   UNL     1      40.538 -10.673  -1.349  1.00  0.00     0.150 C 
BRANCH  31  32
HETATM   32  C   UNL     1      39.890 -11.291  -2.608  1.00  0.00     0.254 C 
BRANCH  32  33
HETATM   33  N   UNL     1      40.860 -12.039  -3.514  1.00  0.00    -0.070 N 
HETATM   34  H   UNL     1      40.435 -11.986  -4.451  1.00  0.00     0.279 HD
BRANCH  33  35
HETATM   35  C   UNL     1      40.974 -13.525  -3.217  1.00  0.00     0.230 C 
HETATM   36  C   UNL     1      39.620 -14.141  -2.913  1.00  0.00     0.034 C 
ENDBRANCH  33  35
BRANCH  33  37
HETATM   37  C   UNL     1      42.230 -11.405  -3.654  1.00  0.00     0.230 C 
HETATM   38  C   UNL     1      42.353 -10.618  -4.947  1.00  0.00     0.034 C 
ENDBRANCH  33  37
ENDBRANCH  32  33
ENDBRANCH  31  32
ENDBRANCH  28  31
ENDBRANCH   1  27
TORSDOF 10
ENDMDL
MODEL 7
REMARK VINA RESULT:      -7.7      3.661      6.929
REMARK  10 active torsions:
REMARK  status: ('A' for Active; 'I' for Inactive)
REMARK    1  A    between atoms: C_2  and  N_3 
REMARK    2  A    between atoms: N_3  and  C_5 
REMARK    3  A    between atoms: N_3  and  C_35 
REMARK    4  A    between atoms: C_5  and  C_6 
REMARK    5  A    between atoms: C_6  and  N_7 
REMARK       I    between atoms: N_7  and  C_8 
REMARK    6  A    between atoms: C_8  and  C_9 
REMARK    7  A    between atoms: N_15  and  C_16 
REMARK    8  A    between atoms: C_16  and  C_17 
REMARK       I    between atoms: C_17  and  N_18 
REMARK    9  A    between atoms: N_18  and  C_19 
REMARK   10  A    between atoms: C_21  and  C_22 
ROOT
HETATM    1  C   UNL     1      41.351 -11.478   6.234  1.00  0.00     0.081 A 
HETATM    2  S   UNL     1      40.005 -11.177   5.213  1.00  0.00    -0.063 SA
HETATM    3  C   UNL     1      40.351 -12.511   4.224  1.00  0.00     0.116 A 
HETATM    4  C   UNL     1      41.487 -13.174   4.633  1.00  0.00     0.075 A 
HETATM    5  C   UNL     1      41.850 -14.380   3.896  1.00  0.00     0.262 C 
HETATM    6  O   UNL     1      42.876 -15.017   4.121  1.00  0.00    -0.267 OA
HETATM    7  N   UNL     1      40.912 -14.767   2.946  1.00  0.00    -0.299 N 
HETATM    8  C   UNL     1      39.845 -13.957   2.608  1.00  0.00     0.214 C 
HETATM    9  N   UNL     1      39.536 -12.846   3.194  1.00  0.00    -0.235 NA
HETATM   10  C   UNL     1      42.103 -12.570   5.797  1.00  0.00    -0.021 A 
HETATM   11  C   UNL     1      43.328 -13.113   6.468  1.00  0.00     0.051 C 
ENDROOT
BRANCH   7  12
HETATM   12  C   UNL     1      41.077 -16.061   2.301  1.00  0.00     0.236 C 
BRANCH  12  13
HETATM   13  C   UNL     1      42.071 -15.987   1.142  1.00  0.00     0.240 C 
HETATM   14  N   UNL     1      42.931 -17.034   0.931  1.00  0.00    -0.326 N 
HETATM   15  H   UNL     1      43.259 -17.088  -0.028  1.00  0.00     0.169 HD
HETATM   16  O   UNL     1      41.982 -15.109   0.279  1.00  0.00    -0.271 OA
BRANCH  14  17
HETATM   17  C   UNL     1      43.426 -18.000   1.821  1.00  0.00     0.035 A 
HETATM   18  C   UNL     1      43.495 -19.359   1.503  1.00  0.00     0.045 A 
HETATM   19  C   UNL     1      43.964 -20.295   2.441  1.00  0.00     0.050 A 
HETATM   20  C   UNL     1      44.361 -19.846   3.710  1.00  0.00     0.016 A 
HETATM   21  C   UNL     1      44.257 -18.497   4.043  1.00  0.00     0.003 A 
HETATM   22  C   UNL     1      43.768 -17.582   3.109  1.00  0.00     0.029 A 
BRANCH  19  23
HETATM   23  C   UNL     1      44.024 -21.768   2.113  1.00  0.00     0.417 C 
HETATM   24  F   UNL     1      44.047 -22.571   3.213  1.00  0.00    -0.166 F 
HETATM   25  F   UNL     1      42.954 -22.178   1.378  1.00  0.00    -0.166 F 
HETATM   26  F   UNL     1      45.128 -22.099   1.388  1.00  0.00    -0.166 F 
ENDBRANCH  19  23
ENDBRANCH  14  17
ENDBRANCH  12  13
ENDBRANCH   7  12
BRANCH   1  27
HETATM   27  C   UNL     1      41.486 -10.627   7.408  1.00  0.00     0.259 C 
HETATM   28  N   UNL     1      41.157 -11.202   8.624  1.00  0.00    -0.355 N 
HETATM   29  H   UNL     1      41.171 -12.215   8.672  1.00  0.00     0.162 HD
HETATM   30  O   UNL     1      41.836  -9.447   7.383  1.00  0.00    -0.267 OA
BRANCH  28  31
HETATM   31  C   UNL     1      41.239 -10.426   9.849  1.00  0.00     0.150 C 
BRANCH  31  32
HETATM   32  C   UNL     1      42.656 -10.438  10.466  1.00  0.00     0.254 C 
BRANCH  32  33
HETATM   33  N   UNL     1      43.099 -11.795  11.001  1.00  0.00    -0.070 N 
HETATM   34  H   UNL     1      42.377 -12.452  10.676  1.00  0.00     0.279 HD
BRANCH  33  35
HETATM   35  C   UNL     1      43.079 -11.905  12.517  1.00  0.00     0.230 C 
HETATM   36  C   UNL     1      42.947 -10.545  13.176  1.00  0.00     0.034 C 
ENDBRANCH  33  35
BRANCH  33  37
HETATM   37  C   UNL     1      44.406 -12.316  10.434  1.00  0.00     0.230 C 
HETATM   38  C   UNL     1      45.241 -11.199   9.836  1.00  0.00     0.034 C 
ENDBRANCH  33  37
ENDBRANCH  32  33
ENDBRANCH  31  32
ENDBRANCH  28  31
ENDBRANCH   1  27
TORSDOF 10
ENDMDL
MODEL 8
REMARK VINA RESULT:      -7.6      2.113      3.053
REMARK  10 active torsions:
REMARK  status: ('A' for Active; 'I' for Inactive)
REMARK    1  A    between atoms: C_2  and  N_3 
REMARK    2  A    between atoms: N_3  and  C_5 
REMARK    3  A    between atoms: N_3  and  C_35 
REMARK    4  A    between atoms: C_5  and  C_6 
REMARK    5  A    between atoms: C_6  and  N_7 
REMARK       I    between atoms: N_7  and  C_8 
REMARK    6  A    between atoms: C_8  and  C_9 
REMARK    7  A    between atoms: N_15  and  C_16 
REMARK    8  A    between atoms: C_16  and  C_17 
REMARK       I    between atoms: C_17  and  N_18 
REMARK    9  A    between atoms: N_18  and  C_19 
REMARK   10  A    between atoms: C_21  and  C_22 
ROOT
HETATM    1  C   UNL     1      40.243 -14.703   1.561  1.00  0.00     0.081 A 
HETATM    2  S   UNL     1      40.213 -13.473   2.757  1.00  0.00    -0.063 SA
HETATM    3  C   UNL     1      40.578 -14.562   4.005  1.00  0.00     0.116 A 
HETATM    4  C   UNL     1      40.699 -15.853   3.542  1.00  0.00     0.075 A 
HETATM    5  C   UNL     1      41.077 -16.872   4.517  1.00  0.00     0.262 C 
HETATM    6  O   UNL     1      41.149 -18.067   4.240  1.00  0.00    -0.267 OA
HETATM    7  N   UNL     1      41.388 -16.366   5.774  1.00  0.00    -0.299 N 
HETATM    8  C   UNL     1      41.156 -15.044   6.100  1.00  0.00     0.214 C 
HETATM    9  N   UNL     1      40.753 -14.131   5.278  1.00  0.00    -0.235 NA
HETATM   10  C   UNL     1      40.483 -15.962   2.114  1.00  0.00    -0.021 A 
HETATM   11  C   UNL     1      40.593 -17.247   1.350  1.00  0.00     0.051 C 
ENDROOT
BRANCH   7  12
HETATM   12  C   UNL     1      41.970 -17.268   6.755  1.00  0.00     0.236 C 
BRANCH  12  13
HETATM   13  C   UNL     1      43.446 -16.953   7.000  1.00  0.00     0.240 C 
HETATM   14  N   UNL     1      44.373 -17.319   6.057  1.00  0.00    -0.326 N 
HETATM   15  H   UNL     1      45.218 -16.758   6.096  1.00  0.00     0.169 HD
HETATM   16  O   UNL     1      43.797 -16.206   7.917  1.00  0.00    -0.271 OA
BRANCH  14  17
HETATM   17  C   UNL     1      44.336 -18.335   5.090  1.00  0.00     0.035 A 
HETATM   18  C   UNL     1      44.538 -19.683   5.399  1.00  0.00     0.045 A 
HETATM   19  C   UNL     1      44.527 -20.662   4.390  1.00  0.00     0.050 A 
HETATM   20  C   UNL     1      44.314 -20.267   3.060  1.00  0.00     0.016 A 
HETATM   21  C   UNL     1      44.152 -18.919   2.744  1.00  0.00     0.003 A 
HETATM   22  C   UNL     1      44.187 -17.955   3.754  1.00  0.00     0.029 A 
BRANCH  19  23
HETATM   23  C   UNL     1      44.763 -22.119   4.711  1.00  0.00     0.417 C 
HETATM   24  F   UNL     1      45.993 -22.367   5.240  1.00  0.00    -0.166 F 
HETATM   25  F   UNL     1      43.867 -22.599   5.616  1.00  0.00    -0.166 F 
HETATM   26  F   UNL     1      44.660 -22.921   3.616  1.00  0.00    -0.166 F 
ENDBRANCH  19  23
ENDBRANCH  14  17
ENDBRANCH  12  13
ENDBRANCH   7  12
BRANCH   1  27
HETATM   27  C   UNL     1      40.086 -14.276   0.177  1.00  0.00     0.259 C 
HETATM   28  N   UNL     1      41.240 -13.888  -0.482  1.00  0.00    -0.355 N 
HETATM   29  H   UNL     1      42.119 -14.227  -0.105  1.00  0.00     0.162 HD
HETATM   30  O   UNL     1      39.010 -14.210  -0.418  1.00  0.00    -0.267 OA
BRANCH  28  31
HETATM   31  C   UNL     1      41.181 -13.427  -1.857  1.00  0.00     0.150 C 
BRANCH  31  32
HETATM   32  C   UNL     1      42.579 -13.123  -2.442  1.00  0.00     0.254 C 
BRANCH  32  33
HETATM   33  N   UNL     1      42.748 -11.703  -2.967  1.00  0.00    -0.070 N 
HETATM   34  H   UNL     1      43.760 -11.603  -3.129  1.00  0.00     0.279 HD
BRANCH  33  35
HETATM   35  C   UNL     1      42.404 -10.619  -1.958  1.00  0.00     0.230 C 
HETATM   36  C   UNL     1      43.651  -9.976  -1.379  1.00  0.00     0.034 C 
ENDBRANCH  33  35
BRANCH  33  37
HETATM   37  C   UNL     1      42.094 -11.428  -4.306  1.00  0.00     0.230 C 
HETATM   38  C   UNL     1      42.532 -10.092  -4.879  1.00  0.00     0.034 C 
ENDBRANCH  33  37
ENDBRANCH  32  33
ENDBRANCH  31  32
ENDBRANCH  28  31
ENDBRANCH   1  27
TORSDOF 10
ENDMDL
MODEL 9
REMARK VINA RESULT:      -7.5      3.812      6.432
REMARK  10 active torsions:
REMARK  status: ('A' for Active; 'I' for Inactive)
REMARK    1  A    between atoms: C_2  and  N_3 
REMARK    2  A    between atoms: N_3  and  C_5 
REMARK    3  A    between atoms: N_3  and  C_35 
REMARK    4  A    between atoms: C_5  and  C_6 
REMARK    5  A    between atoms: C_6  and  N_7 
REMARK       I    between atoms: N_7  and  C_8 
REMARK    6  A    between atoms: C_8  and  C_9 
REMARK    7  A    between atoms: N_15  and  C_16 
REMARK    8  A    between atoms: C_16  and  C_17 
REMARK       I    between atoms: C_17  and  N_18 
REMARK    9  A    between atoms: N_18  and  C_19 
REMARK   10  A    between atoms: C_21  and  C_22 
ROOT
HETATM    1  C   UNL     1      39.497 -11.925   5.287  1.00  0.00     0.081 A 
HETATM    2  S   UNL     1      40.239 -13.175   6.200  1.00  0.00    -0.063 SA
HETATM    3  C   UNL     1      40.266 -14.237   4.878  1.00  0.00     0.116 A 
HETATM    4  C   UNL     1      39.700 -13.676   3.754  1.00  0.00     0.075 A 
HETATM    5  C   UNL     1      39.725 -14.475   2.533  1.00  0.00     0.262 C 
HETATM    6  O   UNL     1      39.191 -14.112   1.488  1.00  0.00    -0.267 OA
HETATM    7  N   UNL     1      40.441 -15.661   2.645  1.00  0.00    -0.299 N 
HETATM    8  C   UNL     1      40.903 -16.115   3.865  1.00  0.00     0.214 C 
HETATM    9  N   UNL     1      40.833 -15.464   4.981  1.00  0.00    -0.235 NA
HETATM   10  C   UNL     1      39.221 -12.328   3.980  1.00  0.00    -0.021 A 
HETATM   11  C   UNL     1      38.596 -11.477   2.915  1.00  0.00     0.051 C 
ENDROOT
BRANCH   7  12
HETATM   12  C   UNL     1      40.699 -16.427   1.436  1.00  0.00     0.236 C 
BRANCH  12  13
HETATM   13  C   UNL     1      41.982 -15.966   0.743  1.00  0.00     0.240 C 
HETATM   14  N   UNL     1      43.078 -16.791   0.747  1.00  0.00    -0.326 N 
HETATM   15  H   UNL     1      43.713 -16.606  -0.022  1.00  0.00     0.169 HD
HETATM   16  O   UNL     1      41.992 -14.969   0.015  1.00  0.00    -0.271 OA
BRANCH  14  17
HETATM   17  C   UNL     1      43.449 -17.808   1.640  1.00  0.00     0.035 A 
HETATM   18  C   UNL     1      43.371 -19.166   1.317  1.00  0.00     0.045 A 
HETATM   19  C   UNL     1      43.719 -20.150   2.258  1.00  0.00     0.050 A 
HETATM   20  C   UNL     1      44.145 -19.752   3.534  1.00  0.00     0.016 A 
HETATM   21  C   UNL     1      44.186 -18.401   3.872  1.00  0.00     0.003 A 
HETATM   22  C   UNL     1      43.816 -17.434   2.934  1.00  0.00     0.029 A 
BRANCH  19  23
HETATM   23  C   UNL     1      43.621 -21.620   1.924  1.00  0.00     0.417 C 
HETATM   24  F   UNL     1      44.425 -21.999   0.892  1.00  0.00    -0.166 F 
HETATM   25  F   UNL     1      43.968 -22.413   2.974  1.00  0.00    -0.166 F 
HETATM   26  F   UNL     1      42.360 -21.994   1.571  1.00  0.00    -0.166 F 
ENDBRANCH  19  23
ENDBRANCH  14  17
ENDBRANCH  12  13
ENDBRANCH   7  12
BRANCH   1  27
HETATM   27  C   UNL     1      39.323 -10.642   5.954  1.00  0.00     0.259 C 
HETATM   28  N   UNL     1      40.054 -10.447   7.114  1.00  0.00    -0.355 N 
HETATM   29  H   UNL     1      40.876 -11.029   7.241  1.00  0.00     0.162 HD
HETATM   30  O   UNL     1      38.559  -9.753   5.575  1.00  0.00    -0.267 OA
BRANCH  28  31
HETATM   31  C   UNL     1      39.931  -9.208   7.860  1.00  0.00     0.150 C 
BRANCH  31  32
HETATM   32  C   UNL     1      41.240  -8.819   8.584  1.00  0.00     0.254 C 
BRANCH  32  33
HETATM   33  N   UNL     1      41.258  -9.145  10.073  1.00  0.00    -0.070 N 
HETATM   34  H   UNL     1      41.319  -8.230  10.540  1.00  0.00     0.279 HD
BRANCH  33  35
HETATM   35  C   UNL     1      42.493  -9.904  10.532  1.00  0.00     0.230 C 
HETATM   36  C   UNL     1      43.148  -9.238  11.727  1.00  0.00     0.034 C 
ENDBRANCH  33  35
BRANCH  33  37
HETATM   37  C   UNL     1      39.993  -9.789  10.607  1.00  0.00     0.230 C 
HETATM   38  C   UNL     1      40.231 -11.229  11.023  1.00  0.00     0.034 C 
ENDBRANCH  33  37
ENDBRANCH  32  33
ENDBRANCH  31  32
ENDBRANCH  28  31
ENDBRANCH   1  27
TORSDOF 10
ENDMDL
MODEL 10
REMARK VINA RESULT:      -7.4      2.086      2.892
REMARK  10 active torsions:
REMARK  status: ('A' for Active; 'I' for Inactive)
REMARK    1  A    between atoms: C_2  and  N_3 
REMARK    2  A    between atoms: N_3  and  C_5 
REMARK    3  A    between atoms: N_3  and  C_35 
REMARK    4  A    between atoms: C_5  and  C_6 
REMARK    5  A    between atoms: C_6  and  N_7 
REMARK       I    between atoms: N_7  and  C_8 
REMARK    6  A    between atoms: C_8  and  C_9 
REMARK    7  A    between atoms: N_15  and  C_16 
REMARK    8  A    between atoms: C_16  and  C_17 
REMARK       I    between atoms: C_17  and  N_18 
REMARK    9  A    between atoms: N_18  and  C_19 
REMARK   10  A    between atoms: C_21  and  C_22 
ROOT
HETATM    1  C   UNL     1      41.406 -13.495   3.469  1.00  0.00     0.081 A 
HETATM    2  S   UNL     1      42.507 -12.958   4.672  1.00  0.00    -0.063 SA
HETATM    3  C   UNL     1      42.527 -14.467   5.445  1.00  0.00     0.116 A 
HETATM    4  C   UNL     1      41.693 -15.374   4.828  1.00  0.00     0.075 A 
HETATM    5  C   UNL     1      41.676 -16.729   5.367  1.00  0.00     0.262 C 
HETATM    6  O   UNL     1      40.925 -17.606   4.946  1.00  0.00    -0.267 OA
HETATM    7  N   UNL     1      42.614 -16.953   6.368  1.00  0.00    -0.299 N 
HETATM    8  C   UNL     1      43.340 -15.919   6.925  1.00  0.00     0.214 C 
HETATM    9  N   UNL     1      43.325 -14.691   6.517  1.00  0.00    -0.235 NA
HETATM   10  C   UNL     1      41.008 -14.816   3.679  1.00  0.00    -0.021 A 
HETATM   11  C   UNL     1      40.073 -15.597   2.807  1.00  0.00     0.051 C 
ENDROOT
BRANCH   7  12
HETATM   12  C   UNL     1      42.818 -18.318   6.829  1.00  0.00     0.236 C 
BRANCH  12  13
HETATM   13  C   UNL     1      44.306 -18.658   6.929  1.00  0.00     0.240 C 
HETATM   14  N   UNL     1      45.036 -18.812   5.778  1.00  0.00    -0.326 N 
HETATM   15  H   UNL     1      46.028 -18.648   5.915  1.00  0.00     0.169 HD
HETATM   16  O   UNL     1      44.904 -18.598   8.007  1.00  0.00    -0.271 OA
BRANCH  14  17
HETATM   17  C   UNL     1      44.630 -19.170   4.483  1.00  0.00     0.035 A 
HETATM   18  C   UNL     1      44.109 -18.250   3.570  1.00  0.00     0.045 A 
HETATM   19  C   UNL     1      43.681 -18.663   2.296  1.00  0.00     0.050 A 
HETATM   20  C   UNL     1      43.780 -20.019   1.952  1.00  0.00     0.016 A 
HETATM   21  C   UNL     1      44.263 -20.946   2.874  1.00  0.00     0.003 A 
HETATM   22  C   UNL     1      44.663 -20.525   4.144  1.00  0.00     0.029 A 
BRANCH  19  23
HETATM   23  C   UNL     1      43.099 -17.678   1.309  1.00  0.00     0.417 C 
HETATM   24  F   UNL     1      43.211 -16.380   1.706  1.00  0.00    -0.166 F 
HETATM   25  F   UNL     1      43.706 -17.746   0.093  1.00  0.00    -0.166 F 
HETATM   26  F   UNL     1      41.773 -17.885   1.082  1.00  0.00    -0.166 F 
ENDBRANCH  19  23
ENDBRANCH  14  17
ENDBRANCH  12  13
ENDBRANCH   7  12
BRANCH   1  27
HETATM   27  C   UNL     1      41.098 -12.558   2.397  1.00  0.00     0.259 C 
HETATM   28  N   UNL     1      42.145 -12.222   1.556  1.00  0.00    -0.355 N 
HETATM   29  H   UNL     1      42.929 -12.865   1.519  1.00  0.00     0.162 HD
HETATM   30  O   UNL     1      39.998 -12.035   2.218  1.00  0.00    -0.267 OA
BRANCH  28  31
HETATM   31  C   UNL     1      41.941 -11.279   0.470  1.00  0.00     0.150 C 
BRANCH  31  32
HETATM   32  C   UNL     1      42.628 -11.724  -0.840  1.00  0.00     0.254 C 
BRANCH  32  33
HETATM   33  N   UNL     1      42.188 -10.951  -2.077  1.00  0.00    -0.070 N 
HETATM   34  H   UNL     1      41.312 -10.488  -1.797  1.00  0.00     0.279 HD
BRANCH  33  35
HETATM   35  C   UNL     1      41.808 -11.827  -3.260  1.00  0.00     0.230 C 
HETATM   36  C   UNL     1      42.383 -11.295  -4.559  1.00  0.00     0.034 C 
ENDBRANCH  33  35
BRANCH  33  37
HETATM   37  C   UNL     1      43.119  -9.833  -2.504  1.00  0.00     0.230 C 
HETATM   38  C   UNL     1      42.609  -8.477  -2.050  1.00  0.00     0.034 C 
ENDBRANCH  33  37
ENDBRANCH  32  33
ENDBRANCH  31  32
ENDBRANCH  28  31
ENDBRANCH   1  27
TORSDOF 10
ENDMDL
