MODEL 1
REMARK VINA RESULT:      -9.8      0.000      0.000
REMARK  8 active torsions:
REMARK  status: ('A' for Active; 'I' for Inactive)
REMARK    1  A    between atoms: C_6  and  N_7 
REMARK       I    between atoms: N_7  and  C_8 
REMARK    2  A    between atoms: C_8  and  C_9 
REMARK    3  A    between atoms: C_10  and  N_11 
REMARK       I    between atoms: N_11  and  C_12 
REMARK    4  A    between atoms: C_12  and  C_13 
REMARK    5  A    between atoms: C_13  and  N_14 
REMARK    6  A    between atoms: N_14  and  C_17 
REMARK    7  A    between atoms: C_17  and  C_18 
REMARK    8  A    between atoms: C_30  and  C_31 
ROOT
HETATM    1  C   UNL     1      40.965 -15.169   3.924  1.00  0.00     0.073 A 
HETATM    2  C   UNL     1      41.376 -14.220   4.860  1.00  0.00     0.093 A 
HETATM    3  S   UNL     1      40.641 -12.713   4.666  1.00  0.00    -0.075 SA
HETATM    4  C   UNL     1      39.852 -13.217   3.250  1.00  0.00    -0.008 A 
HETATM    5  C   UNL     1      40.115 -14.539   2.928  1.00  0.00    -0.026 A 
HETATM    6  C   UNL     1      39.551 -15.123   1.664  1.00  0.00     0.041 C 
HETATM    7  C   UNL     1      39.127 -14.042   0.656  1.00  0.00     0.010 C 
HETATM    8  C   UNL     1      38.237 -12.957   1.313  1.00  0.00    -0.002 C 
HETATM    9  C   UNL     1      39.034 -12.247   2.442  1.00  0.00     0.052 C 
ENDROOT
BRANCH   2  10
HETATM   10  N   UNL     1      42.339 -14.433   5.837  1.00  0.00    -0.319 N 
HETATM   11  C   UNL     1      43.694 -14.230   5.749  1.00  0.00     0.248 C 
HETATM   12  O   UNL     1      44.332 -13.640   4.882  1.00  0.00    -0.271 OA
HETATM   13  H   UNL     1      41.932 -14.761   6.717  1.00  0.00     0.169 HD
BRANCH  11  14
HETATM   14  C   UNL     1      44.459 -14.790   6.948  1.00  0.00     0.335 C 
BRANCH  14  15
HETATM   15  N   UNL     1      44.161 -13.999   8.195  1.00  0.00    -0.063 N 
HETATM   16  H   UNL     1      43.169 -13.741   8.232  1.00  0.00     0.278 HD
HETATM   17  H   UNL     1      44.329 -14.635   8.993  1.00  0.00     0.278 HD
BRANCH  15  18
HETATM   18  C   UNL     1      45.019 -12.795   8.387  1.00  0.00     0.272 C 
BRANCH  18  19
HETATM   19  C   UNL     1      44.392 -11.825   9.334  1.00  0.00    -0.015 A 
HETATM   20  C   UNL     1      43.246 -11.120   8.983  1.00  0.00     0.125 A 
HETATM   21  N   UNL     1      42.661 -10.201   9.776  1.00  0.00    -0.273 NA
HETATM   22  C   UNL     1      43.221  -9.973  10.983  1.00  0.00     0.116 A 
HETATM   23  C   UNL     1      44.359 -10.622  11.429  1.00  0.00     0.020 A 
HETATM   24  C   UNL     1      44.955 -11.558  10.588  1.00  0.00     0.012 A 
ENDBRANCH  18  19
ENDBRANCH  15  18
ENDBRANCH  14  15
ENDBRANCH  11  14
ENDBRANCH   2  10
BRANCH   1  25
HETATM   25  C   UNL     1      41.454 -16.563   4.051  1.00  0.00     0.259 C 
HETATM   26  N   UNL     1      42.451 -16.951   3.181  1.00  0.00    -0.322 N 
HETATM   27  H   UNL     1      42.976 -16.221   2.733  1.00  0.00     0.169 HD
HETATM   28  O   UNL     1      40.947 -17.297   4.902  1.00  0.00    -0.267 OA
BRANCH  26  29
HETATM   29  C   UNL     1      43.046 -18.232   3.122  1.00  0.00     0.041 A 
HETATM   30  C   UNL     1      43.956 -18.749   4.061  1.00  0.00    -0.035 A 
HETATM   31  C   UNL     1      44.534 -20.013   3.821  1.00  0.00     0.015 A 
HETATM   32  C   UNL     1      44.316 -18.079   5.358  1.00  0.00     0.050 C 
HETATM   33  C   UNL     1      44.168 -20.791   2.717  1.00  0.00    -0.061 A 
HETATM   34  C   UNL     1      44.826 -22.114   2.462  1.00  0.00     0.048 C 
HETATM   35  C   UNL     1      43.211 -20.295   1.833  1.00  0.00     0.009 A 
HETATM   36  C   UNL     1      42.645 -19.036   2.045  1.00  0.00     0.030 A 
ENDBRANCH  26  29
ENDBRANCH   1  25
BRANCH   8  37
HETATM   37  C   UNL     1      37.597 -11.959   0.276  1.00  0.00    -0.047 C 
HETATM   38  C   UNL     1      36.103 -11.737   0.604  1.00  0.00     0.015 C 
HETATM   39  C   UNL     1      38.292 -10.583   0.357  1.00  0.00     0.015 C 
HETATM   40  C   UNL     1      37.694 -12.466  -1.175  1.00  0.00     0.015 C 
ENDBRANCH   8  37
TORSDOF 8
ENDMDL
MODEL 2
REMARK VINA RESULT:      -9.5      2.008      2.385
REMARK  8 active torsions:
REMARK  status: ('A' for Active; 'I' for Inactive)
REMARK    1  A    between atoms: C_6  and  N_7 
REMARK       I    between atoms: N_7  and  C_8 
REMARK    2  A    between atoms: C_8  and  C_9 
REMARK    3  A    between atoms: C_10  and  N_11 
REMARK       I    between atoms: N_11  and  C_12 
REMARK    4  A    between atoms: C_12  and  C_13 
REMARK    5  A    between atoms: C_13  and  N_14 
REMARK    6  A    between atoms: N_14  and  C_17 
REMARK    7  A    between atoms: C_17  and  C_18 
REMARK    8  A    between atoms: C_30  and  C_31 
ROOT
HETATM    1  C   UNL     1      42.264 -15.602   2.410  1.00  0.00     0.073 A 
HETATM    2  C   UNL     1      42.758 -14.442   3.007  1.00  0.00     0.093 A 
HETATM    3  S   UNL     1      42.391 -13.032   2.154  1.00  0.00    -0.075 SA
HETATM    4  C   UNL     1      41.684 -13.914   0.889  1.00  0.00    -0.008 A 
HETATM    5  C   UNL     1      41.692 -15.280   1.113  1.00  0.00    -0.026 A 
HETATM    6  C   UNL     1      41.168 -16.211   0.058  1.00  0.00     0.041 C 
HETATM    7  C   UNL     1      41.107 -15.551  -1.329  1.00  0.00     0.010 C 
HETATM    8  C   UNL     1      40.400 -14.173  -1.282  1.00  0.00    -0.002 C 
HETATM    9  C   UNL     1      41.193 -13.216  -0.351  1.00  0.00     0.052 C 
ENDROOT
BRANCH   2  10
HETATM   10  N   UNL     1      43.531 -14.408   4.159  1.00  0.00    -0.319 N 
HETATM   11  C   UNL     1      43.168 -13.973   5.410  1.00  0.00     0.248 C 
HETATM   12  O   UNL     1      42.050 -13.709   5.841  1.00  0.00    -0.271 OA
HETATM   13  H   UNL     1      44.470 -14.784   4.006  1.00  0.00     0.169 HD
BRANCH  11  14
HETATM   14  C   UNL     1      44.352 -13.873   6.372  1.00  0.00     0.335 C 
BRANCH  14  15
HETATM   15  N   UNL     1      43.897 -13.445   7.743  1.00  0.00    -0.063 N 
HETATM   16  H   UNL     1      43.019 -12.916   7.685  1.00  0.00     0.278 HD
HETATM   17  H   UNL     1      43.684 -14.312   8.265  1.00  0.00     0.278 HD
BRANCH  15  18
HETATM   18  C   UNL     1      44.912 -12.683   8.525  1.00  0.00     0.272 C 
BRANCH  18  19
HETATM   19  C   UNL     1      44.266 -11.708   9.453  1.00  0.00    -0.015 A 
HETATM   20  C   UNL     1      43.125 -11.008   9.076  1.00  0.00     0.125 A 
HETATM   21  N   UNL     1      42.523 -10.085   9.852  1.00  0.00    -0.273 NA
HETATM   22  C   UNL     1      43.059  -9.848  11.068  1.00  0.00     0.116 A 
HETATM   23  C   UNL     1      44.189 -10.492  11.539  1.00  0.00     0.020 A 
HETATM   24  C   UNL     1      44.804 -11.432  10.717  1.00  0.00     0.012 A 
ENDBRANCH  18  19
ENDBRANCH  15  18
ENDBRANCH  14  15
ENDBRANCH  11  14
ENDBRANCH   2  10
BRANCH   1  25
HETATM   25  C   UNL     1      42.424 -16.897   3.114  1.00  0.00     0.259 C 
HETATM   26  N   UNL     1      43.670 -17.484   3.056  1.00  0.00    -0.322 N 
HETATM   27  H   UNL     1      44.443 -16.891   2.810  1.00  0.00     0.169 HD
HETATM   28  O   UNL     1      41.451 -17.383   3.696  1.00  0.00    -0.267 OA
BRANCH  26  29
HETATM   29  C   UNL     1      44.032 -18.719   3.643  1.00  0.00     0.041 A 
HETATM   30  C   UNL     1      44.331 -18.915   5.002  1.00  0.00    -0.035 A 
HETATM   31  C   UNL     1      44.763 -20.190   5.424  1.00  0.00     0.015 A 
HETATM   32  C   UNL     1      44.160 -17.873   6.073  1.00  0.00     0.050 C 
HETATM   33  C   UNL     1      44.826 -21.274   4.542  1.00  0.00    -0.061 A 
HETATM   34  C   UNL     1      45.325 -22.610   5.006  1.00  0.00     0.048 C 
HETATM   35  C   UNL     1      44.457 -21.080   3.212  1.00  0.00     0.009 A 
HETATM   36  C   UNL     1      44.049 -19.819   2.773  1.00  0.00     0.030 A 
ENDBRANCH  26  29
ENDBRANCH   1  25
BRANCH   8  37
HETATM   37  C   UNL     1      40.116 -13.566  -2.707  1.00  0.00    -0.047 C 
HETATM   38  C   UNL     1      39.232 -14.531  -3.530  1.00  0.00     0.015 C 
HETATM   39  C   UNL     1      39.342 -12.236  -2.579  1.00  0.00     0.015 C 
HETATM   40  C   UNL     1      41.404 -13.302  -3.510  1.00  0.00     0.015 C 
ENDBRANCH   8  37
TORSDOF 8
ENDMDL
MODEL 3
REMARK VINA RESULT:      -9.3      2.449      8.599
REMARK  8 active torsions:
REMARK  status: ('A' for Active; 'I' for Inactive)
REMARK    1  A    between atoms: C_6  and  N_7 
REMARK       I    between atoms: N_7  and  C_8 
REMARK    2  A    between atoms: C_8  and  C_9 
REMARK    3  A    between atoms: C_10  and  N_11 
REMARK       I    between atoms: N_11  and  C_12 
REMARK    4  A    between atoms: C_12  and  C_13 
REMARK    5  A    between atoms: C_13  and  N_14 
REMARK    6  A    between atoms: N_14  and  C_17 
REMARK    7  A    between atoms: C_17  and  C_18 
REMARK    8  A    between atoms: C_30  and  C_31 
ROOT
HETATM    1  C   UNL     1      42.707 -14.309   4.857  1.00  0.00     0.073 A 
HETATM    2  C   UNL     1      41.550 -13.612   4.506  1.00  0.00     0.093 A 
HETATM    3  S   UNL     1      41.265 -12.248   5.459  1.00  0.00    -0.075 SA
HETATM    4  C   UNL     1      42.585 -12.604   6.464  1.00  0.00    -0.008 A 
HETATM    5  C   UNL     1      43.272 -13.741   6.070  1.00  0.00    -0.026 A 
HETATM    6  C   UNL     1      44.425 -14.237   6.894  1.00  0.00     0.041 C 
HETATM    7  C   UNL     1      44.410 -13.674   8.325  1.00  0.00     0.010 C 
HETATM    8  C   UNL     1      44.228 -12.135   8.337  1.00  0.00    -0.002 C 
HETATM    9  C   UNL     1      42.868 -11.769   7.683  1.00  0.00     0.052 C 
ENDROOT
BRANCH   2  10
HETATM   10  N   UNL     1      40.660 -13.999   3.514  1.00  0.00    -0.319 N 
HETATM   11  C   UNL     1      40.321 -13.321   2.370  1.00  0.00     0.248 C 
HETATM   12  O   UNL     1      40.859 -12.339   1.865  1.00  0.00    -0.271 OA
HETATM   13  H   UNL     1      40.250 -14.918   3.699  1.00  0.00     0.169 HD
BRANCH  11  14
HETATM   14  C   UNL     1      39.140 -13.951   1.632  1.00  0.00     0.335 C 
BRANCH  14  15
HETATM   15  N   UNL     1      39.577 -14.541   0.317  1.00  0.00    -0.063 N 
HETATM   16  H   UNL     1      40.563 -14.822   0.356  1.00  0.00     0.278 HD
HETATM   17  H   UNL     1      39.029 -15.409   0.188  1.00  0.00     0.278 HD
BRANCH  15  18
HETATM   18  C   UNL     1      39.332 -13.670  -0.868  1.00  0.00     0.272 C 
BRANCH  18  19
HETATM   19  C   UNL     1      39.118 -14.479  -2.105  1.00  0.00    -0.015 A 
HETATM   20  C   UNL     1      40.166 -15.178  -2.694  1.00  0.00     0.125 A 
HETATM   21  N   UNL     1      40.044 -15.888  -3.833  1.00  0.00    -0.273 NA
HETATM   22  C   UNL     1      38.826 -15.929  -4.414  1.00  0.00     0.116 A 
HETATM   23  C   UNL     1      37.719 -15.272  -3.908  1.00  0.00     0.020 A 
HETATM   24  C   UNL     1      37.870 -14.532  -2.738  1.00  0.00     0.012 A 
ENDBRANCH  18  19
ENDBRANCH  15  18
ENDBRANCH  14  15
ENDBRANCH  11  14
ENDBRANCH   2  10
BRANCH   1  25
HETATM   25  C   UNL     1      43.129 -15.464   4.030  1.00  0.00     0.259 C 
HETATM   26  N   UNL     1      42.944 -16.717   4.574  1.00  0.00    -0.322 N 
HETATM   27  H   UNL     1      42.291 -16.793   5.334  1.00  0.00     0.169 HD
HETATM   28  O   UNL     1      43.628 -15.253   2.922  1.00  0.00    -0.267 OA
BRANCH  26  29
HETATM   29  C   UNL     1      43.290 -17.945   3.963  1.00  0.00     0.041 A 
HETATM   30  C   UNL     1      44.228 -18.865   4.463  1.00  0.00    -0.035 A 
HETATM   31  C   UNL     1      44.533 -20.008   3.695  1.00  0.00     0.015 A 
HETATM   32  C   UNL     1      44.894 -18.758   5.807  1.00  0.00     0.050 C 
HETATM   33  C   UNL     1      43.872 -20.283   2.493  1.00  0.00    -0.061 A 
HETATM   34  C   UNL     1      44.241 -21.485   1.676  1.00  0.00     0.048 C 
HETATM   35  C   UNL     1      42.892 -19.398   2.047  1.00  0.00     0.009 A 
HETATM   36  C   UNL     1      42.594 -18.250   2.784  1.00  0.00     0.030 A 
ENDBRANCH  26  29
ENDBRANCH   1  25
BRANCH   8  37
HETATM   37  C   UNL     1      44.432 -11.492   9.760  1.00  0.00    -0.047 C 
HETATM   38  C   UNL     1      45.822 -10.823   9.848  1.00  0.00     0.015 C 
HETATM   39  C   UNL     1      43.379 -10.389  10.006  1.00  0.00     0.015 C 
HETATM   40  C   UNL     1      44.328 -12.522  10.900  1.00  0.00     0.015 C 
ENDBRANCH   8  37
TORSDOF 8
ENDMDL
MODEL 4
REMARK VINA RESULT:      -8.9      3.415      7.172
REMARK  8 active torsions:
REMARK  status: ('A' for Active; 'I' for Inactive)
REMARK    1  A    between atoms: C_6  and  N_7 
REMARK       I    between atoms: N_7  and  C_8 
REMARK    2  A    between atoms: C_8  and  C_9 
REMARK    3  A    between atoms: C_10  and  N_11 
REMARK       I    between atoms: N_11  and  C_12 
REMARK    4  A    between atoms: C_12  and  C_13 
REMARK    5  A    between atoms: C_13  and  N_14 
REMARK    6  A    between atoms: N_14  and  C_17 
REMARK    7  A    between atoms: C_17  and  C_18 
REMARK    8  A    between atoms: C_30  and  C_31 
ROOT
HETATM    1  C   UNL     1      41.445 -14.594   2.999  1.00  0.00     0.073 A 
HETATM    2  C   UNL     1      41.499 -13.824   1.837  1.00  0.00     0.093 A 
HETATM    3  S   UNL     1      41.395 -12.163   2.119  1.00  0.00    -0.075 SA
HETATM    4  C   UNL     1      41.135 -12.404   3.779  1.00  0.00    -0.008 A 
HETATM    5  C   UNL     1      41.154 -13.741   4.139  1.00  0.00    -0.026 A 
HETATM    6  C   UNL     1      40.869 -14.133   5.561  1.00  0.00     0.041 C 
HETATM    7  C   UNL     1      40.143 -13.025   6.341  1.00  0.00     0.010 C 
HETATM    8  C   UNL     1      40.845 -11.653   6.183  1.00  0.00    -0.002 C 
HETATM    9  C   UNL     1      40.843 -11.239   4.686  1.00  0.00     0.052 C 
ENDROOT
BRANCH   2  10
HETATM   10  N   UNL     1      41.571 -14.334   0.548  1.00  0.00    -0.319 N 
HETATM   11  C   UNL     1      40.544 -14.543  -0.338  1.00  0.00     0.248 C 
HETATM   12  O   UNL     1      39.382 -14.153  -0.280  1.00  0.00    -0.271 OA
HETATM   13  H   UNL     1      42.533 -14.543   0.268  1.00  0.00     0.169 HD
BRANCH  11  14
HETATM   14  C   UNL     1      40.976 -15.330  -1.576  1.00  0.00     0.335 C 
BRANCH  14  15
HETATM   15  N   UNL     1      42.000 -14.564  -2.371  1.00  0.00    -0.063 N 
HETATM   16  H   UNL     1      42.777 -14.266  -1.771  1.00  0.00     0.278 HD
HETATM   17  H   UNL     1      42.398 -15.230  -3.056  1.00  0.00     0.278 HD
BRANCH  15  18
HETATM   18  C   UNL     1      41.456 -13.402  -3.131  1.00  0.00     0.272 C 
BRANCH  18  19
HETATM   19  C   UNL     1      42.153 -12.135  -2.762  1.00  0.00    -0.015 A 
HETATM   20  C   UNL     1      42.870 -12.031  -1.575  1.00  0.00     0.125 A 
HETATM   21  N   UNL     1      43.482 -10.902  -1.167  1.00  0.00    -0.273 NA
HETATM   22  C   UNL     1      43.401  -9.823  -1.975  1.00  0.00     0.116 A 
HETATM   23  C   UNL     1      42.716  -9.822  -3.177  1.00  0.00     0.020 A 
HETATM   24  C   UNL     1      42.078 -10.995  -3.573  1.00  0.00     0.012 A 
ENDBRANCH  18  19
ENDBRANCH  15  18
ENDBRANCH  14  15
ENDBRANCH  11  14
ENDBRANCH   2  10
BRANCH   1  25
HETATM   25  C   UNL     1      41.634 -16.061   2.899  1.00  0.00     0.259 C 
HETATM   26  N   UNL     1      42.914 -16.536   3.096  1.00  0.00    -0.322 N 
HETATM   27  H   UNL     1      43.559 -15.928   3.569  1.00  0.00     0.169 HD
HETATM   28  O   UNL     1      40.661 -16.771   2.637  1.00  0.00    -0.267 OA
BRANCH  26  29
HETATM   29  C   UNL     1      43.314 -17.891   3.030  1.00  0.00     0.041 A 
HETATM   30  C   UNL     1      43.900 -18.616   4.082  1.00  0.00    -0.035 A 
HETATM   31  C   UNL     1      44.327 -19.938   3.839  1.00  0.00     0.015 A 
HETATM   32  C   UNL     1      44.048 -18.108   5.490  1.00  0.00     0.050 C 
HETATM   33  C   UNL     1      44.114 -20.564   2.606  1.00  0.00    -0.061 A 
HETATM   34  C   UNL     1      44.613 -21.957   2.360  1.00  0.00     0.048 C 
HETATM   35  C   UNL     1      43.466 -19.855   1.595  1.00  0.00     0.009 A 
HETATM   36  C   UNL     1      43.057 -18.538   1.813  1.00  0.00     0.030 A 
ENDBRANCH  26  29
ENDBRANCH   1  25
BRANCH   8  37
HETATM   37  C   UNL     1      40.271 -10.541   7.140  1.00  0.00    -0.047 C 
HETATM   38  C   UNL     1      41.427  -9.731   7.768  1.00  0.00     0.015 C 
HETATM   39  C   UNL     1      39.397  -9.547   6.344  1.00  0.00     0.015 C 
HETATM   40  C   UNL     1      39.421 -11.123   8.286  1.00  0.00     0.015 C 
ENDBRANCH   8  37
TORSDOF 8
ENDMDL
MODEL 5
REMARK VINA RESULT:      -8.8      2.659      3.928
REMARK  8 active torsions:
REMARK  status: ('A' for Active; 'I' for Inactive)
REMARK    1  A    between atoms: C_6  and  N_7 
REMARK       I    between atoms: N_7  and  C_8 
REMARK    2  A    between atoms: C_8  and  C_9 
REMARK    3  A    between atoms: C_10  and  N_11 
REMARK       I    between atoms: N_11  and  C_12 
REMARK    4  A    between atoms: C_12  and  C_13 
REMARK    5  A    between atoms: C_13  and  N_14 
REMARK    6  A    between atoms: N_14  and  C_17 
REMARK    7  A    between atoms: C_17  and  C_18 
REMARK    8  A    between atoms: C_30  and  C_31 
ROOT
HETATM    1  C   UNL     1      40.611 -14.138   1.890  1.00  0.00     0.073 A 
HETATM    2  C   UNL     1      40.085 -13.340   2.906  1.00  0.00     0.093 A 
HETATM    3  S   UNL     1      38.799 -12.366   2.407  1.00  0.00    -0.075 SA
HETATM    4  C   UNL     1      38.978 -12.860   0.793  1.00  0.00    -0.008 A 
HETATM    5  C   UNL     1      39.992 -13.788   0.622  1.00  0.00    -0.026 A 
HETATM    6  C   UNL     1      40.330 -14.275  -0.758  1.00  0.00     0.041 C 
HETATM    7  C   UNL     1      39.806 -13.336  -1.856  1.00  0.00     0.010 C 
HETATM    8  C   UNL     1      38.312 -12.983  -1.650  1.00  0.00    -0.002 C 
HETATM    9  C   UNL     1      38.136 -12.247  -0.293  1.00  0.00     0.052 C 
ENDROOT
BRANCH   2  10
HETATM   10  N   UNL     1      40.577 -13.277   4.202  1.00  0.00    -0.319 N 
HETATM   11  C   UNL     1      41.413 -12.332   4.746  1.00  0.00     0.248 C 
HETATM   12  O   UNL     1      41.749 -11.244   4.288  1.00  0.00    -0.271 OA
HETATM   13  H   UNL     1      40.227 -14.039   4.788  1.00  0.00     0.169 HD
BRANCH  11  14
HETATM   14  C   UNL     1      41.922 -12.716   6.135  1.00  0.00     0.335 C 
BRANCH  14  15
HETATM   15  N   UNL     1      42.227 -14.189   6.210  1.00  0.00    -0.063 N 
HETATM   16  H   UNL     1      41.781 -14.610   7.033  1.00  0.00     0.278 HD
HETATM   17  H   UNL     1      41.784 -14.623   5.382  1.00  0.00     0.278 HD
BRANCH  15  18
HETATM   18  C   UNL     1      43.679 -14.526   6.177  1.00  0.00     0.272 C 
BRANCH  18  19
HETATM   19  C   UNL     1      43.928 -15.909   6.682  1.00  0.00    -0.015 A 
HETATM   20  C   UNL     1      43.174 -16.439   7.723  1.00  0.00     0.125 A 
HETATM   21  N   UNL     1      43.381 -17.662   8.250  1.00  0.00    -0.273 NA
HETATM   22  C   UNL     1      44.370 -18.410   7.717  1.00  0.00     0.116 A 
HETATM   23  C   UNL     1      45.176 -17.978   6.679  1.00  0.00     0.020 A 
HETATM   24  C   UNL     1      44.954 -16.706   6.158  1.00  0.00     0.012 A 
ENDBRANCH  18  19
ENDBRANCH  15  18
ENDBRANCH  14  15
ENDBRANCH  11  14
ENDBRANCH   2  10
BRANCH   1  25
HETATM   25  C   UNL     1      41.673 -15.118   2.222  1.00  0.00     0.259 C 
HETATM   26  N   UNL     1      41.305 -16.447   2.244  1.00  0.00    -0.322 N 
HETATM   27  H   UNL     1      40.457 -16.693   1.764  1.00  0.00     0.169 HD
HETATM   28  O   UNL     1      42.807 -14.705   2.471  1.00  0.00    -0.267 OA
BRANCH  26  29
HETATM   29  C   UNL     1      42.153 -17.536   2.549  1.00  0.00     0.041 A 
HETATM   30  C   UNL     1      42.266 -18.147   3.810  1.00  0.00    -0.035 A 
HETATM   31  C   UNL     1      43.223 -19.170   3.984  1.00  0.00     0.015 A 
HETATM   32  C   UNL     1      41.387 -17.839   4.990  1.00  0.00     0.050 C 
HETATM   33  C   UNL     1      44.001 -19.637   2.920  1.00  0.00    -0.061 A 
HETATM   34  C   UNL     1      45.039 -20.698   3.140  1.00  0.00     0.048 C 
HETATM   35  C   UNL     1      43.826 -19.069   1.659  1.00  0.00     0.009 A 
HETATM   36  C   UNL     1      42.899 -18.041   1.474  1.00  0.00     0.030 A 
ENDBRANCH  26  29
ENDBRANCH   1  25
BRANCH   8  37
HETATM   37  C   UNL     1      37.677 -12.211  -2.867  1.00  0.00    -0.047 C 
HETATM   38  C   UNL     1      38.782 -11.511  -3.689  1.00  0.00     0.015 C 
HETATM   39  C   UNL     1      36.960 -13.198  -3.813  1.00  0.00     0.015 C 
HETATM   40  C   UNL     1      36.661 -11.139  -2.427  1.00  0.00     0.015 C 
ENDBRANCH   8  37
TORSDOF 8
ENDMDL
MODEL 6
REMARK VINA RESULT:      -8.7      2.272      3.510
REMARK  8 active torsions:
REMARK  status: ('A' for Active; 'I' for Inactive)
REMARK    1  A    between atoms: C_6  and  N_7 
REMARK       I    between atoms: N_7  and  C_8 
REMARK    2  A    between atoms: C_8  and  C_9 
REMARK    3  A    between atoms: C_10  and  N_11 
REMARK       I    between atoms: N_11  and  C_12 
REMARK    4  A    between atoms: C_12  and  C_13 
REMARK    5  A    between atoms: C_13  and  N_14 
REMARK    6  A    between atoms: N_14  and  C_17 
REMARK    7  A    between atoms: C_17  and  C_18 
REMARK    8  A    between atoms: C_30  and  C_31 
ROOT
HETATM    1  C   UNL     1      40.816 -14.394   2.672  1.00  0.00     0.073 A 
HETATM    2  C   UNL     1      39.921 -13.455   3.183  1.00  0.00     0.093 A 
HETATM    3  S   UNL     1      38.821 -12.874   2.041  1.00  0.00    -0.075 SA
HETATM    4  C   UNL     1      39.576 -13.741   0.792  1.00  0.00    -0.008 A 
HETATM    5  C   UNL     1      40.647 -14.500   1.232  1.00  0.00    -0.026 A 
HETATM    6  C   UNL     1      41.470 -15.272   0.241  1.00  0.00     0.041 C 
HETATM    7  C   UNL     1      41.292 -14.757  -1.197  1.00  0.00     0.010 C 
HETATM    8  C   UNL     1      39.798 -14.614  -1.578  1.00  0.00    -0.002 C 
HETATM    9  C   UNL     1      39.118 -13.585  -0.633  1.00  0.00     0.052 C 
ENDROOT
BRANCH   2  10
HETATM   10  N   UNL     1      39.934 -12.970   4.484  1.00  0.00    -0.319 N 
HETATM   11  C   UNL     1      40.632 -11.898   4.981  1.00  0.00     0.248 C 
HETATM   12  O   UNL     1      41.232 -11.017   4.372  1.00  0.00    -0.271 OA
HETATM   13  H   UNL     1      39.314 -13.502   5.101  1.00  0.00     0.169 HD
BRANCH  11  14
HETATM   14  C   UNL     1      40.575 -11.805   6.506  1.00  0.00     0.335 C 
BRANCH  14  15
HETATM   15  N   UNL     1      41.961 -11.792   7.097  1.00  0.00    -0.063 N 
HETATM   16  H   UNL     1      42.203 -12.715   7.474  1.00  0.00     0.278 HD
HETATM   17  H   UNL     1      42.612 -11.614   6.314  1.00  0.00     0.278 HD
BRANCH  15  18
HETATM   18  C   UNL     1      42.187 -10.736   8.125  1.00  0.00     0.272 C 
BRANCH  18  19
HETATM   19  C   UNL     1      43.304 -11.104   9.047  1.00  0.00    -0.015 A 
HETATM   20  C   UNL     1      44.218 -12.094   8.705  1.00  0.00     0.125 A 
HETATM   21  N   UNL     1      45.218 -12.500   9.512  1.00  0.00    -0.273 NA
HETATM   22  C   UNL     1      45.338 -11.890  10.710  1.00  0.00     0.116 A 
HETATM   23  C   UNL     1      44.483 -10.892  11.144  1.00  0.00     0.020 A 
HETATM   24  C   UNL     1      43.448 -10.498  10.301  1.00  0.00     0.012 A 
ENDBRANCH  18  19
ENDBRANCH  15  18
ENDBRANCH  14  15
ENDBRANCH  11  14
ENDBRANCH   2  10
BRANCH   1  25
HETATM   25  C   UNL     1      41.764 -15.062   3.597  1.00  0.00     0.259 C 
HETATM   26  N   UNL     1      41.366 -16.272   4.125  1.00  0.00    -0.322 N 
HETATM   27  H   UNL     1      40.626 -16.757   3.648  1.00  0.00     0.169 HD
HETATM   28  O   UNL     1      42.835 -14.508   3.854  1.00  0.00    -0.267 OA
BRANCH  26  29
HETATM   29  C   UNL     1      42.107 -17.063   5.033  1.00  0.00     0.041 A 
HETATM   30  C   UNL     1      42.953 -18.128   4.678  1.00  0.00    -0.035 A 
HETATM   31  C   UNL     1      43.559 -18.884   5.704  1.00  0.00     0.015 A 
HETATM   32  C   UNL     1      43.323 -18.490   3.266  1.00  0.00     0.050 C 
HETATM   33  C   UNL     1      43.398 -18.552   7.053  1.00  0.00    -0.061 A 
HETATM   34  C   UNL     1      44.021 -19.394   8.127  1.00  0.00     0.048 C 
HETATM   35  C   UNL     1      42.613 -17.449   7.386  1.00  0.00     0.009 A 
HETATM   36  C   UNL     1      41.989 -16.704   6.383  1.00  0.00     0.030 A 
ENDBRANCH  26  29
ENDBRANCH   1  25
BRANCH   8  37
HETATM   37  C   UNL     1      39.567 -14.308  -3.106  1.00  0.00    -0.047 C 
HETATM   38  C   UNL     1      38.299 -13.443  -3.289  1.00  0.00     0.015 C 
HETATM   39  C   UNL     1      40.755 -13.504  -3.677  1.00  0.00     0.015 C 
HETATM   40  C   UNL     1      39.396 -15.585  -3.950  1.00  0.00     0.015 C 
ENDBRANCH   8  37
TORSDOF 8
ENDMDL
MODEL 7
REMARK VINA RESULT:      -8.6      3.367      8.094
REMARK  8 active torsions:
REMARK  status: ('A' for Active; 'I' for Inactive)
REMARK    1  A    between atoms: C_6  and  N_7 
REMARK       I    between atoms: N_7  and  C_8 
REMARK    2  A    between atoms: C_8  and  C_9 
REMARK    3  A    between atoms: C_10  and  N_11 
REMARK       I    between atoms: N_11  and  C_12 
REMARK    4  A    between atoms: C_12  and  C_13 
REMARK    5  A    between atoms: C_13  and  N_14 
REMARK    6  A    between atoms: N_14  and  C_17 
REMARK    7  A    between atoms: C_17  and  C_18 
REMARK    8  A    between atoms: C_30  and  C_31 
ROOT
HETATM    1  C   UNL     1      41.536 -14.218   3.542  1.00  0.00     0.073 A 
HETATM    2  C   UNL     1      41.567 -13.611   2.287  1.00  0.00     0.093 A 
HETATM    3  S   UNL     1      41.366 -11.936   2.339  1.00  0.00    -0.075 SA
HETATM    4  C   UNL     1      41.091 -11.964   4.014  1.00  0.00    -0.008 A 
HETATM    5  C   UNL     1      41.179 -13.237   4.553  1.00  0.00    -0.026 A 
HETATM    6  C   UNL     1      40.891 -13.449   6.012  1.00  0.00     0.041 C 
HETATM    7  C   UNL     1      40.091 -12.290   6.627  1.00  0.00     0.010 C 
HETATM    8  C   UNL     1      40.718 -10.913   6.290  1.00  0.00    -0.002 C 
HETATM    9  C   UNL     1      40.719 -10.707   4.751  1.00  0.00     0.052 C 
ENDROOT
BRANCH   2  10
HETATM   10  N   UNL     1      41.690 -14.286   1.080  1.00  0.00    -0.319 N 
HETATM   11  C   UNL     1      40.691 -14.812   0.299  1.00  0.00     0.248 C 
HETATM   12  O   UNL     1      39.478 -14.638   0.375  1.00  0.00    -0.271 OA
HETATM   13  H   UNL     1      42.663 -14.353   0.771  1.00  0.00     0.169 HD
BRANCH  11  14
HETATM   14  C   UNL     1      41.222 -15.681  -0.842  1.00  0.00     0.335 C 
BRANCH  14  15
HETATM   15  N   UNL     1      41.647 -14.834  -2.013  1.00  0.00    -0.063 N 
HETATM   16  H   UNL     1      41.397 -13.850  -1.858  1.00  0.00     0.278 HD
HETATM   17  H   UNL     1      42.680 -14.873  -2.044  1.00  0.00     0.278 HD
BRANCH  15  18
HETATM   18  C   UNL     1      41.135 -15.298  -3.334  1.00  0.00     0.272 C 
BRANCH  18  19
HETATM   19  C   UNL     1      39.714 -14.889  -3.543  1.00  0.00    -0.015 A 
HETATM   20  C   UNL     1      38.798 -15.755  -4.129  1.00  0.00     0.125 A 
HETATM   21  N   UNL     1      37.516 -15.427  -4.383  1.00  0.00    -0.273 NA
HETATM   22  C   UNL     1      37.107 -14.190  -4.029  1.00  0.00     0.116 A 
HETATM   23  C   UNL     1      37.938 -13.255  -3.439  1.00  0.00     0.020 A 
HETATM   24  C   UNL     1      39.263 -13.609  -3.197  1.00  0.00     0.012 A 
ENDBRANCH  18  19
ENDBRANCH  15  18
ENDBRANCH  14  15
ENDBRANCH  11  14
ENDBRANCH   2  10
BRANCH   1  25
HETATM   25  C   UNL     1      41.809 -15.672   3.644  1.00  0.00     0.259 C 
HETATM   26  N   UNL     1      43.134 -16.054   3.675  1.00  0.00    -0.322 N 
HETATM   27  H   UNL     1      43.806 -15.349   3.918  1.00  0.00     0.169 HD
HETATM   28  O   UNL     1      40.857 -16.455   3.683  1.00  0.00    -0.267 OA
BRANCH  26  29
HETATM   29  C   UNL     1      43.611 -17.383   3.754  1.00  0.00     0.041 A 
HETATM   30  C   UNL     1      43.844 -18.228   2.655  1.00  0.00    -0.035 A 
HETATM   31  C   UNL     1      44.237 -19.561   2.897  1.00  0.00     0.015 A 
HETATM   32  C   UNL     1      43.770 -17.797   1.216  1.00  0.00     0.050 C 
HETATM   33  C   UNL     1      44.473 -20.034   4.191  1.00  0.00    -0.061 A 
HETATM   34  C   UNL     1      44.853 -21.467   4.425  1.00  0.00     0.048 C 
HETATM   35  C   UNL     1      44.307 -19.163   5.267  1.00  0.00     0.009 A 
HETATM   36  C   UNL     1      43.897 -17.846   5.046  1.00  0.00     0.030 A 
ENDBRANCH  26  29
ENDBRANCH   1  25
BRANCH   8  37
HETATM   37  C   UNL     1      40.066  -9.718   7.082  1.00  0.00    -0.047 C 
HETATM   38  C   UNL     1      41.158  -8.722   7.535  1.00  0.00     0.015 C 
HETATM   39  C   UNL     1      39.089  -8.941   6.172  1.00  0.00     0.015 C 
HETATM   40  C   UNL     1      39.297 -10.181   8.334  1.00  0.00     0.015 C 
ENDBRANCH   8  37
TORSDOF 8
ENDMDL
MODEL 8
REMARK VINA RESULT:      -8.6      2.259      7.121
REMARK  8 active torsions:
REMARK  status: ('A' for Active; 'I' for Inactive)
REMARK    1  A    between atoms: C_6  and  N_7 
REMARK       I    between atoms: N_7  and  C_8 
REMARK    2  A    between atoms: C_8  and  C_9 
REMARK    3  A    between atoms: C_10  and  N_11 
REMARK       I    between atoms: N_11  and  C_12 
REMARK    4  A    between atoms: C_12  and  C_13 
REMARK    5  A    between atoms: C_13  and  N_14 
REMARK    6  A    between atoms: N_14  and  C_17 
REMARK    7  A    between atoms: C_17  and  C_18 
REMARK    8  A    between atoms: C_30  and  C_31 
ROOT
HETATM    1  C   UNL     1      41.190 -15.748   3.108  1.00  0.00     0.073 A 
HETATM    2  C   UNL     1      40.876 -15.666   4.465  1.00  0.00     0.093 A 
HETATM    3  S   UNL     1      41.636 -16.841   5.409  1.00  0.00    -0.075 SA
HETATM    4  C   UNL     1      42.302 -17.591   4.040  1.00  0.00    -0.008 A 
HETATM    5  C   UNL     1      41.980 -16.942   2.859  1.00  0.00    -0.026 A 
HETATM    6  C   UNL     1      42.431 -17.517   1.547  1.00  0.00     0.041 C 
HETATM    7  C   UNL     1      42.807 -19.004   1.656  1.00  0.00     0.010 C 
HETATM    8  C   UNL     1      43.773 -19.269   2.838  1.00  0.00    -0.002 C 
HETATM    9  C   UNL     1      43.083 -18.870   4.171  1.00  0.00     0.052 C 
ENDROOT
BRANCH   2  10
HETATM   10  N   UNL     1      39.983 -14.759   5.021  1.00  0.00    -0.319 N 
HETATM   11  C   UNL     1      40.263 -13.559   5.626  1.00  0.00     0.248 C 
HETATM   12  O   UNL     1      41.315 -12.927   5.638  1.00  0.00    -0.271 OA
HETATM   13  H   UNL     1      39.011 -15.062   4.922  1.00  0.00     0.169 HD
BRANCH  11  14
HETATM   14  C   UNL     1      39.047 -12.943   6.319  1.00  0.00     0.335 C 
BRANCH  14  15
HETATM   15  N   UNL     1      39.341 -12.656   7.768  1.00  0.00    -0.063 N 
HETATM   16  H   UNL     1      38.662 -13.129   8.376  1.00  0.00     0.278 HD
HETATM   17  H   UNL     1      40.262 -13.080   7.971  1.00  0.00     0.278 HD
BRANCH  15  18
HETATM   18  C   UNL     1      39.423 -11.207   8.110  1.00  0.00     0.272 C 
BRANCH  18  19
HETATM   19  C   UNL     1      40.674 -10.896   8.864  1.00  0.00    -0.015 A 
HETATM   20  C   UNL     1      41.872 -10.661   8.199  1.00  0.00     0.125 A 
HETATM   21  N   UNL     1      43.041 -10.420   8.825  1.00  0.00    -0.273 NA
HETATM   22  C   UNL     1      43.030 -10.390  10.174  1.00  0.00     0.116 A 
HETATM   23  C   UNL     1      41.892 -10.608  10.931  1.00  0.00     0.020 A 
HETATM   24  C   UNL     1      40.698 -10.870  10.265  1.00  0.00     0.012 A 
ENDBRANCH  18  19
ENDBRANCH  15  18
ENDBRANCH  14  15
ENDBRANCH  11  14
ENDBRANCH   2  10
BRANCH   1  25
HETATM   25  C   UNL     1      40.673 -14.707   2.186  1.00  0.00     0.259 C 
HETATM   26  N   UNL     1      39.641 -15.078   1.350  1.00  0.00    -0.322 N 
HETATM   27  H   UNL     1      39.119 -15.898   1.605  1.00  0.00     0.169 HD
HETATM   28  O   UNL     1      41.189 -13.588   2.203  1.00  0.00    -0.267 OA
BRANCH  26  29
HETATM   29  C   UNL     1      39.016 -14.249   0.390  1.00  0.00     0.041 A 
HETATM   30  C   UNL     1      39.460 -14.060  -0.931  1.00  0.00    -0.035 A 
HETATM   31  C   UNL     1      38.780 -13.131  -1.748  1.00  0.00     0.015 A 
HETATM   32  C   UNL     1      40.579 -14.831  -1.573  1.00  0.00     0.050 C 
HETATM   33  C   UNL     1      37.639 -12.458  -1.302  1.00  0.00    -0.061 A 
HETATM   34  C   UNL     1      36.957 -11.447  -2.176  1.00  0.00     0.048 C 
HETATM   35  C   UNL     1      37.169 -12.711  -0.014  1.00  0.00     0.009 A 
HETATM   36  C   UNL     1      37.842 -13.610   0.815  1.00  0.00     0.030 A 
ENDBRANCH  26  29
ENDBRANCH   1  25
BRANCH   8  37
HETATM   37  C   UNL     1      44.361 -20.730   2.851  1.00  0.00    -0.047 C 
HETATM   38  C   UNL     1      44.381 -21.283   4.294  1.00  0.00     0.015 C 
HETATM   39  C   UNL     1      43.471 -21.674   2.013  1.00  0.00     0.015 C 
HETATM   40  C   UNL     1      45.796 -20.800   2.297  1.00  0.00     0.015 C 
ENDBRANCH   8  37
TORSDOF 8
ENDMDL
MODEL 9
REMARK VINA RESULT:      -8.5      2.110      2.865
REMARK  8 active torsions:
REMARK  status: ('A' for Active; 'I' for Inactive)
REMARK    1  A    between atoms: C_6  and  N_7 
REMARK       I    between atoms: N_7  and  C_8 
REMARK    2  A    between atoms: C_8  and  C_9 
REMARK    3  A    between atoms: C_10  and  N_11 
REMARK       I    between atoms: N_11  and  C_12 
REMARK    4  A    between atoms: C_12  and  C_13 
REMARK    5  A    between atoms: C_13  and  N_14 
REMARK    6  A    between atoms: N_14  and  C_17 
REMARK    7  A    between atoms: C_17  and  C_18 
REMARK    8  A    between atoms: C_30  and  C_31 
ROOT
HETATM    1  C   UNL     1      41.353 -14.136   2.361  1.00  0.00     0.073 A 
HETATM    2  C   UNL     1      41.000 -13.012   3.107  1.00  0.00     0.093 A 
HETATM    3  S   UNL     1      39.795 -12.072   2.389  1.00  0.00    -0.075 SA
HETATM    4  C   UNL     1      39.791 -13.041   0.996  1.00  0.00    -0.008 A 
HETATM    5  C   UNL     1      40.680 -14.101   1.073  1.00  0.00    -0.026 A 
HETATM    6  C   UNL     1      40.852 -15.016  -0.105  1.00  0.00     0.041 C 
HETATM    7  C   UNL     1      40.352 -14.385  -1.415  1.00  0.00     0.010 C 
HETATM    8  C   UNL     1      38.927 -13.796  -1.264  1.00  0.00    -0.002 C 
HETATM    9  C   UNL     1      38.940 -12.675  -0.189  1.00  0.00     0.052 C 
ENDROOT
BRANCH   2  10
HETATM   10  N   UNL     1      41.597 -12.631   4.301  1.00  0.00    -0.319 N 
HETATM   11  C   UNL     1      41.016 -12.520   5.540  1.00  0.00     0.248 C 
HETATM   12  O   UNL     1      39.915 -12.913   5.915  1.00  0.00    -0.271 OA
HETATM   13  H   UNL     1      42.596 -12.442   4.192  1.00  0.00     0.169 HD
BRANCH  11  14
HETATM   14  C   UNL     1      41.930 -11.856   6.570  1.00  0.00     0.335 C 
BRANCH  14  15
HETATM   15  N   UNL     1      41.155 -11.447   7.795  1.00  0.00    -0.063 N 
HETATM   16  H   UNL     1      40.163 -11.311   7.568  1.00  0.00     0.278 HD
HETATM   17  H   UNL     1      41.199 -12.246   8.451  1.00  0.00     0.278 HD
BRANCH  15  18
HETATM   18  C   UNL     1      41.695 -10.250   8.502  1.00  0.00     0.272 C 
BRANCH  18  19
HETATM   19  C   UNL     1      42.257 -10.613   9.837  1.00  0.00    -0.015 A 
HETATM   20  C   UNL     1      41.423 -10.958  10.895  1.00  0.00     0.125 A 
HETATM   21  N   UNL     1      41.868 -11.252  12.133  1.00  0.00    -0.273 NA
HETATM   22  C   UNL     1      43.201 -11.221  12.339  1.00  0.00     0.116 A 
HETATM   23  C   UNL     1      44.116 -10.893  11.354  1.00  0.00     0.020 A 
HETATM   24  C   UNL     1      43.635 -10.579  10.086  1.00  0.00     0.012 A 
ENDBRANCH  18  19
ENDBRANCH  15  18
ENDBRANCH  14  15
ENDBRANCH  11  14
ENDBRANCH   2  10
BRANCH   1  25
HETATM   25  C   UNL     1      42.323 -15.102   2.932  1.00  0.00     0.259 C 
HETATM   26  N   UNL     1      41.917 -16.418   3.003  1.00  0.00    -0.322 N 
HETATM   27  H   UNL     1      41.145 -16.690   2.420  1.00  0.00     0.169 HD
HETATM   28  O   UNL     1      43.418 -14.689   3.318  1.00  0.00    -0.267 OA
BRANCH  26  29
HETATM   29  C   UNL     1      42.676 -17.492   3.524  1.00  0.00     0.041 A 
HETATM   30  C   UNL     1      43.561 -18.295   2.783  1.00  0.00    -0.035 A 
HETATM   31  C   UNL     1      44.183 -19.387   3.422  1.00  0.00     0.015 A 
HETATM   32  C   UNL     1      43.955 -18.036   1.355  1.00  0.00     0.050 C 
HETATM   33  C   UNL     1      43.999 -19.642   4.785  1.00  0.00    -0.061 A 
HETATM   34  C   UNL     1      44.641 -20.833   5.433  1.00  0.00     0.048 C 
HETATM   35  C   UNL     1      43.175 -18.794   5.523  1.00  0.00     0.009 A 
HETATM   36  C   UNL     1      42.534 -17.721   4.900  1.00  0.00     0.030 A 
ENDBRANCH  26  29
ENDBRANCH   1  25
BRANCH   8  37
HETATM   37  C   UNL     1      38.287 -13.345  -2.631  1.00  0.00    -0.047 C 
HETATM   38  C   UNL     1      37.237 -12.237  -2.387  1.00  0.00     0.015 C 
HETATM   39  C   UNL     1      39.369 -12.752  -3.560  1.00  0.00     0.015 C 
HETATM   40  C   UNL     1      37.593 -14.502  -3.374  1.00  0.00     0.015 C 
ENDBRANCH   8  37
TORSDOF 8
ENDMDL
MODEL 10
REMARK VINA RESULT:      -8.4      3.348      8.444
REMARK  8 active torsions:
REMARK  status: ('A' for Active; 'I' for Inactive)
REMARK    1  A    between atoms: C_6  and  N_7 
REMARK       I    between atoms: N_7  and  C_8 
REMARK    2  A    between atoms: C_8  and  C_9 
REMARK    3  A    between atoms: C_10  and  N_11 
REMARK       I    between atoms: N_11  and  C_12 
REMARK    4  A    between atoms: C_12  and  C_13 
REMARK    5  A    between atoms: C_13  and  N_14 
REMARK    6  A    between atoms: N_14  and  C_17 
REMARK    7  A    between atoms: C_17  and  C_18 
REMARK    8  A    between atoms: C_30  and  C_31 
ROOT
HETATM    1  C   UNL     1      41.429 -14.152   3.100  1.00  0.00     0.073 A 
HETATM    2  C   UNL     1      41.099 -13.608   1.859  1.00  0.00     0.093 A 
HETATM    3  S   UNL     1      40.920 -11.930   1.880  1.00  0.00    -0.075 SA
HETATM    4  C   UNL     1      41.135 -11.871   3.562  1.00  0.00    -0.008 A 
HETATM    5  C   UNL     1      41.374 -13.117   4.119  1.00  0.00    -0.026 A 
HETATM    6  C   UNL     1      41.516 -13.252   5.608  1.00  0.00     0.041 C 
HETATM    7  C   UNL     1      40.923 -12.052   6.365  1.00  0.00     0.010 C 
HETATM    8  C   UNL     1      41.426 -10.703   5.793  1.00  0.00    -0.002 C 
HETATM    9  C   UNL     1      40.987 -10.573   4.309  1.00  0.00     0.052 C 
ENDROOT
BRANCH   2  10
HETATM   10  N   UNL     1      40.873 -14.344   0.704  1.00  0.00    -0.319 N 
HETATM   11  C   UNL     1      41.342 -14.097  -0.563  1.00  0.00     0.248 C 
HETATM   12  O   UNL     1      42.211 -13.308  -0.925  1.00  0.00    -0.271 OA
HETATM   13  H   UNL     1      40.298 -15.172   0.878  1.00  0.00     0.169 HD
BRANCH  11  14
HETATM   14  C   UNL     1      40.700 -14.993  -1.622  1.00  0.00     0.335 C 
BRANCH  14  15
HETATM   15  N   UNL     1      39.216 -14.751  -1.705  1.00  0.00    -0.063 N 
HETATM   16  H   UNL     1      38.759 -15.487  -2.255  1.00  0.00     0.278 HD
HETATM   17  H   UNL     1      38.850 -14.836  -0.741  1.00  0.00     0.278 HD
BRANCH  15  18
HETATM   18  C   UNL     1      38.833 -13.405  -2.218  1.00  0.00     0.272 C 
BRANCH  18  19
HETATM   19  C   UNL     1      37.715 -13.495  -3.205  1.00  0.00    -0.015 A 
HETATM   20  C   UNL     1      37.400 -14.701  -3.821  1.00  0.00     0.125 A 
HETATM   21  N   UNL     1      36.433 -14.836  -4.750  1.00  0.00    -0.273 NA
HETATM   22  C   UNL     1      35.728 -13.733  -5.079  1.00  0.00     0.116 A 
HETATM   23  C   UNL     1      35.960 -12.487  -4.524  1.00  0.00     0.020 A 
HETATM   24  C   UNL     1      36.973 -12.367  -3.576  1.00  0.00     0.012 A 
ENDBRANCH  18  19
ENDBRANCH  15  18
ENDBRANCH  14  15
ENDBRANCH  11  14
ENDBRANCH   2  10
BRANCH   1  25
HETATM   25  C   UNL     1      41.721 -15.603   3.195  1.00  0.00     0.259 C 
HETATM   26  N   UNL     1      43.037 -15.957   3.408  1.00  0.00    -0.322 N 
HETATM   27  H   UNL     1      43.648 -15.247   3.769  1.00  0.00     0.169 HD
HETATM   28  O   UNL     1      40.795 -16.406   3.069  1.00  0.00    -0.267 OA
BRANCH  26  29
HETATM   29  C   UNL     1      43.531 -17.278   3.514  1.00  0.00     0.041 A 
HETATM   30  C   UNL     1      43.804 -18.132   2.431  1.00  0.00    -0.035 A 
HETATM   31  C   UNL     1      44.211 -19.456   2.698  1.00  0.00     0.015 A 
HETATM   32  C   UNL     1      43.760 -17.718   0.986  1.00  0.00     0.050 C 
HETATM   33  C   UNL     1      44.421 -19.911   4.004  1.00  0.00    -0.061 A 
HETATM   34  C   UNL     1      44.816 -21.335   4.263  1.00  0.00     0.048 C 
HETATM   35  C   UNL     1      44.216 -19.030   5.064  1.00  0.00     0.009 A 
HETATM   36  C   UNL     1      43.791 -17.722   4.818  1.00  0.00     0.030 A 
ENDBRANCH  26  29
ENDBRANCH   1  25
BRANCH   8  37
HETATM   37  C   UNL     1      41.026  -9.461   6.675  1.00  0.00    -0.047 C 
HETATM   38  C   UNL     1      41.544  -8.158   6.024  1.00  0.00     0.015 C 
HETATM   39  C   UNL     1      39.490  -9.343   6.772  1.00  0.00     0.015 C 
HETATM   40  C   UNL     1      41.597  -9.536   8.104  1.00  0.00     0.015 C 
ENDBRANCH   8  37
TORSDOF 8
ENDMDL
