MODEL 1
REMARK VINA RESULT:      -7.3      0.000      0.000
REMARK  10 active torsions:
REMARK  status: ('A' for Active; 'I' for Inactive)
REMARK    1  A    between atoms: C_6  and  C_7 
REMARK    2  A    between atoms: C_7  and  C_8 
REMARK       I    between atoms: C_8  and  N_9 
REMARK    3  A    between atoms: N_9  and  C_10 
REMARK    4  A    between atoms: C_10  and  C_11 
REMARK    5  A    between atoms: C_11  and  N_12 
REMARK    6  A    between atoms: C_19  and  C_20 
REMARK    7  A    between atoms: C_29  and  C_30 
REMARK    8  A    between atoms: C_30  and  O_31 
REMARK    9  A    between atoms: O_31  and  C_32 
REMARK   10  A    between atoms: C_32  and  C_33 
ROOT
HETATM    1  C   UNL     1      40.556 -14.566   6.294  1.00  0.00     0.071 C 
HETATM    2  C   UNL     1      40.950 -14.781   4.855  1.00  0.00     0.048 C 
HETATM    3  N   UNL     1      39.883 -15.046   4.006  1.00  0.00    -0.229 NA
HETATM    4  C   UNL     1      40.079 -14.855   2.746  1.00  0.00     0.170 C 
HETATM    5  N   UNL     1      41.439 -14.389   2.171  1.00  0.00    -0.319 N 
HETATM    6  C   UNL     1      41.238 -13.528   1.232  1.00  0.00     0.011 C 
HETATM    7  C   UNL     1      42.570 -14.918   2.961  1.00  0.00     0.166 C 
HETATM    8  S   UNL     1      38.831 -14.753   1.558  1.00  0.00    -0.086 SA
HETATM    9  C   UNL     1      39.858 -13.589   0.592  1.00  0.00     0.135 C 
HETATM   10  C   UNL     1      42.219 -14.691   4.399  1.00  0.00     0.069 C 
ENDROOT
BRANCH   6  11
HETATM   11  C   UNL     1      42.285 -12.513   0.871  1.00  0.00     0.156 C 
BRANCH  11  12
HETATM   12  C   UNL     1      42.024 -11.933  -0.509  1.00  0.00     0.223 C 
HETATM   13  N   UNL     1      42.495 -12.665  -1.583  1.00  0.00    -0.359 N 
HETATM   14  H   UNL     1      42.546 -13.674  -1.468  1.00  0.00     0.162 HD
HETATM   15  O   UNL     1      41.562 -10.805  -0.626  1.00  0.00    -0.273 OA
BRANCH  13  16
HETATM   16  C   UNL     1      42.262 -12.170  -2.947  1.00  0.00     0.150 C 
BRANCH  16  17
HETATM   17  C   UNL     1      41.403 -13.114  -3.815  1.00  0.00     0.254 C 
BRANCH  17  18
HETATM   18  N   UNL     1      40.444 -13.938  -2.986  1.00  0.00    -0.070 N 
HETATM   19  H   UNL     1      40.582 -13.704  -1.991  1.00  0.00     0.279 HD
HETATM   20  C   UNL     1      40.609 -15.448  -3.117  1.00  0.00     0.235 C 
HETATM   21  C   UNL     1      39.354 -15.910  -3.827  1.00  0.00     0.029 C 
HETATM   22  C   UNL     1      38.291 -14.986  -3.275  1.00  0.00     0.029 C 
HETATM   23  C   UNL     1      38.976 -13.633  -3.291  1.00  0.00     0.235 C 
ENDBRANCH  17  18
ENDBRANCH  16  17
ENDBRANCH  13  16
ENDBRANCH  11  12
ENDBRANCH   6  11
BRANCH   7  24
HETATM   24  C   UNL     1      42.799 -16.397   2.593  1.00  0.00    -0.030 A 
HETATM   25  C   UNL     1      42.570 -17.417   3.539  1.00  0.00     0.011 A 
HETATM   26  C   UNL     1      42.871 -18.755   3.250  1.00  0.00     0.024 A 
HETATM   27  C   UNL     1      43.380 -19.103   2.003  1.00  0.00     0.034 A 
HETATM   28 CL   UNL     1      43.782 -20.738   1.663  1.00  0.00    -0.084 Cl
HETATM   29  C   UNL     1      43.569 -18.129   1.034  1.00  0.00     0.024 A 
HETATM   30  C   UNL     1      43.276 -16.790   1.322  1.00  0.00     0.011 A 
ENDBRANCH   7  24
BRANCH  10  31
HETATM   31  C   UNL     1      43.349 -14.310   5.256  1.00  0.00     0.294 C 
HETATM   32  O   UNL     1      43.663 -13.164   5.501  1.00  0.00    -0.259 OA
BRANCH  31  33
HETATM   33  O   UNL     1      43.876 -15.451   5.754  1.00  0.00    -0.314 OA
BRANCH  33  34
HETATM   34  C   UNL     1      44.128 -15.384   7.166  1.00  0.00     0.206 C 
BRANCH  34  35
HETATM   35  C   UNL     1      43.467 -16.543   7.857  1.00  0.00    -0.011 C 
HETATM   36  C   UNL     1      42.778 -17.545   7.291  1.00  0.00     0.009 C 
ENDBRANCH  34  35
ENDBRANCH  33  34
ENDBRANCH  31  33
ENDBRANCH  10  31
TORSDOF 10
ENDMDL
MODEL 2
REMARK VINA RESULT:      -7.1      3.416      8.062
REMARK  10 active torsions:
REMARK  status: ('A' for Active; 'I' for Inactive)
REMARK    1  A    between atoms: C_6  and  C_7 
REMARK    2  A    between atoms: C_7  and  C_8 
REMARK       I    between atoms: C_8  and  N_9 
REMARK    3  A    between atoms: N_9  and  C_10 
REMARK    4  A    between atoms: C_10  and  C_11 
REMARK    5  A    between atoms: C_11  and  N_12 
REMARK    6  A    between atoms: C_19  and  C_20 
REMARK    7  A    between atoms: C_29  and  C_30 
REMARK    8  A    between atoms: C_30  and  O_31 
REMARK    9  A    between atoms: O_31  and  C_32 
REMARK   10  A    between atoms: C_32  and  C_33 
ROOT
HETATM    1  C   UNL     1      42.146 -12.611   0.342  1.00  0.00     0.071 C 
HETATM    2  C   UNL     1      41.998 -13.550   1.512  1.00  0.00     0.048 C 
HETATM    3  N   UNL     1      43.039 -13.483   2.430  1.00  0.00    -0.229 NA
HETATM    4  C   UNL     1      42.805 -13.944   3.611  1.00  0.00     0.170 C 
HETATM    5  N   UNL     1      41.450 -14.580   4.008  1.00  0.00    -0.319 N 
HETATM    6  C   UNL     1      41.129 -14.203   5.199  1.00  0.00     0.011 C 
HETATM    7  C   UNL     1      40.830 -15.287   2.869  1.00  0.00     0.166 C 
HETATM    8  S   UNL     1      43.783 -13.641   5.000  1.00  0.00    -0.086 SA
HETATM    9  C   UNL     1      42.295 -13.733   6.058  1.00  0.00     0.135 C 
HETATM   10  C   UNL     1      40.936 -14.365   1.695  1.00  0.00     0.069 C 
ENDROOT
BRANCH   6  11
HETATM   11  C   UNL     1      39.695 -14.179   5.647  1.00  0.00     0.156 C 
BRANCH  11  12
HETATM   12  C   UNL     1      39.343 -12.837   6.265  1.00  0.00     0.223 C 
HETATM   13  N   UNL     1      39.515 -12.724   7.632  1.00  0.00    -0.359 N 
HETATM   14  H   UNL     1      40.247 -13.290   8.053  1.00  0.00     0.162 HD
HETATM   15  O   UNL     1      38.791 -11.974   5.592  1.00  0.00    -0.273 OA
BRANCH  13  16
HETATM   16  C   UNL     1      39.209 -11.447   8.292  1.00  0.00     0.150 C 
BRANCH  16  17
HETATM   17  C   UNL     1      40.438 -10.533   8.483  1.00  0.00     0.254 C 
BRANCH  17  18
HETATM   18  N   UNL     1      41.486 -11.163   9.374  1.00  0.00    -0.070 N 
HETATM   19  H   UNL     1      41.425 -12.188   9.282  1.00  0.00     0.279 HD
HETATM   20  C   UNL     1      41.353 -10.838  10.857  1.00  0.00     0.235 C 
HETATM   21  C   UNL     1      42.558  -9.974  11.169  1.00  0.00     0.029 C 
HETATM   22  C   UNL     1      43.636 -10.563  10.287  1.00  0.00     0.029 C 
HETATM   23  C   UNL     1      42.914 -10.788   8.972  1.00  0.00     0.235 C 
ENDBRANCH  17  18
ENDBRANCH  16  17
ENDBRANCH  13  16
ENDBRANCH  11  12
ENDBRANCH   6  11
BRANCH   7  24
HETATM   24  C   UNL     1      41.533 -16.645   2.671  1.00  0.00    -0.030 A 
HETATM   25  C   UNL     1      41.955 -17.404   3.783  1.00  0.00     0.011 A 
HETATM   26  C   UNL     1      42.684 -18.589   3.616  1.00  0.00     0.024 A 
HETATM   27  C   UNL     1      42.982 -19.053   2.339  1.00  0.00     0.034 A 
HETATM   28 CL   UNL     1      43.907 -20.486   2.138  1.00  0.00    -0.084 Cl
HETATM   29  C   UNL     1      42.538 -18.354   1.226  1.00  0.00     0.024 A 
HETATM   30  C   UNL     1      41.815 -17.166   1.389  1.00  0.00     0.011 A 
ENDBRANCH   7  24
BRANCH  10  31
HETATM   31  C   UNL     1      39.776 -14.377   0.795  1.00  0.00     0.294 C 
HETATM   32  O   UNL     1      39.833 -14.633  -0.389  1.00  0.00    -0.259 OA
BRANCH  31  33
HETATM   33  O   UNL     1      38.680 -14.144   1.553  1.00  0.00    -0.314 OA
BRANCH  33  34
HETATM   34  C   UNL     1      37.518 -13.816   0.776  1.00  0.00     0.206 C 
BRANCH  34  35
HETATM   35  C   UNL     1      37.348 -12.324   0.719  1.00  0.00    -0.011 C 
HETATM   36  C   UNL     1      37.838 -11.482  -0.201  1.00  0.00     0.009 C 
ENDBRANCH  34  35
ENDBRANCH  33  34
ENDBRANCH  31  33
ENDBRANCH  10  31
TORSDOF 10
ENDMDL
MODEL 3
REMARK VINA RESULT:      -7.1      4.526      7.613
REMARK  10 active torsions:
REMARK  status: ('A' for Active; 'I' for Inactive)
REMARK    1  A    between atoms: C_6  and  C_7 
REMARK    2  A    between atoms: C_7  and  C_8 
REMARK       I    between atoms: C_8  and  N_9 
REMARK    3  A    between atoms: N_9  and  C_10 
REMARK    4  A    between atoms: C_10  and  C_11 
REMARK    5  A    between atoms: C_11  and  N_12 
REMARK    6  A    between atoms: C_19  and  C_20 
REMARK    7  A    between atoms: C_29  and  C_30 
REMARK    8  A    between atoms: C_30  and  O_31 
REMARK    9  A    between atoms: O_31  and  C_32 
REMARK   10  A    between atoms: C_32  and  C_33 
ROOT
HETATM    1  C   UNL     1      42.724 -12.659  -2.514  1.00  0.00     0.071 C 
HETATM    2  C   UNL     1      41.897 -13.168  -1.361  1.00  0.00     0.048 C 
HETATM    3  N   UNL     1      42.081 -12.466  -0.176  1.00  0.00    -0.229 NA
HETATM    4  C   UNL     1      41.157 -12.577   0.717  1.00  0.00     0.170 C 
HETATM    5  N   UNL     1      39.908 -13.471   0.522  1.00  0.00    -0.319 N 
HETATM    6  C   UNL     1      38.868 -12.865   0.986  1.00  0.00     0.011 C 
HETATM    7  C   UNL     1      40.220 -14.669  -0.284  1.00  0.00     0.166 C 
HETATM    8  S   UNL     1      40.973 -11.537   2.081  1.00  0.00    -0.086 SA
HETATM    9  C   UNL     1      39.163 -11.783   2.014  1.00  0.00     0.135 C 
HETATM   10  C   UNL     1      41.018 -14.190  -1.456  1.00  0.00     0.069 C 
ENDROOT
BRANCH   6  11
HETATM   11  C   UNL     1      37.491 -13.185   0.477  1.00  0.00     0.156 C 
BRANCH  11  12
HETATM   12  C   UNL     1      36.712 -11.912   0.188  1.00  0.00     0.223 C 
HETATM   13  N   UNL     1      35.773 -11.537   1.132  1.00  0.00    -0.359 N 
HETATM   14  H   UNL     1      35.958 -11.801   2.096  1.00  0.00     0.162 HD
HETATM   15  O   UNL     1      36.817 -11.359  -0.900  1.00  0.00    -0.273 OA
BRANCH  13  16
HETATM   16  C   UNL     1      34.995 -10.308   0.923  1.00  0.00     0.150 C 
BRANCH  16  17
HETATM   17  C   UNL     1      33.470 -10.505   1.050  1.00  0.00     0.254 C 
BRANCH  17  18
HETATM   18  N   UNL     1      33.045 -10.769   2.478  1.00  0.00    -0.070 N 
HETATM   19  H   UNL     1      33.714 -11.427   2.906  1.00  0.00     0.279 HD
HETATM   20  C   UNL     1      31.655 -11.376   2.637  1.00  0.00     0.235 C 
HETATM   21  C   UNL     1      30.833 -10.285   3.291  1.00  0.00     0.029 C 
HETATM   22  C   UNL     1      31.829  -9.615   4.211  1.00  0.00     0.029 C 
HETATM   23  C   UNL     1      33.073  -9.512   3.350  1.00  0.00     0.235 C 
ENDBRANCH  17  18
ENDBRANCH  16  17
ENDBRANCH  13  16
ENDBRANCH  11  12
ENDBRANCH   6  11
BRANCH   7  24
HETATM   24  C   UNL     1      40.951 -15.698   0.600  1.00  0.00    -0.030 A 
HETATM   25  C   UNL     1      42.173 -16.265   0.182  1.00  0.00     0.011 A 
HETATM   26  C   UNL     1      42.795 -17.276   0.927  1.00  0.00     0.024 A 
HETATM   27  C   UNL     1      42.225 -17.720   2.116  1.00  0.00     0.034 A 
HETATM   28 CL   UNL     1      42.971 -18.984   3.009  1.00  0.00    -0.084 Cl
HETATM   29  C   UNL     1      41.050 -17.147   2.579  1.00  0.00     0.024 A 
HETATM   30  C   UNL     1      40.422 -16.142   1.832  1.00  0.00     0.011 A 
ENDBRANCH   7  24
BRANCH  10  31
HETATM   31  C   UNL     1      40.729 -14.878  -2.721  1.00  0.00     0.294 C 
HETATM   32  O   UNL     1      41.403 -15.778  -3.177  1.00  0.00    -0.259 OA
BRANCH  31  33
HETATM   33  O   UNL     1      39.564 -14.378  -3.190  1.00  0.00    -0.314 OA
BRANCH  33  34
HETATM   34  C   UNL     1      38.792 -15.344  -3.921  1.00  0.00     0.206 C 
BRANCH  34  35
HETATM   35  C   UNL     1      37.329 -15.144  -3.641  1.00  0.00    -0.011 C 
HETATM   36  C   UNL     1      36.446 -14.450  -4.373  1.00  0.00     0.009 C 
ENDBRANCH  34  35
ENDBRANCH  33  34
ENDBRANCH  31  33
ENDBRANCH  10  31
TORSDOF 10
ENDMDL
MODEL 4
REMARK VINA RESULT:      -7.0      3.512      6.057
REMARK  10 active torsions:
REMARK  status: ('A' for Active; 'I' for Inactive)
REMARK    1  A    between atoms: C_6  and  C_7 
REMARK    2  A    between atoms: C_7  and  C_8 
REMARK       I    between atoms: C_8  and  N_9 
REMARK    3  A    between atoms: N_9  and  C_10 
REMARK    4  A    between atoms: C_10  and  C_11 
REMARK    5  A    between atoms: C_11  and  N_12 
REMARK    6  A    between atoms: C_19  and  C_20 
REMARK    7  A    between atoms: C_29  and  C_30 
REMARK    8  A    between atoms: C_30  and  O_31 
REMARK    9  A    between atoms: O_31  and  C_32 
REMARK   10  A    between atoms: C_32  and  C_33 
ROOT
HETATM    1  C   UNL     1      42.818 -12.521  -1.923  1.00  0.00     0.071 C 
HETATM    2  C   UNL     1      42.017 -13.220  -0.854  1.00  0.00     0.048 C 
HETATM    3  N   UNL     1      42.193 -12.697   0.421  1.00  0.00    -0.229 NA
HETATM    4  C   UNL     1      41.281 -12.966   1.293  1.00  0.00     0.170 C 
HETATM    5  N   UNL     1      40.056 -13.857   0.974  1.00  0.00    -0.319 N 
HETATM    6  C   UNL     1      39.004 -13.358   1.529  1.00  0.00     0.011 C 
HETATM    7  C   UNL     1      40.393 -14.912  -0.003  1.00  0.00     0.166 C 
HETATM    8  S   UNL     1      41.082 -12.146   2.798  1.00  0.00    -0.086 SA
HETATM    9  C   UNL     1      39.279 -12.432   2.705  1.00  0.00     0.135 C 
HETATM   10  C   UNL     1      41.166 -14.241  -1.096  1.00  0.00     0.069 C 
ENDROOT
BRANCH   6  11
HETATM   11  C   UNL     1      37.631 -13.638   0.986  1.00  0.00     0.156 C 
BRANCH  11  12
HETATM   12  C   UNL     1      37.150 -12.491   0.114  1.00  0.00     0.223 C 
HETATM   13  N   UNL     1      37.664 -12.434  -1.169  1.00  0.00    -0.359 N 
HETATM   14  H   UNL     1      37.919 -13.318  -1.602  1.00  0.00     0.162 HD
HETATM   15  O   UNL     1      36.470 -11.593   0.596  1.00  0.00    -0.273 OA
BRANCH  13  16
HETATM   16  C   UNL     1      37.228 -11.360  -2.071  1.00  0.00     0.150 C 
BRANCH  16  17
HETATM   17  C   UNL     1      38.014 -11.302  -3.399  1.00  0.00     0.254 C 
BRANCH  17  18
HETATM   18  N   UNL     1      39.507 -11.216  -3.175  1.00  0.00    -0.070 N 
HETATM   19  H   UNL     1      39.814 -12.057  -2.662  1.00  0.00     0.279 HD
HETATM   20  C   UNL     1      39.970 -10.007  -2.370  1.00  0.00     0.235 C 
HETATM   21  C   UNL     1      40.737  -9.157  -3.362  1.00  0.00     0.029 C 
HETATM   22  C   UNL     1      41.407 -10.186  -4.245  1.00  0.00     0.029 C 
HETATM   23  C   UNL     1      40.306 -11.202  -4.480  1.00  0.00     0.235 C 
ENDBRANCH  17  18
ENDBRANCH  16  17
ENDBRANCH  13  16
ENDBRANCH  11  12
ENDBRANCH   6  11
BRANCH   7  24
HETATM   24  C   UNL     1      41.162 -16.040   0.714  1.00  0.00    -0.030 A 
HETATM   25  C   UNL     1      40.649 -16.622   1.891  1.00  0.00     0.011 A 
HETATM   26  C   UNL     1      41.386 -17.576   2.608  1.00  0.00     0.024 A 
HETATM   27  C   UNL     1      42.633 -17.986   2.149  1.00  0.00     0.034 A 
HETATM   28 CL   UNL     1      43.549 -19.127   3.048  1.00  0.00    -0.084 Cl
HETATM   29  C   UNL     1      43.143 -17.467   0.968  1.00  0.00     0.024 A 
HETATM   30  C   UNL     1      42.412 -16.509   0.253  1.00  0.00     0.011 A 
ENDBRANCH   7  24
BRANCH  10  31
HETATM   31  C   UNL     1      40.884 -14.742  -2.447  1.00  0.00     0.294 C 
HETATM   32  O   UNL     1      41.611 -15.493  -3.061  1.00  0.00    -0.259 OA
BRANCH  31  33
HETATM   33  O   UNL     1      39.662 -14.281  -2.797  1.00  0.00    -0.314 OA
BRANCH  33  34
HETATM   34  C   UNL     1      39.010 -15.102  -3.777  1.00  0.00     0.206 C 
BRANCH  34  35
HETATM   35  C   UNL     1      37.532 -15.139  -3.510  1.00  0.00    -0.011 C 
HETATM   36  C   UNL     1      36.555 -14.600  -4.254  1.00  0.00     0.009 C 
ENDBRANCH  34  35
ENDBRANCH  33  34
ENDBRANCH  31  33
ENDBRANCH  10  31
TORSDOF 10
ENDMDL
MODEL 5
REMARK VINA RESULT:      -6.9      3.002      6.673
REMARK  10 active torsions:
REMARK  status: ('A' for Active; 'I' for Inactive)
REMARK    1  A    between atoms: C_6  and  C_7 
REMARK    2  A    between atoms: C_7  and  C_8 
REMARK       I    between atoms: C_8  and  N_9 
REMARK    3  A    between atoms: N_9  and  C_10 
REMARK    4  A    between atoms: C_10  and  C_11 
REMARK    5  A    between atoms: C_11  and  N_12 
REMARK    6  A    between atoms: C_19  and  C_20 
REMARK    7  A    between atoms: C_29  and  C_30 
REMARK    8  A    between atoms: C_30  and  O_31 
REMARK    9  A    between atoms: O_31  and  C_32 
REMARK   10  A    between atoms: C_32  and  C_33 
ROOT
HETATM    1  C   UNL     1      40.195 -16.972   1.775  1.00  0.00     0.071 C 
HETATM    2  C   UNL     1      40.418 -15.493   1.585  1.00  0.00     0.048 C 
HETATM    3  N   UNL     1      39.265 -14.777   1.288  1.00  0.00    -0.229 NA
HETATM    4  C   UNL     1      39.298 -13.505   1.495  1.00  0.00     0.170 C 
HETATM    5  N   UNL     1      40.560 -12.775   2.015  1.00  0.00    -0.319 N 
HETATM    6  C   UNL     1      40.215 -11.878   2.875  1.00  0.00     0.011 C 
HETATM    7  C   UNL     1      41.797 -13.415   1.523  1.00  0.00     0.166 C 
HETATM    8  S   UNL     1      37.912 -12.480   1.559  1.00  0.00    -0.086 SA
HETATM    9  C   UNL     1      38.771 -11.410   2.767  1.00  0.00     0.135 C 
HETATM   10  C   UNL     1      41.617 -14.887   1.726  1.00  0.00     0.069 C 
ENDROOT
BRANCH   6  11
HETATM   11  C   UNL     1      41.173 -11.404   3.931  1.00  0.00     0.156 C 
BRANCH  11  12
HETATM   12  C   UNL     1      41.132 -12.313   5.147  1.00  0.00     0.223 C 
HETATM   13  N   UNL     1      41.339 -13.661   4.915  1.00  0.00    -0.359 N 
HETATM   14  H   UNL     1      41.933 -13.908   4.128  1.00  0.00     0.162 HD
HETATM   15  O   UNL     1      40.776 -11.874   6.234  1.00  0.00    -0.273 OA
BRANCH  13  16
HETATM   16  C   UNL     1      41.329 -14.595   6.049  1.00  0.00     0.150 C 
BRANCH  16  17
HETATM   17  C   UNL     1      40.813 -16.006   5.691  1.00  0.00     0.254 C 
BRANCH  17  18
HETATM   18  N   UNL     1      41.658 -17.097   6.309  1.00  0.00    -0.070 N 
HETATM   19  H   UNL     1      41.077 -17.627   6.977  1.00  0.00     0.279 HD
HETATM   20  C   UNL     1      42.885 -16.610   7.073  1.00  0.00     0.235 C 
HETATM   21  C   UNL     1      44.062 -17.080   6.244  1.00  0.00     0.029 C 
HETATM   22  C   UNL     1      43.587 -18.410   5.701  1.00  0.00     0.029 C 
HETATM   23  C   UNL     1      42.159 -18.116   5.284  1.00  0.00     0.235 C 
ENDBRANCH  17  18
ENDBRANCH  16  17
ENDBRANCH  13  16
ENDBRANCH  11  12
ENDBRANCH   6  11
BRANCH   7  24
HETATM   24  C   UNL     1      42.032 -13.003   0.056  1.00  0.00    -0.030 A 
HETATM   25  C   UNL     1      42.425 -11.688  -0.266  1.00  0.00     0.011 A 
HETATM   26  C   UNL     1      42.543 -11.273  -1.600  1.00  0.00     0.024 A 
HETATM   27  C   UNL     1      42.298 -12.169  -2.636  1.00  0.00     0.034 A 
HETATM   28 CL   UNL     1      42.408 -11.649  -4.269  1.00  0.00    -0.084 Cl
HETATM   29  C   UNL     1      41.958 -13.484  -2.349  1.00  0.00     0.024 A 
HETATM   30  C   UNL     1      41.833 -13.899  -1.018  1.00  0.00     0.011 A 
ENDBRANCH   7  24
BRANCH  10  31
HETATM   31  C   UNL     1      42.829 -15.604   2.142  1.00  0.00     0.294 C 
HETATM   32  O   UNL     1      43.327 -15.518   3.245  1.00  0.00    -0.259 OA
BRANCH  31  33
HETATM   33  O   UNL     1      43.194 -16.404   1.115  1.00  0.00    -0.314 OA
BRANCH  33  34
HETATM   34  C   UNL     1      44.170 -17.389   1.488  1.00  0.00     0.206 C 
BRANCH  34  35
HETATM   35  C   UNL     1      43.498 -18.716   1.700  1.00  0.00    -0.011 C 
HETATM   36  C   UNL     1      44.000 -19.795   2.319  1.00  0.00     0.009 C 
ENDBRANCH  34  35
ENDBRANCH  33  34
ENDBRANCH  31  33
ENDBRANCH  10  31
TORSDOF 10
ENDMDL
MODEL 6
REMARK VINA RESULT:      -6.9      2.953      4.786
REMARK  10 active torsions:
REMARK  status: ('A' for Active; 'I' for Inactive)
REMARK    1  A    between atoms: C_6  and  C_7 
REMARK    2  A    between atoms: C_7  and  C_8 
REMARK       I    between atoms: C_8  and  N_9 
REMARK    3  A    between atoms: N_9  and  C_10 
REMARK    4  A    between atoms: C_10  and  C_11 
REMARK    5  A    between atoms: C_11  and  N_12 
REMARK    6  A    between atoms: C_19  and  C_20 
REMARK    7  A    between atoms: C_29  and  C_30 
REMARK    8  A    between atoms: C_30  and  O_31 
REMARK    9  A    between atoms: O_31  and  C_32 
REMARK   10  A    between atoms: C_32  and  C_33 
ROOT
HETATM    1  C   UNL     1      40.893 -16.719   6.935  1.00  0.00     0.071 C 
HETATM    2  C   UNL     1      41.485 -16.729   5.548  1.00  0.00     0.048 C 
HETATM    3  N   UNL     1      40.567 -16.996   4.540  1.00  0.00    -0.229 NA
HETATM    4  C   UNL     1      40.895 -16.644   3.344  1.00  0.00     0.170 C 
HETATM    5  N   UNL     1      42.256 -15.986   3.009  1.00  0.00    -0.319 N 
HETATM    6  C   UNL     1      42.079 -15.047   2.144  1.00  0.00     0.011 C 
HETATM    7  C   UNL     1      43.332 -16.490   3.888  1.00  0.00     0.166 C 
HETATM    8  S   UNL     1      39.802 -16.528   2.015  1.00  0.00    -0.086 SA
HETATM    9  C   UNL     1      40.805 -15.167   1.319  1.00  0.00     0.135 C 
HETATM   10  C   UNL     1      42.782 -16.465   5.281  1.00  0.00     0.069 C 
ENDROOT
BRANCH   6  11
HETATM   11  C   UNL     1      43.044 -13.901   2.032  1.00  0.00     0.156 C 
BRANCH  11  12
HETATM   12  C   UNL     1      42.304 -12.577   1.940  1.00  0.00     0.223 C 
HETATM   13  N   UNL     1      41.560 -12.209   3.046  1.00  0.00    -0.359 N 
HETATM   14  H   UNL     1      41.888 -12.535   3.951  1.00  0.00     0.162 HD
HETATM   15  O   UNL     1      42.258 -11.969   0.877  1.00  0.00    -0.273 OA
BRANCH  13  16
HETATM   16  C   UNL     1      40.832 -10.932   3.030  1.00  0.00     0.150 C 
BRANCH  16  17
HETATM   17  C   UNL     1      41.008 -10.098   4.317  1.00  0.00     0.254 C 
BRANCH  17  18
HETATM   18  N   UNL     1      40.244 -10.681   5.485  1.00  0.00    -0.070 N 
HETATM   19  H   UNL     1      39.846  -9.907   6.039  1.00  0.00     0.279 HD
HETATM   20  C   UNL     1      41.074 -11.534   6.438  1.00  0.00     0.235 C 
HETATM   21  C   UNL     1      40.550 -12.942   6.246  1.00  0.00     0.029 C 
HETATM   22  C   UNL     1      39.074 -12.725   6.000  1.00  0.00     0.029 C 
HETATM   23  C   UNL     1      39.057 -11.543   5.051  1.00  0.00     0.235 C 
ENDBRANCH  17  18
ENDBRANCH  16  17
ENDBRANCH  13  16
ENDBRANCH  11  12
ENDBRANCH   6  11
BRANCH   7  24
HETATM   24  C   UNL     1      43.767 -17.888   3.406  1.00  0.00    -0.030 A 
HETATM   25  C   UNL     1      43.707 -18.227   2.039  1.00  0.00     0.011 A 
HETATM   26  C   UNL     1      44.003 -19.525   1.601  1.00  0.00     0.024 A 
HETATM   27  C   UNL     1      44.389 -20.501   2.514  1.00  0.00     0.034 A 
HETATM   28 CL   UNL     1      44.716 -22.100   1.979  1.00  0.00    -0.084 Cl
HETATM   29  C   UNL     1      44.505 -20.184   3.860  1.00  0.00     0.024 A 
HETATM   30  C   UNL     1      44.204 -18.890   4.301  1.00  0.00     0.011 A 
ENDBRANCH   7  24
BRANCH  10  31
HETATM   31  C   UNL     1      43.748 -16.077   6.316  1.00  0.00     0.294 C 
HETATM   32  O   UNL     1      44.405 -16.863   6.965  1.00  0.00    -0.259 OA
BRANCH  31  33
HETATM   33  O   UNL     1      43.806 -14.726   6.323  1.00  0.00    -0.314 OA
BRANCH  33  34
HETATM   34  C   UNL     1      45.036 -14.218   6.863  1.00  0.00     0.206 C 
BRANCH  34  35
HETATM   35  C   UNL     1      44.743 -13.277   7.998  1.00  0.00    -0.011 C 
HETATM   36  C   UNL     1      45.599 -12.444   8.608  1.00  0.00     0.009 C 
ENDBRANCH  34  35
ENDBRANCH  33  34
ENDBRANCH  31  33
ENDBRANCH  10  31
TORSDOF 10
ENDMDL
MODEL 7
REMARK VINA RESULT:      -6.9      3.293      7.553
REMARK  10 active torsions:
REMARK  status: ('A' for Active; 'I' for Inactive)
REMARK    1  A    between atoms: C_6  and  C_7 
REMARK    2  A    between atoms: C_7  and  C_8 
REMARK       I    between atoms: C_8  and  N_9 
REMARK    3  A    between atoms: N_9  and  C_10 
REMARK    4  A    between atoms: C_10  and  C_11 
REMARK    5  A    between atoms: C_11  and  N_12 
REMARK    6  A    between atoms: C_19  and  C_20 
REMARK    7  A    between atoms: C_29  and  C_30 
REMARK    8  A    between atoms: C_30  and  O_31 
REMARK    9  A    between atoms: O_31  and  C_32 
REMARK   10  A    between atoms: C_32  and  C_33 
ROOT
HETATM    1  C   UNL     1      37.979 -14.307   1.142  1.00  0.00     0.071 C 
HETATM    2  C   UNL     1      39.256 -13.566   1.452  1.00  0.00     0.048 C 
HETATM    3  N   UNL     1      39.091 -12.482   2.306  1.00  0.00    -0.229 NA
HETATM    4  C   UNL     1      40.144 -12.054   2.914  1.00  0.00     0.170 C 
HETATM    5  N   UNL     1      41.546 -12.673   2.697  1.00  0.00    -0.319 N 
HETATM    6  C   UNL     1      42.165 -12.745   3.826  1.00  0.00     0.011 C 
HETATM    7  C   UNL     1      41.713 -13.161   1.312  1.00  0.00     0.166 C 
HETATM    8  S   UNL     1      40.134 -10.992   4.274  1.00  0.00    -0.086 SA
HETATM    9  C   UNL     1      41.656 -11.790   4.896  1.00  0.00     0.135 C 
HETATM   10  C   UNL     1      40.470 -13.929   0.985  1.00  0.00     0.069 C 
ENDROOT
BRANCH   6  11
HETATM   11  C   UNL     1      43.256 -13.753   4.052  1.00  0.00     0.156 C 
BRANCH  11  12
HETATM   12  C   UNL     1      42.674 -15.100   4.448  1.00  0.00     0.223 C 
HETATM   13  N   UNL     1      42.592 -16.053   3.450  1.00  0.00    -0.359 N 
HETATM   14  H   UNL     1      43.289 -16.009   2.711  1.00  0.00     0.162 HD
HETATM   15  O   UNL     1      42.168 -15.251   5.553  1.00  0.00    -0.273 OA
BRANCH  13  16
HETATM   16  C   UNL     1      42.054 -17.383   3.768  1.00  0.00     0.150 C 
BRANCH  16  17
HETATM   17  C   UNL     1      43.097 -18.351   4.368  1.00  0.00     0.254 C 
BRANCH  17  18
HETATM   18  N   UNL     1      44.006 -18.937   3.311  1.00  0.00    -0.070 N 
HETATM   19  H   UNL     1      44.762 -18.263   3.114  1.00  0.00     0.279 HD
HETATM   20  C   UNL     1      43.331 -19.254   1.981  1.00  0.00     0.235 C 
HETATM   21  C   UNL     1      43.349 -20.766   1.893  1.00  0.00     0.029 C 
HETATM   22  C   UNL     1      44.662 -21.129   2.549  1.00  0.00     0.029 C 
HETATM   23  C   UNL     1      44.697 -20.225   3.765  1.00  0.00     0.235 C 
ENDBRANCH  17  18
ENDBRANCH  16  17
ENDBRANCH  13  16
ENDBRANCH  11  12
ENDBRANCH   6  11
BRANCH   7  24
HETATM   24  C   UNL     1      41.980 -11.963   0.380  1.00  0.00    -0.030 A 
HETATM   25  C   UNL     1      42.558 -12.157  -0.891  1.00  0.00     0.011 A 
HETATM   26  C   UNL     1      42.899 -11.068  -1.706  1.00  0.00     0.024 A 
HETATM   27  C   UNL     1      42.646  -9.768  -1.279  1.00  0.00     0.034 A 
HETATM   28 CL   UNL     1      43.098  -8.436  -2.263  1.00  0.00    -0.084 Cl
HETATM   29  C   UNL     1      42.034  -9.548  -0.053  1.00  0.00     0.024 A 
HETATM   30  C   UNL     1      41.698 -10.633   0.765  1.00  0.00     0.011 A 
ENDBRANCH   7  24
BRANCH  10  31
HETATM   31  C   UNL     1      40.685 -15.130   0.168  1.00  0.00     0.294 C 
HETATM   32  O   UNL     1      41.065 -16.194   0.608  1.00  0.00    -0.259 OA
BRANCH  31  33
HETATM   33  O   UNL     1      40.301 -14.830  -1.093  1.00  0.00    -0.314 OA
BRANCH  33  34
HETATM   34  C   UNL     1      41.067 -15.518  -2.094  1.00  0.00     0.206 C 
BRANCH  34  35
HETATM   35  C   UNL     1      41.109 -14.701  -3.354  1.00  0.00    -0.011 C 
HETATM   36  C   UNL     1      40.464 -13.552  -3.603  1.00  0.00     0.009 C 
ENDBRANCH  34  35
ENDBRANCH  33  34
ENDBRANCH  31  33
ENDBRANCH  10  31
TORSDOF 10
ENDMDL
MODEL 8
REMARK VINA RESULT:      -6.9      3.637      6.685
REMARK  10 active torsions:
REMARK  status: ('A' for Active; 'I' for Inactive)
REMARK    1  A    between atoms: C_6  and  C_7 
REMARK    2  A    between atoms: C_7  and  C_8 
REMARK       I    between atoms: C_8  and  N_9 
REMARK    3  A    between atoms: N_9  and  C_10 
REMARK    4  A    between atoms: C_10  and  C_11 
REMARK    5  A    between atoms: C_11  and  N_12 
REMARK    6  A    between atoms: C_19  and  C_20 
REMARK    7  A    between atoms: C_29  and  C_30 
REMARK    8  A    between atoms: C_30  and  O_31 
REMARK    9  A    between atoms: O_31  and  C_32 
REMARK   10  A    between atoms: C_32  and  C_33 
ROOT
HETATM    1  C   UNL     1      42.570 -12.705   4.267  1.00  0.00     0.071 C 
HETATM    2  C   UNL     1      41.719 -12.934   3.044  1.00  0.00     0.048 C 
HETATM    3  N   UNL     1      42.100 -12.187   1.937  1.00  0.00    -0.229 NA
HETATM    4  C   UNL     1      41.693 -12.600   0.786  1.00  0.00     0.170 C 
HETATM    5  N   UNL     1      40.790 -13.846   0.616  1.00  0.00    -0.319 N 
HETATM    6  C   UNL     1      41.174 -14.519  -0.415  1.00  0.00     0.011 C 
HETATM    7  C   UNL     1      39.869 -14.007   1.759  1.00  0.00     0.166 C 
HETATM    8  S   UNL     1      42.326 -12.076  -0.731  1.00  0.00    -0.086 SA
HETATM    9  C   UNL     1      41.971 -13.723  -1.439  1.00  0.00     0.135 C 
HETATM   10  C   UNL     1      40.694 -13.814   2.993  1.00  0.00     0.069 C 
ENDROOT
BRANCH   6  11
HETATM   11  C   UNL     1      40.896 -15.991  -0.529  1.00  0.00     0.156 C 
BRANCH  11  12
HETATM   12  C   UNL     1      41.538 -16.754   0.617  1.00  0.00     0.223 C 
HETATM   13  N   UNL     1      42.888 -16.534   0.824  1.00  0.00    -0.359 N 
HETATM   14  H   UNL     1      43.250 -15.619   0.569  1.00  0.00     0.162 HD
HETATM   15  O   UNL     1      40.911 -17.627   1.205  1.00  0.00    -0.273 OA
BRANCH  13  16
HETATM   16  C   UNL     1      43.568 -17.228   1.926  1.00  0.00     0.150 C 
BRANCH  16  17
HETATM   17  C   UNL     1      44.039 -18.654   1.571  1.00  0.00     0.254 C 
BRANCH  17  18
HETATM   18  N   UNL     1      43.683 -19.658   2.645  1.00  0.00    -0.070 N 
HETATM   19  H   UNL     1      42.750 -20.045   2.440  1.00  0.00     0.279 HD
HETATM   20  C   UNL     1      43.634 -19.097   4.062  1.00  0.00     0.235 C 
HETATM   21  C   UNL     1      44.805 -19.744   4.771  1.00  0.00     0.029 C 
HETATM   22  C   UNL     1      44.850 -21.127   4.160  1.00  0.00     0.029 C 
HETATM   23  C   UNL     1      44.637 -20.854   2.684  1.00  0.00     0.235 C 
ENDBRANCH  17  18
ENDBRANCH  16  17
ENDBRANCH  13  16
ENDBRANCH  11  12
ENDBRANCH   6  11
BRANCH   7  24
HETATM   24  C   UNL     1      38.702 -13.009   1.616  1.00  0.00    -0.030 A 
HETATM   25  C   UNL     1      37.725 -13.187   0.616  1.00  0.00     0.011 A 
HETATM   26  C   UNL     1      36.718 -12.233   0.410  1.00  0.00     0.024 A 
HETATM   27  C   UNL     1      36.652 -11.100   1.214  1.00  0.00     0.034 A 
HETATM   28 CL   UNL     1      35.439  -9.916   0.936  1.00  0.00    -0.084 Cl
HETATM   29  C   UNL     1      37.571 -10.923   2.239  1.00  0.00     0.024 A 
HETATM   30  C   UNL     1      38.581 -11.870   2.443  1.00  0.00     0.011 A 
ENDBRANCH   7  24
BRANCH  10  31
HETATM   31  C   UNL     1      40.339 -14.691   4.116  1.00  0.00     0.294 C 
HETATM   32  O   UNL     1      39.544 -14.398   4.985  1.00  0.00    -0.259 OA
BRANCH  31  33
HETATM   33  O   UNL     1      40.985 -15.863   3.927  1.00  0.00    -0.314 OA
BRANCH  33  34
HETATM   34  C   UNL     1      41.314 -16.528   5.156  1.00  0.00     0.206 C 
BRANCH  34  35
HETATM   35  C   UNL     1      42.662 -16.071   5.638  1.00  0.00    -0.011 C 
HETATM   36  C   UNL     1      43.183 -16.216   6.865  1.00  0.00     0.009 C 
ENDBRANCH  34  35
ENDBRANCH  33  34
ENDBRANCH  31  33
ENDBRANCH  10  31
TORSDOF 10
ENDMDL
MODEL 9
REMARK VINA RESULT:      -6.7      4.144      8.723
REMARK  10 active torsions:
REMARK  status: ('A' for Active; 'I' for Inactive)
REMARK    1  A    between atoms: C_6  and  C_7 
REMARK    2  A    between atoms: C_7  and  C_8 
REMARK       I    between atoms: C_8  and  N_9 
REMARK    3  A    between atoms: N_9  and  C_10 
REMARK    4  A    between atoms: C_10  and  C_11 
REMARK    5  A    between atoms: C_11  and  N_12 
REMARK    6  A    between atoms: C_19  and  C_20 
REMARK    7  A    between atoms: C_29  and  C_30 
REMARK    8  A    between atoms: C_30  and  O_31 
REMARK    9  A    between atoms: O_31  and  C_32 
REMARK   10  A    between atoms: C_32  and  C_33 
ROOT
HETATM    1  C   UNL     1      41.156 -18.491   5.464  1.00  0.00     0.071 C 
HETATM    2  C   UNL     1      41.556 -17.117   4.989  1.00  0.00     0.048 C 
HETATM    3  N   UNL     1      40.581 -16.145   5.172  1.00  0.00    -0.229 NA
HETATM    4  C   UNL     1      40.972 -14.916   5.161  1.00  0.00     0.170 C 
HETATM    5  N   UNL     1      42.446 -14.510   4.921  1.00  0.00    -0.319 N 
HETATM    6  C   UNL     1      42.759 -13.538   5.709  1.00  0.00     0.011 C 
HETATM    7  C   UNL     1      43.123 -15.446   4.000  1.00  0.00     0.166 C 
HETATM    8  S   UNL     1      40.039 -13.580   5.726  1.00  0.00    -0.086 SA
HETATM    9  C   UNL     1      41.578 -12.730   6.228  1.00  0.00     0.135 C 
HETATM   10  C   UNL     1      42.767 -16.824   4.465  1.00  0.00     0.069 C 
ENDROOT
BRANCH   6  11
HETATM   11  C   UNL     1      44.185 -13.293   6.114  1.00  0.00     0.156 C 
BRANCH  11  12
HETATM   12  C   UNL     1      44.381 -13.566   7.595  1.00  0.00     0.223 C 
HETATM   13  N   UNL     1      44.330 -12.468   8.436  1.00  0.00    -0.359 N 
HETATM   14  H   UNL     1      43.741 -11.692   8.145  1.00  0.00     0.162 HD
HETATM   15  O   UNL     1      44.722 -14.678   7.978  1.00  0.00    -0.273 OA
BRANCH  13  16
HETATM   16  C   UNL     1      44.495 -12.663   9.883  1.00  0.00     0.150 C 
BRANCH  16  17
HETATM   17  C   UNL     1      44.631 -11.346  10.678  1.00  0.00     0.254 C 
BRANCH  17  18
HETATM   18  N   UNL     1      43.327 -10.930  11.321  1.00  0.00    -0.070 N 
HETATM   19  H   UNL     1      42.554 -11.152  10.676  1.00  0.00     0.279 HD
HETATM   20  C   UNL     1      43.218  -9.447  11.658  1.00  0.00     0.235 C 
HETATM   21  C   UNL     1      43.217  -9.397  13.171  1.00  0.00     0.029 C 
HETATM   22  C   UNL     1      42.458 -10.648  13.553  1.00  0.00     0.029 C 
HETATM   23  C   UNL     1      43.030 -11.692  12.614  1.00  0.00     0.235 C 
ENDBRANCH  17  18
ENDBRANCH  16  17
ENDBRANCH  13  16
ENDBRANCH  11  12
ENDBRANCH   6  11
BRANCH   7  24
HETATM   24  C   UNL     1      42.689 -15.136   2.553  1.00  0.00    -0.030 A 
HETATM   25  C   UNL     1      42.469 -13.806   2.139  1.00  0.00     0.011 A 
HETATM   26  C   UNL     1      41.977 -13.518   0.859  1.00  0.00     0.024 A 
HETATM   27  C   UNL     1      41.722 -14.548  -0.041  1.00  0.00     0.034 A 
HETATM   28 CL   UNL     1      41.085 -14.194  -1.596  1.00  0.00    -0.084 Cl
HETATM   29  C   UNL     1      41.975 -15.863   0.321  1.00  0.00     0.024 A 
HETATM   30  C   UNL     1      42.460 -16.154   1.602  1.00  0.00     0.011 A 
ENDBRANCH   7  24
BRANCH  10  31
HETATM   31  C   UNL     1      43.850 -17.809   4.358  1.00  0.00     0.294 C 
HETATM   32  O   UNL     1      44.706 -17.974   5.201  1.00  0.00    -0.259 OA
BRANCH  31  33
HETATM   33  O   UNL     1      43.641 -18.512   3.222  1.00  0.00    -0.314 OA
BRANCH  33  34
HETATM   34  C   UNL     1      44.169 -19.845   3.281  1.00  0.00     0.206 C 
BRANCH  34  35
HETATM   35  C   UNL     1      43.703 -20.630   2.087  1.00  0.00    -0.011 C 
HETATM   36  C   UNL     1      44.060 -21.875   1.739  1.00  0.00     0.009 C 
ENDBRANCH  34  35
ENDBRANCH  33  34
ENDBRANCH  31  33
ENDBRANCH  10  31
TORSDOF 10
ENDMDL
MODEL 10
REMARK VINA RESULT:      -6.7      3.327      7.396
REMARK  10 active torsions:
REMARK  status: ('A' for Active; 'I' for Inactive)
REMARK    1  A    between atoms: C_6  and  C_7 
REMARK    2  A    between atoms: C_7  and  C_8 
REMARK       I    between atoms: C_8  and  N_9 
REMARK    3  A    between atoms: N_9  and  C_10 
REMARK    4  A    between atoms: C_10  and  C_11 
REMARK    5  A    between atoms: C_11  and  N_12 
REMARK    6  A    between atoms: C_19  and  C_20 
REMARK    7  A    between atoms: C_29  and  C_30 
REMARK    8  A    between atoms: C_30  and  O_31 
REMARK    9  A    between atoms: O_31  and  C_32 
REMARK   10  A    between atoms: C_32  and  C_33 
ROOT
HETATM    1  C   UNL     1      37.992 -14.488   1.113  1.00  0.00     0.071 C 
HETATM    2  C   UNL     1      39.256 -13.702   1.355  1.00  0.00     0.048 C 
HETATM    3  N   UNL     1      39.052 -12.472   1.966  1.00  0.00    -0.229 NA
HETATM    4  C   UNL     1      40.070 -11.933   2.546  1.00  0.00     0.170 C 
HETATM    5  N   UNL     1      41.474 -12.584   2.547  1.00  0.00    -0.319 N 
HETATM    6  C   UNL     1      42.019 -12.433   3.706  1.00  0.00     0.011 C 
HETATM    7  C   UNL     1      41.723 -13.336   1.300  1.00  0.00     0.166 C 
HETATM    8  S   UNL     1      39.988 -10.625   3.667  1.00  0.00    -0.086 SA
HETATM    9  C   UNL     1      41.456 -11.285   4.533  1.00  0.00     0.135 C 
HETATM   10  C   UNL     1      40.493 -14.151   1.049  1.00  0.00     0.069 C 
ENDROOT
BRANCH   6  11
HETATM   11  C   UNL     1      43.078 -13.379   4.197  1.00  0.00     0.156 C 
BRANCH  11  12
HETATM   12  C   UNL     1      42.476 -14.450   5.090  1.00  0.00     0.223 C 
HETATM   13  N   UNL     1      41.484 -15.234   4.529  1.00  0.00    -0.359 N 
HETATM   14  H   UNL     1      41.533 -15.390   3.526  1.00  0.00     0.162 HD
HETATM   15  O   UNL     1      42.758 -14.489   6.282  1.00  0.00    -0.273 OA
BRANCH  13  16
HETATM   16  C   UNL     1      40.870 -16.300   5.333  1.00  0.00     0.150 C 
BRANCH  16  17
HETATM   17  C   UNL     1      41.519 -17.686   5.131  1.00  0.00     0.254 C 
BRANCH  17  18
HETATM   18  N   UNL     1      42.895 -17.770   5.755  1.00  0.00    -0.070 N 
HETATM   19  H   UNL     1      43.420 -16.915   5.513  1.00  0.00     0.279 HD
HETATM   20  C   UNL     1      43.738 -18.956   5.302  1.00  0.00     0.235 C 
HETATM   21  C   UNL     1      43.852 -19.836   6.530  1.00  0.00     0.029 C 
HETATM   22  C   UNL     1      43.919 -18.833   7.661  1.00  0.00     0.029 C 
HETATM   23  C   UNL     1      42.854 -17.822   7.283  1.00  0.00     0.235 C 
ENDBRANCH  17  18
ENDBRANCH  16  17
ENDBRANCH  13  16
ENDBRANCH  11  12
ENDBRANCH   6  11
BRANCH   7  24
HETATM   24  C   UNL     1      42.066 -12.345   0.170  1.00  0.00    -0.030 A 
HETATM   25  C   UNL     1      42.240 -10.973   0.447  1.00  0.00     0.011 A 
HETATM   26  C   UNL     1      42.450 -10.047  -0.584  1.00  0.00     0.024 A 
HETATM   27  C   UNL     1      42.519 -10.476  -1.906  1.00  0.00     0.034 A 
HETATM   28 CL   UNL     1      42.741  -9.335  -3.171  1.00  0.00    -0.084 Cl
HETATM   29  C   UNL     1      42.401 -11.825  -2.205  1.00  0.00     0.024 A 
HETATM   30  C   UNL     1      42.183 -12.752  -1.178  1.00  0.00     0.011 A 
ENDBRANCH   7  24
BRANCH  10  31
HETATM   31  C   UNL     1      40.743 -15.490   0.500  1.00  0.00     0.294 C 
HETATM   32  O   UNL     1      40.907 -15.724  -0.679  1.00  0.00    -0.259 OA
BRANCH  31  33
HETATM   33  O   UNL     1      40.836 -16.341   1.547  1.00  0.00    -0.314 OA
BRANCH  33  34
HETATM   34  C   UNL     1      41.380 -17.619   1.186  1.00  0.00     0.206 C 
BRANCH  34  35
HETATM   35  C   UNL     1      42.757 -17.770   1.769  1.00  0.00    -0.011 C 
HETATM   36  C   UNL     1      43.929 -17.519   1.169  1.00  0.00     0.009 C 
ENDBRANCH  34  35
ENDBRANCH  33  34
ENDBRANCH  31  33
ENDBRANCH  10  31
TORSDOF 10
ENDMDL
