MODEL 1
REMARK VINA RESULT:      -8.6      0.000      0.000
REMARK  7 active torsions:
REMARK  status: ('A' for Active; 'I' for Inactive)
REMARK    1  A    between atoms: C_2  and  C_3 
REMARK    2  A    between atoms: C_3  and  C_4 
REMARK    3  A    between atoms: C_3  and  C_12 
REMARK    4  A    between atoms: C_7  and  O_8 
REMARK    5  A    between atoms: C_12  and  C_13 
REMARK       I    between atoms: C_13  and  N_14 
REMARK    6  A    between atoms: N_14  and  C_15 
REMARK    7  A    between atoms: C_22  and  C_23 
REMARK       I    between atoms: C_23  and  N_24 
ROOT
HETATM    1  C   UNL     1      42.827 -18.216   1.491  1.00  0.00     0.222 C 
HETATM    2  N   UNL     1      41.525 -17.759   1.467  1.00  0.00    -0.327 N 
HETATM    3  O   UNL     1      43.823 -17.573   1.168  1.00  0.00    -0.273 OA
HETATM    4  H   UNL     1      40.805 -18.410   1.745  1.00  0.00     0.169 HD
ENDROOT
BRANCH   2   5
HETATM    5  C   UNL     1      41.056 -16.507   1.011  1.00  0.00     0.035 A 
HETATM    6  C   UNL     1      41.343 -15.975  -0.253  1.00  0.00     0.046 A 
HETATM    7  C   UNL     1      40.825 -14.711  -0.613  1.00  0.00     0.030 A 
HETATM    8  C   UNL     1      40.034 -14.026   0.301  1.00  0.00     0.063 A 
HETATM    9  C   UNL     1      40.894 -13.855  -1.754  1.00  0.00     0.156 A 
HETATM   10  N   UNL     1      39.682 -12.862  -0.323  1.00  0.00    -0.277 N 
HETATM   11  C   UNL     1      39.726 -14.524   1.567  1.00  0.00     0.034 A 
HETATM   12  H   UNL     1      39.103 -12.118   0.047  1.00  0.00     0.189 HD
HETATM   13  N   UNL     1      40.183 -12.721  -1.561  1.00  0.00    -0.168 NA
HETATM   14  C   UNL     1      40.257 -15.776   1.903  1.00  0.00     0.032 A 
BRANCH   9  15
HETATM   15  C   UNL     1      41.619 -14.091  -3.011  1.00  0.00     0.270 C 
HETATM   16  N   UNL     1      42.833 -13.462  -3.080  1.00  0.00    -0.365 N 
HETATM   17  H   UNL     1      43.135 -12.903  -2.291  1.00  0.00     0.159 HD
HETATM   18  H   UNL     1      43.405 -13.572  -3.902  1.00  0.00     0.159 HD
HETATM   19  O   UNL     1      41.215 -14.787  -3.934  1.00  0.00    -0.266 OA
ENDBRANCH   9  15
ENDBRANCH   2   5
BRANCH   1  20
HETATM   20  C   UNL     1      43.002 -19.625   2.053  1.00  0.00     0.112 C 
BRANCH  20  21
HETATM   21  C   UNL     1      44.283 -19.890   2.868  1.00  0.00     0.027 C 
BRANCH  21  22
HETATM   22  C   UNL     1      44.808 -21.335   2.693  1.00  0.00     0.005 C 
HETATM   23  C   UNL     1      44.267 -22.110   1.498  1.00  0.00     0.006 C 
ENDBRANCH  21  22
BRANCH  21  24
HETATM   24  C   UNL     1      44.197 -19.490   4.332  1.00  0.00    -0.053 A 
HETATM   25  C   UNL     1      44.252 -18.156   4.752  1.00  0.00     0.010 A 
HETATM   26  C   UNL     1      44.212 -17.838   6.113  1.00  0.00     0.037 A 
HETATM   27  C   UNL     1      44.129 -18.841   7.079  1.00  0.00     0.068 A 
HETATM   28  C   UNL     1      44.043 -20.170   6.672  1.00  0.00     0.037 A 
HETATM   29  C   UNL     1      44.072 -20.491   5.311  1.00  0.00     0.010 A 
BRANCH  27  30
HETATM   30  O   UNL     1      44.120 -18.400   8.373  1.00  0.00    -0.356 OA
HETATM   31  C   UNL     1      43.441 -17.173   8.614  1.00  0.00     0.210 C 
ENDBRANCH  27  30
ENDBRANCH  21  24
ENDBRANCH  20  21
ENDBRANCH   1  20
TORSDOF 7
ENDMDL
MODEL 2
REMARK VINA RESULT:      -8.1      2.034      3.770
REMARK  7 active torsions:
REMARK  status: ('A' for Active; 'I' for Inactive)
REMARK    1  A    between atoms: C_2  and  C_3 
REMARK    2  A    between atoms: C_3  and  C_4 
REMARK    3  A    between atoms: C_3  and  C_12 
REMARK    4  A    between atoms: C_7  and  O_8 
REMARK    5  A    between atoms: C_12  and  C_13 
REMARK       I    between atoms: C_13  and  N_14 
REMARK    6  A    between atoms: N_14  and  C_15 
REMARK    7  A    between atoms: C_22  and  C_23 
REMARK       I    between atoms: C_23  and  N_24 
ROOT
HETATM    1  C   UNL     1      42.770 -14.548   2.985  1.00  0.00     0.222 C 
HETATM    2  N   UNL     1      41.640 -15.195   2.525  1.00  0.00    -0.327 N 
HETATM    3  O   UNL     1      43.171 -13.447   2.616  1.00  0.00    -0.273 OA
HETATM    4  H   UNL     1      41.445 -16.107   2.909  1.00  0.00     0.169 HD
ENDROOT
BRANCH   2   5
HETATM    5  C   UNL     1      40.759 -14.775   1.504  1.00  0.00     0.035 A 
HETATM    6  C   UNL     1      41.093 -14.741   0.144  1.00  0.00     0.046 A 
HETATM    7  C   UNL     1      40.137 -14.302  -0.800  1.00  0.00     0.030 A 
HETATM    8  C   UNL     1      38.880 -13.919  -0.351  1.00  0.00     0.063 A 
HETATM    9  C   UNL     1      40.094 -14.120  -2.215  1.00  0.00     0.156 A 
HETATM   10  N   UNL     1      38.187 -13.559  -1.473  1.00  0.00    -0.277 N 
HETATM   11  C   UNL     1      38.511 -13.939   0.995  1.00  0.00     0.034 A 
HETATM   12  H   UNL     1      37.231 -13.227  -1.524  1.00  0.00     0.189 HD
HETATM   13  N   UNL     1      38.885 -13.663  -2.615  1.00  0.00    -0.168 NA
HETATM   14  C   UNL     1      39.478 -14.371   1.911  1.00  0.00     0.032 A 
BRANCH   9  15
HETATM   15  C   UNL     1      41.170 -14.365  -3.185  1.00  0.00     0.270 C 
HETATM   16  N   UNL     1      41.789 -13.228  -3.630  1.00  0.00    -0.365 N 
HETATM   17  H   UNL     1      41.476 -12.334  -3.272  1.00  0.00     0.159 HD
HETATM   18  H   UNL     1      42.545 -13.299  -4.293  1.00  0.00     0.159 HD
HETATM   19  O   UNL     1      41.519 -15.470  -3.582  1.00  0.00    -0.266 OA
ENDBRANCH   9  15
ENDBRANCH   2   5
BRANCH   1  20
HETATM   20  C   UNL     1      43.508 -15.270   4.110  1.00  0.00     0.112 C 
BRANCH  20  21
HETATM   21  C   UNL     1      42.824 -16.522   4.692  1.00  0.00     0.027 C 
BRANCH  21  22
HETATM   22  C   UNL     1      42.755 -16.494   6.238  1.00  0.00     0.005 C 
HETATM   23  C   UNL     1      43.739 -15.568   6.941  1.00  0.00     0.006 C 
ENDBRANCH  21  22
BRANCH  21  24
HETATM   24  C   UNL     1      43.368 -17.843   4.171  1.00  0.00    -0.053 A 
HETATM   25  C   UNL     1      43.018 -18.359   2.918  1.00  0.00     0.010 A 
HETATM   26  C   UNL     1      43.509 -19.598   2.497  1.00  0.00     0.037 A 
HETATM   27  C   UNL     1      44.346 -20.351   3.321  1.00  0.00     0.068 A 
HETATM   28  C   UNL     1      44.725 -19.835   4.557  1.00  0.00     0.037 A 
HETATM   29  C   UNL     1      44.243 -18.590   4.976  1.00  0.00     0.010 A 
BRANCH  27  30
HETATM   30  O   UNL     1      44.740 -21.554   2.803  1.00  0.00    -0.356 OA
HETATM   31  C   UNL     1      44.145 -21.930   1.567  1.00  0.00     0.210 C 
ENDBRANCH  27  30
ENDBRANCH  21  24
ENDBRANCH  20  21
ENDBRANCH   1  20
TORSDOF 7
ENDMDL
MODEL 3
REMARK VINA RESULT:      -8.1      2.857      9.407
REMARK  7 active torsions:
REMARK  status: ('A' for Active; 'I' for Inactive)
REMARK    1  A    between atoms: C_2  and  C_3 
REMARK    2  A    between atoms: C_3  and  C_4 
REMARK    3  A    between atoms: C_3  and  C_12 
REMARK    4  A    between atoms: C_7  and  O_8 
REMARK    5  A    between atoms: C_12  and  C_13 
REMARK       I    between atoms: C_13  and  N_14 
REMARK    6  A    between atoms: N_14  and  C_15 
REMARK    7  A    between atoms: C_22  and  C_23 
REMARK       I    between atoms: C_23  and  N_24 
ROOT
HETATM    1  C   UNL     1      41.348 -15.736   1.379  1.00  0.00     0.222 C 
HETATM    2  N   UNL     1      42.652 -16.039   1.715  1.00  0.00    -0.327 N 
HETATM    3  O   UNL     1      40.363 -16.434   1.606  1.00  0.00    -0.273 OA
HETATM    4  H   UNL     1      43.362 -15.374   1.447  1.00  0.00     0.169 HD
ENDROOT
BRANCH   2   5
HETATM    5  C   UNL     1      43.136 -17.221   2.317  1.00  0.00     0.035 A 
HETATM    6  C   UNL     1      43.404 -17.352   3.686  1.00  0.00     0.046 A 
HETATM    7  C   UNL     1      43.889 -18.581   4.190  1.00  0.00     0.030 A 
HETATM    8  C   UNL     1      44.081 -19.636   3.307  1.00  0.00     0.063 A 
HETATM    9  C   UNL     1      44.276 -19.091   5.465  1.00  0.00     0.156 A 
HETATM   10  N   UNL     1      44.539 -20.671   4.074  1.00  0.00    -0.277 N 
HETATM   11  C   UNL     1      43.825 -19.544   1.939  1.00  0.00     0.034 A 
HETATM   12  H   UNL     1      44.784 -21.604   3.763  1.00  0.00     0.189 HD
HETATM   13  N   UNL     1      44.673 -20.382   5.378  1.00  0.00    -0.168 NA
HETATM   14  C   UNL     1      43.353 -18.314   1.464  1.00  0.00     0.032 A 
BRANCH   9  15
HETATM   15  C   UNL     1      44.281 -18.382   6.752  1.00  0.00     0.270 C 
HETATM   16  N   UNL     1      43.617 -19.039   7.753  1.00  0.00    -0.365 N 
HETATM   17  H   UNL     1      43.189 -19.933   7.545  1.00  0.00     0.159 HD
HETATM   18  H   UNL     1      43.574 -18.632   8.674  1.00  0.00     0.159 HD
HETATM   19  O   UNL     1      44.823 -17.303   6.957  1.00  0.00    -0.266 OA
ENDBRANCH   9  15
ENDBRANCH   2   5
BRANCH   1  20
HETATM   20  C   UNL     1      41.154 -14.362   0.740  1.00  0.00     0.112 C 
BRANCH  20  21
HETATM   21  C   UNL     1      41.532 -14.233  -0.749  1.00  0.00     0.027 C 
BRANCH  21  22
HETATM   22  C   UNL     1      42.208 -12.880  -1.073  1.00  0.00     0.005 C 
HETATM   23  C   UNL     1      42.852 -12.758  -2.448  1.00  0.00     0.006 C 
ENDBRANCH  21  22
BRANCH  21  24
HETATM   24  C   UNL     1      40.407 -14.554  -1.719  1.00  0.00    -0.053 A 
HETATM   25  C   UNL     1      40.562 -15.452  -2.781  1.00  0.00     0.010 A 
HETATM   26  C   UNL     1      39.512 -15.684  -3.674  1.00  0.00     0.037 A 
HETATM   27  C   UNL     1      38.295 -15.017  -3.534  1.00  0.00     0.068 A 
HETATM   28  C   UNL     1      38.118 -14.144  -2.464  1.00  0.00     0.037 A 
HETATM   29  C   UNL     1      39.164 -13.918  -1.563  1.00  0.00     0.010 A 
BRANCH  27  30
HETATM   30  O   UNL     1      37.357 -15.315  -4.484  1.00  0.00    -0.356 OA
HETATM   31  C   UNL     1      36.230 -14.450  -4.546  1.00  0.00     0.210 C 
ENDBRANCH  27  30
ENDBRANCH  21  24
ENDBRANCH  20  21
ENDBRANCH   1  20
TORSDOF 7
ENDMDL
MODEL 4
REMARK VINA RESULT:      -7.9      1.669      2.095
REMARK  7 active torsions:
REMARK  status: ('A' for Active; 'I' for Inactive)
REMARK    1  A    between atoms: C_2  and  C_3 
REMARK    2  A    between atoms: C_3  and  C_4 
REMARK    3  A    between atoms: C_3  and  C_12 
REMARK    4  A    between atoms: C_7  and  O_8 
REMARK    5  A    between atoms: C_12  and  C_13 
REMARK       I    between atoms: C_13  and  N_14 
REMARK    6  A    between atoms: N_14  and  C_15 
REMARK    7  A    between atoms: C_22  and  C_23 
REMARK       I    between atoms: C_23  and  N_24 
ROOT
HETATM    1  C   UNL     1      43.620 -17.850   1.542  1.00  0.00     0.222 C 
HETATM    2  N   UNL     1      42.245 -17.727   1.511  1.00  0.00    -0.327 N 
HETATM    3  O   UNL     1      44.429 -16.990   1.205  1.00  0.00    -0.273 OA
HETATM    4  H   UNL     1      41.705 -18.528   1.802  1.00  0.00     0.169 HD
ENDROOT
BRANCH   2   5
HETATM    5  C   UNL     1      41.486 -16.637   1.030  1.00  0.00     0.035 A 
HETATM    6  C   UNL     1      41.485 -16.209  -0.304  1.00  0.00     0.046 A 
HETATM    7  C   UNL     1      40.690 -15.104  -0.683  1.00  0.00     0.030 A 
HETATM    8  C   UNL     1      39.919 -14.472   0.283  1.00  0.00     0.063 A 
HETATM    9  C   UNL     1      40.433 -14.385  -1.889  1.00  0.00     0.156 A 
HETATM   10  N   UNL     1      39.266 -13.466  -0.374  1.00  0.00    -0.277 N 
HETATM   11  C   UNL     1      39.893 -14.870   1.620  1.00  0.00     0.034 A 
HETATM   12  H   UNL     1      38.613 -12.798   0.019  1.00  0.00     0.189 HD
HETATM   13  N   UNL     1      39.552 -13.379  -1.683  1.00  0.00    -0.168 NA
HETATM   14  C   UNL     1      40.696 -15.962   1.972  1.00  0.00     0.032 A 
BRANCH   9  15
HETATM   15  C   UNL     1      41.006 -14.630  -3.221  1.00  0.00     0.270 C 
HETATM   16  N   UNL     1      42.307 -14.226  -3.349  1.00  0.00    -0.365 N 
HETATM   17  H   UNL     1      42.767 -13.807  -2.550  1.00  0.00     0.159 HD
HETATM   18  H   UNL     1      42.786 -14.361  -4.226  1.00  0.00     0.159 HD
HETATM   19  O   UNL     1      40.411 -15.151  -4.156  1.00  0.00    -0.266 OA
ENDBRANCH   9  15
ENDBRANCH   2   5
BRANCH   1  20
HETATM   20  C   UNL     1      44.132 -19.163   2.132  1.00  0.00     0.112 C 
BRANCH  20  21
HETATM   21  C   UNL     1      44.387 -19.184   3.651  1.00  0.00     0.027 C 
BRANCH  21  22
HETATM   22  C   UNL     1      44.425 -20.620   4.226  1.00  0.00     0.005 C 
HETATM   23  C   UNL     1      44.491 -21.753   3.210  1.00  0.00     0.006 C 
ENDBRANCH  21  22
BRANCH  21  24
HETATM   24  C   UNL     1      43.479 -18.272   4.460  1.00  0.00    -0.053 A 
HETATM   25  C   UNL     1      42.138 -18.581   4.717  1.00  0.00     0.010 A 
HETATM   26  C   UNL     1      41.329 -17.692   5.430  1.00  0.00     0.037 A 
HETATM   27  C   UNL     1      41.834 -16.475   5.887  1.00  0.00     0.068 A 
HETATM   28  C   UNL     1      43.174 -16.169   5.663  1.00  0.00     0.037 A 
HETATM   29  C   UNL     1      43.989 -17.062   4.959  1.00  0.00     0.010 A 
BRANCH  27  30
HETATM   30  O   UNL     1      40.935 -15.686   6.550  1.00  0.00    -0.356 OA
HETATM   31  C   UNL     1      40.319 -14.657   5.785  1.00  0.00     0.210 C 
ENDBRANCH  27  30
ENDBRANCH  21  24
ENDBRANCH  20  21
ENDBRANCH   1  20
TORSDOF 7
ENDMDL
MODEL 5
REMARK VINA RESULT:      -7.8      2.489      3.940
REMARK  7 active torsions:
REMARK  status: ('A' for Active; 'I' for Inactive)
REMARK    1  A    between atoms: C_2  and  C_3 
REMARK    2  A    between atoms: C_3  and  C_4 
REMARK    3  A    between atoms: C_3  and  C_12 
REMARK    4  A    between atoms: C_7  and  O_8 
REMARK    5  A    between atoms: C_12  and  C_13 
REMARK       I    between atoms: C_13  and  N_14 
REMARK    6  A    between atoms: N_14  and  C_15 
REMARK    7  A    between atoms: C_22  and  C_23 
REMARK       I    between atoms: C_23  and  N_24 
ROOT
HETATM    1  C   UNL     1      42.707 -17.774   1.718  1.00  0.00     0.222 C 
HETATM    2  N   UNL     1      41.470 -17.484   2.259  1.00  0.00    -0.327 N 
HETATM    3  O   UNL     1      43.511 -16.958   1.276  1.00  0.00    -0.273 OA
HETATM    4  H   UNL     1      40.908 -18.263   2.566  1.00  0.00     0.169 HD
ENDROOT
BRANCH   2   5
HETATM    5  C   UNL     1      40.845 -16.220   2.357  1.00  0.00     0.035 A 
HETATM    6  C   UNL     1      40.756 -15.478   3.542  1.00  0.00     0.046 A 
HETATM    7  C   UNL     1      40.107 -14.223   3.534  1.00  0.00     0.030 A 
HETATM    8  C   UNL     1      39.578 -13.751   2.340  1.00  0.00     0.063 A 
HETATM    9  C   UNL     1      39.811 -13.209   4.494  1.00  0.00     0.156 A 
HETATM   10  N   UNL     1      39.032 -12.534   2.640  1.00  0.00    -0.277 N 
HETATM   11  C   UNL     1      39.648 -14.461   1.140  1.00  0.00     0.034 A 
HETATM   12  H   UNL     1      38.560 -11.900   2.006  1.00  0.00     0.189 HD
HETATM   13  N   UNL     1      39.150 -12.174   3.928  1.00  0.00    -0.168 NA
HETATM   14  C   UNL     1      40.289 -15.705   1.176  1.00  0.00     0.032 A 
BRANCH   9  15
HETATM   15  C   UNL     1      40.138 -13.208   5.927  1.00  0.00     0.270 C 
HETATM   16  N   UNL     1      41.351 -13.767   6.223  1.00  0.00    -0.365 N 
HETATM   17  H   UNL     1      41.918 -14.126   5.464  1.00  0.00     0.159 HD
HETATM   18  H   UNL     1      41.663 -13.804   7.180  1.00  0.00     0.159 HD
HETATM   19  O   UNL     1      39.421 -12.751   6.810  1.00  0.00    -0.266 OA
ENDBRANCH   9  15
ENDBRANCH   2   5
BRANCH   1  20
HETATM   20  C   UNL     1      43.097 -19.250   1.769  1.00  0.00     0.112 C 
BRANCH  20  21
HETATM   21  C   UNL     1      44.313 -19.613   2.643  1.00  0.00     0.027 C 
BRANCH  21  22
HETATM   22  C   UNL     1      44.800 -21.062   2.407  1.00  0.00     0.005 C 
HETATM   23  C   UNL     1      43.875 -21.963   1.599  1.00  0.00     0.006 C 
ENDBRANCH  21  22
BRANCH  21  24
HETATM   24  C   UNL     1      44.147 -19.302   4.121  1.00  0.00    -0.053 A 
HETATM   25  C   UNL     1      43.851 -18.018   4.592  1.00  0.00     0.010 A 
HETATM   26  C   UNL     1      43.749 -17.770   5.963  1.00  0.00     0.037 A 
HETATM   27  C   UNL     1      43.953 -18.791   6.891  1.00  0.00     0.068 A 
HETATM   28  C   UNL     1      44.220 -20.080   6.435  1.00  0.00     0.037 A 
HETATM   29  C   UNL     1      44.312 -20.333   5.062  1.00  0.00     0.010 A 
BRANCH  27  30
HETATM   30  O   UNL     1      43.848 -18.415   8.202  1.00  0.00    -0.356 OA
HETATM   31  C   UNL     1      43.413 -17.081   8.438  1.00  0.00     0.210 C 
ENDBRANCH  27  30
ENDBRANCH  21  24
ENDBRANCH  20  21
ENDBRANCH   1  20
TORSDOF 7
ENDMDL
MODEL 6
REMARK VINA RESULT:      -7.7      2.880      4.457
REMARK  7 active torsions:
REMARK  status: ('A' for Active; 'I' for Inactive)
REMARK    1  A    between atoms: C_2  and  C_3 
REMARK    2  A    between atoms: C_3  and  C_4 
REMARK    3  A    between atoms: C_3  and  C_12 
REMARK    4  A    between atoms: C_7  and  O_8 
REMARK    5  A    between atoms: C_12  and  C_13 
REMARK       I    between atoms: C_13  and  N_14 
REMARK    6  A    between atoms: N_14  and  C_15 
REMARK    7  A    between atoms: C_22  and  C_23 
REMARK       I    between atoms: C_23  and  N_24 
ROOT
HETATM    1  C   UNL     1      41.564 -15.942   0.620  1.00  0.00     0.222 C 
HETATM    2  N   UNL     1      41.713 -15.513  -0.684  1.00  0.00    -0.327 N 
HETATM    3  O   UNL     1      40.497 -16.134   1.199  1.00  0.00    -0.273 OA
HETATM    4  H   UNL     1      42.655 -15.381  -1.019  1.00  0.00     0.169 HD
ENDROOT
BRANCH   2   5
HETATM    5  C   UNL     1      40.698 -15.142  -1.593  1.00  0.00     0.035 A 
HETATM    6  C   UNL     1      39.773 -14.115  -1.361  1.00  0.00     0.046 A 
HETATM    7  C   UNL     1      38.793 -13.823  -2.337  1.00  0.00     0.030 A 
HETATM    8  C   UNL     1      38.777 -14.563  -3.512  1.00  0.00     0.063 A 
HETATM    9  C   UNL     1      37.713 -12.899  -2.468  1.00  0.00     0.156 A 
HETATM   10  N   UNL     1      37.744 -14.055  -4.248  1.00  0.00    -0.277 N 
HETATM   11  C   UNL     1      39.681 -15.593  -3.778  1.00  0.00     0.034 A 
HETATM   12  H   UNL     1      37.439 -14.353  -5.167  1.00  0.00     0.189 HD
HETATM   13  N   UNL     1      37.076 -13.053  -3.652  1.00  0.00    -0.168 NA
HETATM   14  C   UNL     1      40.637 -15.867  -2.793  1.00  0.00     0.032 A 
BRANCH   9  15
HETATM   15  C   UNL     1      37.275 -11.886  -1.498  1.00  0.00     0.270 C 
HETATM   16  N   UNL     1      37.222 -10.616  -2.005  1.00  0.00    -0.365 N 
HETATM   17  H   UNL     1      37.474 -10.469  -2.975  1.00  0.00     0.159 HD
HETATM   18  H   UNL     1      36.925  -9.855  -1.414  1.00  0.00     0.159 HD
HETATM   19  O   UNL     1      36.969 -12.115  -0.334  1.00  0.00    -0.266 OA
ENDBRANCH   9  15
ENDBRANCH   2   5
BRANCH   1  20
HETATM   20  C   UNL     1      42.870 -16.271   1.339  1.00  0.00     0.112 C 
BRANCH  20  21
HETATM   21  C   UNL     1      42.752 -16.762   2.795  1.00  0.00     0.027 C 
BRANCH  21  22
HETATM   22  C   UNL     1      43.300 -15.734   3.813  1.00  0.00     0.005 C 
HETATM   23  C   UNL     1      43.592 -14.339   3.274  1.00  0.00     0.006 C 
ENDBRANCH  21  22
BRANCH  21  24
HETATM   24  C   UNL     1      43.306 -18.156   3.041  1.00  0.00    -0.053 A 
HETATM   25  C   UNL     1      43.913 -18.523   4.248  1.00  0.00     0.010 A 
HETATM   26  C   UNL     1      44.446 -19.804   4.415  1.00  0.00     0.037 A 
HETATM   27  C   UNL     1      44.398 -20.738   3.380  1.00  0.00     0.068 A 
HETATM   28  C   UNL     1      43.771 -20.395   2.185  1.00  0.00     0.037 A 
HETATM   29  C   UNL     1      43.227 -19.117   2.019  1.00  0.00     0.010 A 
BRANCH  27  30
HETATM   30  O   UNL     1      44.974 -21.945   3.661  1.00  0.00    -0.356 OA
HETATM   31  C   UNL     1      44.962 -22.344   5.027  1.00  0.00     0.210 C 
ENDBRANCH  27  30
ENDBRANCH  21  24
ENDBRANCH  20  21
ENDBRANCH   1  20
TORSDOF 7
ENDMDL
MODEL 7
REMARK VINA RESULT:      -7.7      4.678      7.623
REMARK  7 active torsions:
REMARK  status: ('A' for Active; 'I' for Inactive)
REMARK    1  A    between atoms: C_2  and  C_3 
REMARK    2  A    between atoms: C_3  and  C_4 
REMARK    3  A    between atoms: C_3  and  C_12 
REMARK    4  A    between atoms: C_7  and  O_8 
REMARK    5  A    between atoms: C_12  and  C_13 
REMARK       I    between atoms: C_13  and  N_14 
REMARK    6  A    between atoms: N_14  and  C_15 
REMARK    7  A    between atoms: C_22  and  C_23 
REMARK       I    between atoms: C_23  and  N_24 
ROOT
HETATM    1  C   UNL     1      44.021 -17.231   6.369  1.00  0.00     0.222 C 
HETATM    2  N   UNL     1      44.344 -15.959   5.941  1.00  0.00    -0.327 N 
HETATM    3  O   UNL     1      43.113 -17.523   7.143  1.00  0.00    -0.273 OA
HETATM    4  H   UNL     1      45.131 -15.871   5.316  1.00  0.00     0.169 HD
ENDROOT
BRANCH   2   5
HETATM    5  C   UNL     1      43.760 -14.737   6.344  1.00  0.00     0.035 A 
HETATM    6  C   UNL     1      44.311 -13.885   7.310  1.00  0.00     0.046 A 
HETATM    7  C   UNL     1      43.646 -12.684   7.643  1.00  0.00     0.030 A 
HETATM    8  C   UNL     1      42.459 -12.373   6.993  1.00  0.00     0.063 A 
HETATM    9  C   UNL     1      43.868 -11.599   8.544  1.00  0.00     0.156 A 
HETATM   10  N   UNL     1      42.064 -11.171   7.511  1.00  0.00    -0.277 N 
HETATM   11  C   UNL     1      41.881 -13.196   6.025  1.00  0.00     0.034 A 
HETATM   12  H   UNL     1      41.238 -10.639   7.266  1.00  0.00     0.189 HD
HETATM   13  N   UNL     1      42.885 -10.674   8.450  1.00  0.00    -0.168 NA
HETATM   14  C   UNL     1      42.555 -14.384   5.719  1.00  0.00     0.032 A 
BRANCH   9  15
HETATM   15  C   UNL     1      44.981 -11.428   9.488  1.00  0.00     0.270 C 
HETATM   16  N   UNL     1      44.972 -12.319  10.527  1.00  0.00    -0.365 N 
HETATM   17  H   UNL     1      44.230 -13.007  10.570  1.00  0.00     0.159 HD
HETATM   18  H   UNL     1      45.702 -12.282  11.221  1.00  0.00     0.159 HD
HETATM   19  O   UNL     1      45.863 -10.584   9.387  1.00  0.00    -0.266 OA
ENDBRANCH   9  15
ENDBRANCH   2   5
BRANCH   1  20
HETATM   20  C   UNL     1      44.844 -18.349   5.733  1.00  0.00     0.112 C 
BRANCH  20  21
HETATM   21  C   UNL     1      44.099 -19.292   4.768  1.00  0.00     0.027 C 
BRANCH  21  22
HETATM   22  C   UNL     1      44.957 -20.509   4.349  1.00  0.00     0.005 C 
HETATM   23  C   UNL     1      44.818 -21.761   5.205  1.00  0.00     0.006 C 
ENDBRANCH  21  22
BRANCH  21  24
HETATM   24  C   UNL     1      43.466 -18.603   3.570  1.00  0.00    -0.053 A 
HETATM   25  C   UNL     1      44.127 -18.468   2.344  1.00  0.00     0.010 A 
HETATM   26  C   UNL     1      43.523 -17.790   1.282  1.00  0.00     0.037 A 
HETATM   27  C   UNL     1      42.258 -17.221   1.425  1.00  0.00     0.068 A 
HETATM   28  C   UNL     1      41.578 -17.373   2.631  1.00  0.00     0.037 A 
HETATM   29  C   UNL     1      42.176 -18.061   3.692  1.00  0.00     0.010 A 
BRANCH  27  30
HETATM   30  O   UNL     1      41.787 -16.565   0.321  1.00  0.00    -0.356 OA
HETATM   31  C   UNL     1      41.822 -15.144   0.374  1.00  0.00     0.210 C 
ENDBRANCH  27  30
ENDBRANCH  21  24
ENDBRANCH  20  21
ENDBRANCH   1  20
TORSDOF 7
ENDMDL
MODEL 8
REMARK VINA RESULT:      -7.7      2.539      4.368
REMARK  7 active torsions:
REMARK  status: ('A' for Active; 'I' for Inactive)
REMARK    1  A    between atoms: C_2  and  C_3 
REMARK    2  A    between atoms: C_3  and  C_4 
REMARK    3  A    between atoms: C_3  and  C_12 
REMARK    4  A    between atoms: C_7  and  O_8 
REMARK    5  A    between atoms: C_12  and  C_13 
REMARK       I    between atoms: C_13  and  N_14 
REMARK    6  A    between atoms: N_14  and  C_15 
REMARK    7  A    between atoms: C_22  and  C_23 
REMARK       I    between atoms: C_23  and  N_24 
ROOT
HETATM    1  C   UNL     1      40.159 -15.684   1.212  1.00  0.00     0.222 C 
HETATM    2  N   UNL     1      41.014 -15.893   0.149  1.00  0.00    -0.327 N 
HETATM    3  O   UNL     1      39.401 -14.727   1.352  1.00  0.00    -0.273 OA
HETATM    4  H   UNL     1      41.593 -16.718   0.180  1.00  0.00     0.169 HD
ENDROOT
BRANCH   2   5
HETATM    5  C   UNL     1      41.250 -15.038  -0.951  1.00  0.00     0.035 A 
HETATM    6  C   UNL     1      41.838 -13.770  -0.848  1.00  0.00     0.046 A 
HETATM    7  C   UNL     1      42.029 -12.991  -2.011  1.00  0.00     0.030 A 
HETATM    8  C   UNL     1      41.632 -13.511  -3.237  1.00  0.00     0.063 A 
HETATM    9  C   UNL     1      42.561 -11.701  -2.312  1.00  0.00     0.156 A 
HETATM   10  N   UNL     1      41.946 -12.550  -4.157  1.00  0.00    -0.277 N 
HETATM   11  C   UNL     1      41.044 -14.768  -3.379  1.00  0.00     0.034 A 
HETATM   12  H   UNL     1      41.800 -12.588  -5.159  1.00  0.00     0.189 HD
HETATM   13  N   UNL     1      42.505 -11.444  -3.639  1.00  0.00    -0.168 NA
HETATM   14  C   UNL     1      40.859 -15.517  -2.210  1.00  0.00     0.032 A 
BRANCH   9  15
HETATM   15  C   UNL     1      43.112 -10.715  -1.372  1.00  0.00     0.270 C 
HETATM   16  N   UNL     1      43.446  -9.521  -1.950  1.00  0.00    -0.365 N 
HETATM   17  H   UNL     1      43.294  -9.403  -2.944  1.00  0.00     0.159 HD
HETATM   18  H   UNL     1      43.826  -8.781  -1.381  1.00  0.00     0.159 HD
HETATM   19  O   UNL     1      43.268 -10.902  -0.171  1.00  0.00    -0.266 OA
ENDBRANCH   9  15
ENDBRANCH   2   5
BRANCH   1  20
HETATM   20  C   UNL     1      40.132 -16.811   2.243  1.00  0.00     0.112 C 
BRANCH  20  21
HETATM   21  C   UNL     1      41.112 -16.689   3.426  1.00  0.00     0.027 C 
BRANCH  21  22
HETATM   22  C   UNL     1      41.743 -15.281   3.528  1.00  0.00     0.005 C 
HETATM   23  C   UNL     1      41.640 -14.590   4.882  1.00  0.00     0.006 C 
ENDBRANCH  21  22
BRANCH  21  24
HETATM   24  C   UNL     1      42.159 -17.789   3.498  1.00  0.00    -0.053 A 
HETATM   25  C   UNL     1      42.691 -18.244   4.710  1.00  0.00     0.010 A 
HETATM   26  C   UNL     1      43.683 -19.228   4.726  1.00  0.00     0.037 A 
HETATM   27  C   UNL     1      44.174 -19.766   3.536  1.00  0.00     0.068 A 
HETATM   28  C   UNL     1      43.632 -19.344   2.325  1.00  0.00     0.037 A 
HETATM   29  C   UNL     1      42.631 -18.367   2.307  1.00  0.00     0.010 A 
BRANCH  27  30
HETATM   30  O   UNL     1      45.158 -20.704   3.686  1.00  0.00    -0.356 OA
HETATM   31  C   UNL     1      45.071 -21.525   4.845  1.00  0.00     0.210 C 
ENDBRANCH  27  30
ENDBRANCH  21  24
ENDBRANCH  20  21
ENDBRANCH   1  20
TORSDOF 7
ENDMDL
MODEL 9
REMARK VINA RESULT:      -7.5      2.631      9.272
REMARK  7 active torsions:
REMARK  status: ('A' for Active; 'I' for Inactive)
REMARK    1  A    between atoms: C_2  and  C_3 
REMARK    2  A    between atoms: C_3  and  C_4 
REMARK    3  A    between atoms: C_3  and  C_12 
REMARK    4  A    between atoms: C_7  and  O_8 
REMARK    5  A    between atoms: C_12  and  C_13 
REMARK       I    between atoms: C_13  and  N_14 
REMARK    6  A    between atoms: N_14  and  C_15 
REMARK    7  A    between atoms: C_22  and  C_23 
REMARK       I    between atoms: C_23  and  N_24 
ROOT
HETATM    1  C   UNL     1      41.052 -15.337   2.746  1.00  0.00     0.222 C 
HETATM    2  N   UNL     1      40.921 -16.705   2.877  1.00  0.00    -0.327 N 
HETATM    3  O   UNL     1      42.109 -14.717   2.671  1.00  0.00    -0.273 OA
HETATM    4  H   UNL     1      39.984 -17.072   2.945  1.00  0.00     0.169 HD
ENDROOT
BRANCH   2   5
HETATM    5  C   UNL     1      41.951 -17.661   3.021  1.00  0.00     0.035 A 
HETATM    6  C   UNL     1      42.430 -18.118   4.256  1.00  0.00     0.046 A 
HETATM    7  C   UNL     1      43.467 -19.077   4.292  1.00  0.00     0.030 A 
HETATM    8  C   UNL     1      43.981 -19.552   3.092  1.00  0.00     0.063 A 
HETATM    9  C   UNL     1      44.206 -19.759   5.305  1.00  0.00     0.156 A 
HETATM   10  N   UNL     1      44.945 -20.456   3.442  1.00  0.00    -0.277 N 
HETATM   11  C   UNL     1      43.529 -19.122   1.844  1.00  0.00     0.034 A 
HETATM   12  H   UNL     1      45.529 -21.003   2.820  1.00  0.00     0.189 HD
HETATM   13  N   UNL     1      45.113 -20.606   4.766  1.00  0.00    -0.168 NA
HETATM   14  C   UNL     1      42.507 -18.165   1.836  1.00  0.00     0.032 A 
BRANCH   9  15
HETATM   15  C   UNL     1      44.073 -19.618   6.762  1.00  0.00     0.270 C 
HETATM   16  N   UNL     1      44.506 -18.413   7.247  1.00  0.00    -0.365 N 
HETATM   17  H   UNL     1      44.870 -17.730   6.594  1.00  0.00     0.159 HD
HETATM   18  H   UNL     1      44.447 -18.223   8.235  1.00  0.00     0.159 HD
HETATM   19  O   UNL     1      43.615 -20.472   7.511  1.00  0.00    -0.266 OA
ENDBRANCH   9  15
ENDBRANCH   2   5
BRANCH   1  20
HETATM   20  C   UNL     1      39.733 -14.578   2.604  1.00  0.00     0.112 C 
BRANCH  20  21
HETATM   21  C   UNL     1      39.715 -13.406   1.604  1.00  0.00     0.027 C 
BRANCH  21  22
HETATM   22  C   UNL     1      38.752 -12.275   2.035  1.00  0.00     0.005 C 
HETATM   23  C   UNL     1      38.792 -11.877   3.504  1.00  0.00     0.006 C 
ENDBRANCH  21  22
BRANCH  21  24
HETATM   24  C   UNL     1      39.501 -13.813   0.155  1.00  0.00    -0.053 A 
HETATM   25  C   UNL     1      40.516 -14.380  -0.625  1.00  0.00     0.010 A 
HETATM   26  C   UNL     1      40.286 -14.700  -1.966  1.00  0.00     0.037 A 
HETATM   27  C   UNL     1      39.049 -14.449  -2.559  1.00  0.00     0.068 A 
HETATM   28  C   UNL     1      38.022 -13.914  -1.785  1.00  0.00     0.037 A 
HETATM   29  C   UNL     1      38.246 -13.602  -0.440  1.00  0.00     0.010 A 
BRANCH  27  30
HETATM   30  O   UNL     1      38.959 -14.786  -3.881  1.00  0.00    -0.356 OA
HETATM   31  C   UNL     1      38.992 -16.178  -4.177  1.00  0.00     0.210 C 
ENDBRANCH  27  30
ENDBRANCH  21  24
ENDBRANCH  20  21
ENDBRANCH   1  20
TORSDOF 7
ENDMDL
MODEL 10
REMARK VINA RESULT:      -7.5      2.705      9.208
REMARK  7 active torsions:
REMARK  status: ('A' for Active; 'I' for Inactive)
REMARK    1  A    between atoms: C_2  and  C_3 
REMARK    2  A    between atoms: C_3  and  C_4 
REMARK    3  A    between atoms: C_3  and  C_12 
REMARK    4  A    between atoms: C_7  and  O_8 
REMARK    5  A    between atoms: C_12  and  C_13 
REMARK       I    between atoms: C_13  and  N_14 
REMARK    6  A    between atoms: N_14  and  C_15 
REMARK    7  A    between atoms: C_22  and  C_23 
REMARK       I    between atoms: C_23  and  N_24 
ROOT
HETATM    1  C   UNL     1      42.396 -15.122   2.589  1.00  0.00     0.222 C 
HETATM    2  N   UNL     1      42.033 -16.446   2.448  1.00  0.00    -0.327 N 
HETATM    3  O   UNL     1      43.446 -14.709   3.074  1.00  0.00    -0.273 OA
HETATM    4  H   UNL     1      41.127 -16.634   2.046  1.00  0.00     0.169 HD
ENDROOT
BRANCH   2   5
HETATM    5  C   UNL     1      42.742 -17.588   2.883  1.00  0.00     0.035 A 
HETATM    6  C   UNL     1      42.942 -17.921   4.229  1.00  0.00     0.046 A 
HETATM    7  C   UNL     1      43.669 -19.087   4.560  1.00  0.00     0.030 A 
HETATM    8  C   UNL     1      44.164 -19.881   3.533  1.00  0.00     0.063 A 
HETATM    9  C   UNL     1      44.081 -19.739   5.762  1.00  0.00     0.156 A 
HETATM   10  N   UNL     1      44.801 -20.920   4.153  1.00  0.00    -0.277 N 
HETATM   11  C   UNL     1      43.983 -19.583   2.182  1.00  0.00     0.034 A 
HETATM   12  H   UNL     1      45.279 -21.697   3.712  1.00  0.00     0.189 HD
HETATM   13  N   UNL     1      44.776 -20.868   5.494  1.00  0.00    -0.168 NA
HETATM   14  C   UNL     1      43.267 -18.418   1.881  1.00  0.00     0.032 A 
BRANCH   9  15
HETATM   15  C   UNL     1      43.833 -19.311   7.146  1.00  0.00     0.270 C 
HETATM   16  N   UNL     1      43.596 -20.343   8.013  1.00  0.00    -0.365 N 
HETATM   17  H   UNL     1      43.612 -21.290   7.656  1.00  0.00     0.159 HD
HETATM   18  H   UNL     1      43.423 -20.146   8.986  1.00  0.00     0.159 HD
HETATM   19  O   UNL     1      43.835 -18.149   7.532  1.00  0.00    -0.266 OA
ENDBRANCH   9  15
ENDBRANCH   2   5
BRANCH   1  20
HETATM   20  C   UNL     1      41.404 -14.120   2.002  1.00  0.00     0.112 C 
BRANCH  20  21
HETATM   21  C   UNL     1      41.887 -13.300   0.789  1.00  0.00     0.027 C 
BRANCH  21  22
HETATM   22  C   UNL     1      41.590 -11.789   0.940  1.00  0.00     0.005 C 
HETATM   23  C   UNL     1      40.990 -11.348   2.269  1.00  0.00     0.006 C 
ENDBRANCH  21  22
BRANCH  21  24
HETATM   24  C   UNL     1      41.435 -13.836  -0.560  1.00  0.00    -0.053 A 
HETATM   25  C   UNL     1      41.063 -12.998  -1.617  1.00  0.00     0.010 A 
HETATM   26  C   UNL     1      40.613 -13.536  -2.826  1.00  0.00     0.037 A 
HETATM   27  C   UNL     1      40.512 -14.916  -3.000  1.00  0.00     0.068 A 
HETATM   28  C   UNL     1      40.908 -15.761  -1.966  1.00  0.00     0.037 A 
HETATM   29  C   UNL     1      41.368 -15.226  -0.759  1.00  0.00     0.010 A 
BRANCH  27  30
HETATM   30  O   UNL     1      40.038 -15.314  -4.219  1.00  0.00    -0.356 OA
HETATM   31  C   UNL     1      38.829 -16.064  -4.208  1.00  0.00     0.210 C 
ENDBRANCH  27  30
ENDBRANCH  21  24
ENDBRANCH  20  21
ENDBRANCH   1  20
TORSDOF 7
ENDMDL
