MODEL 1
REMARK VINA RESULT:      -7.7      0.000      0.000
REMARK  4 active torsions:
REMARK  status: ('A' for Active; 'I' for Inactive)
REMARK    1  A    between atoms: C_9  and  N_10 
REMARK    2  A    between atoms: N_10  and  C_12 
REMARK    3  A    between atoms: C_12  and  C_13 
REMARK    4  A    between atoms: C_14  and  C_15 
ROOT
HETATM    1  C   UNL     1      42.997 -16.006   6.152  1.00  0.00     0.016 A 
HETATM    2  C   UNL     1      42.844 -14.649   5.720  1.00  0.00     0.096 A 
HETATM    3  N   UNL     1      43.578 -13.822   6.473  1.00  0.00    -0.174 NA
HETATM    4  N   UNL     1      44.191 -14.605   7.362  1.00  0.00    -0.288 N 
HETATM    5  H   UNL     1      44.817 -14.169   8.036  1.00  0.00     0.188 HD
HETATM    6  C   UNL     1      43.892 -15.929   7.206  1.00  0.00     0.120 A 
ENDROOT
BRANCH   1   7
HETATM    7  C   UNL     1      42.394 -17.210   5.515  1.00  0.00     0.277 C 
BRANCH   7   8
HETATM    8  N   UNL     1      43.390 -18.252   5.041  1.00  0.00    -0.065 N 
HETATM    9  H   UNL     1      44.270 -17.772   4.824  1.00  0.00     0.280 HD
HETATM   10  C   UNL     1      43.635 -19.295   6.107  1.00  0.00     0.270 C 
BRANCH   8  11
HETATM   11  C   UNL     1      42.814 -18.961   3.845  1.00  0.00     0.205 C 
HETATM   12  C   UNL     1      43.857 -19.597   2.787  1.00  0.00     0.008 C 
HETATM   13  C   UNL     1      43.290 -20.765   1.968  1.00  0.00     0.020 C 
HETATM   14  C   UNL     1      45.285 -19.931   3.220  1.00  0.00     0.020 C 
HETATM   15  C   UNL     1      43.792 -18.216   2.122  1.00  0.00     0.137 C 
HETATM   16  C   UNL     1      42.342 -18.054   2.651  1.00  0.00     0.049 C 
HETATM   17  O   UNL     1      43.734 -17.917   0.728  1.00  0.00    -0.385 OA
HETATM   18  C   UNL     1      42.231 -16.652   2.055  1.00  0.00     0.035 C 
HETATM   19  C   UNL     1      42.737 -16.873   0.601  1.00  0.00     0.168 C 
ENDBRANCH   8  11
ENDBRANCH   7   8
ENDBRANCH   1   7
BRANCH   2  20
HETATM   20  C   UNL     1      42.077 -14.136   4.589  1.00  0.00    -0.002 A 
HETATM   21  C   UNL     1      42.715 -13.527   3.500  1.00  0.00     0.053 A 
HETATM   22  C   UNL     1      41.957 -12.993   2.457  1.00  0.00     0.103 A 
HETATM   23  C   UNL     1      40.562 -13.061   2.491  1.00  0.00     0.102 A 
HETATM   24  O   UNL     1      42.656 -12.401   1.436  1.00  0.00    -0.346 OA
HETATM   25  O   UNL     1      39.760 -12.528   1.518  1.00  0.00    -0.346 OA
HETATM   26  C   UNL     1      39.923 -13.706   3.547  1.00  0.00     0.040 A 
HETATM   27  C   UNL     1      40.481 -11.635   0.662  1.00  0.00     0.202 C 
HETATM   28  C   UNL     1      41.828 -12.226   0.277  1.00  0.00     0.202 C 
HETATM   29  C   UNL     1      40.678 -14.241   4.594  1.00  0.00     0.017 A 
ENDBRANCH   2  20
TORSDOF 4
ENDMDL
MODEL 2
REMARK VINA RESULT:      -7.5      2.806      6.325
REMARK  4 active torsions:
REMARK  status: ('A' for Active; 'I' for Inactive)
REMARK    1  A    between atoms: C_9  and  N_10 
REMARK    2  A    between atoms: N_10  and  C_12 
REMARK    3  A    between atoms: C_12  and  C_13 
REMARK    4  A    between atoms: C_14  and  C_15 
ROOT
HETATM    1  C   UNL     1      40.125 -15.126   1.998  1.00  0.00     0.016 A 
HETATM    2  C   UNL     1      40.904 -15.886   1.066  1.00  0.00     0.096 A 
HETATM    3  N   UNL     1      40.570 -15.586  -0.194  1.00  0.00    -0.174 NA
HETATM    4  N   UNL     1      39.611 -14.663  -0.094  1.00  0.00    -0.288 N 
HETATM    5  H   UNL     1      39.217 -14.285  -0.953  1.00  0.00     0.188 HD
HETATM    6  C   UNL     1      39.315 -14.337   1.200  1.00  0.00     0.120 A 
ENDROOT
BRANCH   1   7
HETATM    7  C   UNL     1      40.262 -15.138   3.481  1.00  0.00     0.277 C 
BRANCH   7   8
HETATM    8  N   UNL     1      41.390 -14.281   4.027  1.00  0.00    -0.065 N 
HETATM    9  H   UNL     1      42.163 -14.311   3.353  1.00  0.00     0.280 HD
HETATM   10  C   UNL     1      40.943 -12.851   4.219  1.00  0.00     0.270 C 
BRANCH   8  11
HETATM   11  C   UNL     1      41.787 -14.811   5.378  1.00  0.00     0.205 C 
HETATM   12  C   UNL     1      43.367 -14.926   5.694  1.00  0.00     0.008 C 
HETATM   13  C   UNL     1      43.716 -14.881   7.189  1.00  0.00     0.020 C 
HETATM   14  C   UNL     1      44.371 -14.073   4.917  1.00  0.00     0.020 C 
HETATM   15  C   UNL     1      43.237 -16.324   5.076  1.00  0.00     0.137 C 
HETATM   16  C   UNL     1      41.761 -16.374   5.555  1.00  0.00     0.049 C 
HETATM   17  O   UNL     1      43.834 -17.540   5.525  1.00  0.00    -0.385 OA
HETATM   18  C   UNL     1      41.552 -17.745   4.918  1.00  0.00     0.035 C 
HETATM   19  C   UNL     1      42.788 -18.538   5.431  1.00  0.00     0.168 C 
ENDBRANCH   8  11
ENDBRANCH   7   8
ENDBRANCH   1   7
BRANCH   2  20
HETATM   20  C   UNL     1      41.983 -16.831   1.340  1.00  0.00    -0.002 A 
HETATM   21  C   UNL     1      41.732 -18.205   1.442  1.00  0.00     0.053 A 
HETATM   22  C   UNL     1      42.769 -19.082   1.760  1.00  0.00     0.103 A 
HETATM   23  C   UNL     1      44.061 -18.597   1.981  1.00  0.00     0.102 A 
HETATM   24  O   UNL     1      42.438 -20.409   1.855  1.00  0.00    -0.346 OA
HETATM   25  O   UNL     1      45.115 -19.399   2.330  1.00  0.00    -0.346 OA
HETATM   26  C   UNL     1      44.328 -17.239   1.837  1.00  0.00     0.040 A 
HETATM   27  C   UNL     1      44.681 -20.697   2.751  1.00  0.00     0.202 C 
HETATM   28  C   UNL     1      43.610 -21.239   1.818  1.00  0.00     0.202 C 
HETATM   29  C   UNL     1      43.292 -16.357   1.519  1.00  0.00     0.017 A 
ENDBRANCH   2  20
TORSDOF 4
ENDMDL
MODEL 3
REMARK VINA RESULT:      -7.4      3.528      5.321
REMARK  4 active torsions:
REMARK  status: ('A' for Active; 'I' for Inactive)
REMARK    1  A    between atoms: C_9  and  N_10 
REMARK    2  A    between atoms: N_10  and  C_12 
REMARK    3  A    between atoms: C_12  and  C_13 
REMARK    4  A    between atoms: C_14  and  C_15 
ROOT
HETATM    1  C   UNL     1      40.789 -12.915   1.830  1.00  0.00     0.016 A 
HETATM    2  C   UNL     1      40.922 -12.484   0.470  1.00  0.00     0.096 A 
HETATM    3  N   UNL     1      41.418 -11.244   0.408  1.00  0.00    -0.174 NA
HETATM    4  N   UNL     1      41.608 -10.875   1.676  1.00  0.00    -0.288 N 
HETATM    5  H   UNL     1      41.995  -9.951   1.855  1.00  0.00     0.188 HD
HETATM    6  C   UNL     1      41.262 -11.846   2.573  1.00  0.00     0.120 A 
ENDROOT
BRANCH   1   7
HETATM    7  C   UNL     1      40.339 -14.258   2.292  1.00  0.00     0.277 C 
BRANCH   7   8
HETATM    8  N   UNL     1      40.913 -14.702   3.624  1.00  0.00    -0.065 N 
HETATM    9  H   UNL     1      41.793 -14.197   3.774  1.00  0.00     0.280 HD
HETATM   10  C   UNL     1      39.959 -14.399   4.756  1.00  0.00     0.270 C 
BRANCH   8  11
HETATM   11  C   UNL     1      41.108 -16.194   3.591  1.00  0.00     0.205 C 
HETATM   12  C   UNL     1      42.351 -16.798   4.428  1.00  0.00     0.008 C 
HETATM   13  C   UNL     1      42.172 -18.262   4.855  1.00  0.00     0.020 C 
HETATM   14  C   UNL     1      42.956 -16.006   5.588  1.00  0.00     0.020 C 
HETATM   15  C   UNL     1      43.141 -16.568   3.133  1.00  0.00     0.137 C 
HETATM   16  C   UNL     1      41.833 -16.779   2.324  1.00  0.00     0.049 C 
HETATM   17  O   UNL     1      44.112 -17.425   2.535  1.00  0.00    -0.385 OA
HETATM   18  C   UNL     1      42.550 -16.511   1.003  1.00  0.00     0.035 C 
HETATM   19  C   UNL     1      43.804 -17.425   1.119  1.00  0.00     0.168 C 
ENDBRANCH   8  11
ENDBRANCH   7   8
ENDBRANCH   1   7
BRANCH   2  20
HETATM   20  C   UNL     1      40.649 -13.235  -0.752  1.00  0.00    -0.002 A 
HETATM   21  C   UNL     1      39.337 -13.542  -1.133  1.00  0.00     0.053 A 
HETATM   22  C   UNL     1      39.103 -14.309  -2.276  1.00  0.00     0.103 A 
HETATM   23  C   UNL     1      40.174 -14.775  -3.044  1.00  0.00     0.102 A 
HETATM   24  O   UNL     1      37.792 -14.578  -2.572  1.00  0.00    -0.346 OA
HETATM   25  O   UNL     1      40.015 -15.559  -4.155  1.00  0.00    -0.346 OA
HETATM   26  C   UNL     1      41.479 -14.435  -2.697  1.00  0.00     0.040 A 
HETATM   27  C   UNL     1      38.693 -16.101  -4.241  1.00  0.00     0.202 C 
HETATM   28  C   UNL     1      37.652 -15.039  -3.925  1.00  0.00     0.202 C 
HETATM   29  C   UNL     1      41.716 -13.668  -1.553  1.00  0.00     0.017 A 
ENDBRANCH   2  20
TORSDOF 4
ENDMDL
MODEL 4
REMARK VINA RESULT:      -7.3      2.071      6.350
REMARK  4 active torsions:
REMARK  status: ('A' for Active; 'I' for Inactive)
REMARK    1  A    between atoms: C_9  and  N_10 
REMARK    2  A    between atoms: N_10  and  C_12 
REMARK    3  A    between atoms: C_12  and  C_13 
REMARK    4  A    between atoms: C_14  and  C_15 
ROOT
HETATM    1  C   UNL     1      41.471 -15.223   4.940  1.00  0.00     0.016 A 
HETATM    2  C   UNL     1      41.584 -16.594   5.338  1.00  0.00     0.096 A 
HETATM    3  N   UNL     1      40.624 -16.919   6.211  1.00  0.00    -0.174 NA
HETATM    4  N   UNL     1      39.906 -15.807   6.376  1.00  0.00    -0.288 N 
HETATM    5  H   UNL     1      39.106 -15.840   7.004  1.00  0.00     0.188 HD
HETATM    6  C   UNL     1      40.361 -14.760   5.625  1.00  0.00     0.120 A 
ENDROOT
BRANCH   1   7
HETATM    7  C   UNL     1      42.316 -14.523   3.933  1.00  0.00     0.277 C 
BRANCH   7   8
HETATM    8  N   UNL     1      41.644 -13.359   3.229  1.00  0.00    -0.065 N 
HETATM    9  H   UNL     1      40.636 -13.550   3.195  1.00  0.00     0.280 HD
HETATM   10  C   UNL     1      41.886 -12.063   3.967  1.00  0.00     0.270 C 
BRANCH   8  11
HETATM   11  C   UNL     1      42.245 -13.212   1.858  1.00  0.00     0.205 C 
HETATM   12  C   UNL     1      41.324 -12.540   0.713  1.00  0.00     0.008 C 
HETATM   13  C   UNL     1      42.115 -11.880  -0.426  1.00  0.00     0.020 C 
HETATM   14  C   UNL     1      40.151 -11.638   1.099  1.00  0.00     0.020 C 
HETATM   15  C   UNL     1      40.853 -13.977   0.458  1.00  0.00     0.137 C 
HETATM   16  C   UNL     1      42.234 -14.492   0.945  1.00  0.00     0.049 C 
HETATM   17  O   UNL     1      40.620 -14.614  -0.797  1.00  0.00    -0.385 OA
HETATM   18  C   UNL     1      41.810 -15.947   0.761  1.00  0.00     0.035 C 
HETATM   19  C   UNL     1      41.205 -15.934  -0.672  1.00  0.00     0.168 C 
ENDBRANCH   8  11
ENDBRANCH   7   8
ENDBRANCH   1   7
BRANCH   2  20
HETATM   20  C   UNL     1      42.531 -17.602   4.871  1.00  0.00    -0.002 A 
HETATM   21  C   UNL     1      42.316 -18.296   3.673  1.00  0.00     0.053 A 
HETATM   22  C   UNL     1      43.205 -19.294   3.275  1.00  0.00     0.103 A 
HETATM   23  C   UNL     1      44.313 -19.609   4.067  1.00  0.00     0.102 A 
HETATM   24  O   UNL     1      42.916 -19.935   2.098  1.00  0.00    -0.346 OA
HETATM   25  O   UNL     1      45.204 -20.600   3.751  1.00  0.00    -0.346 OA
HETATM   26  C   UNL     1      44.559 -18.893   5.235  1.00  0.00     0.040 A 
HETATM   27  C   UNL     1      44.700 -21.464   2.726  1.00  0.00     0.202 C 
HETATM   28  C   UNL     1      44.056 -20.659   1.609  1.00  0.00     0.202 C 
HETATM   29  C   UNL     1      43.670 -17.893   5.637  1.00  0.00     0.017 A 
ENDBRANCH   2  20
TORSDOF 4
ENDMDL
MODEL 5
REMARK VINA RESULT:      -7.3      4.792      6.292
REMARK  4 active torsions:
REMARK  status: ('A' for Active; 'I' for Inactive)
REMARK    1  A    between atoms: C_9  and  N_10 
REMARK    2  A    between atoms: N_10  and  C_12 
REMARK    3  A    between atoms: C_12  and  C_13 
REMARK    4  A    between atoms: C_14  and  C_15 
ROOT
HETATM    1  C   UNL     1      44.939 -13.375   7.429  1.00  0.00     0.016 A 
HETATM    2  C   UNL     1      45.212 -12.447   8.486  1.00  0.00     0.096 A 
HETATM    3  N   UNL     1      46.467 -11.991   8.409  1.00  0.00    -0.174 NA
HETATM    4  N   UNL     1      46.996 -12.591   7.341  1.00  0.00    -0.288 N 
HETATM    5  H   UNL     1      47.958 -12.371   7.093  1.00  0.00     0.188 HD
HETATM    6  C   UNL     1      46.117 -13.422   6.704  1.00  0.00     0.120 A 
ENDROOT
BRANCH   1   7
HETATM    7  C   UNL     1      43.633 -14.036   7.149  1.00  0.00     0.277 C 
BRANCH   7   8
HETATM    8  N   UNL     1      43.734 -15.435   6.572  1.00  0.00    -0.065 N 
HETATM    9  H   UNL     1      44.625 -15.505   6.068  1.00  0.00     0.280 HD
HETATM   10  C   UNL     1      43.689 -16.478   7.663  1.00  0.00     0.270 C 
BRANCH   8  11
HETATM   11  C   UNL     1      42.549 -15.674   5.676  1.00  0.00     0.205 C 
HETATM   12  C   UNL     1      42.749 -16.691   4.437  1.00  0.00     0.008 C 
HETATM   13  C   UNL     1      41.452 -17.349   3.946  1.00  0.00     0.020 C 
HETATM   14  C   UNL     1      43.863 -17.738   4.472  1.00  0.00     0.020 C 
HETATM   15  C   UNL     1      43.196 -15.437   3.674  1.00  0.00     0.137 C 
HETATM   16  C   UNL     1      42.268 -14.583   4.579  1.00  0.00     0.049 C 
HETATM   17  O   UNL     1      42.881 -15.067   2.332  1.00  0.00    -0.385 OA
HETATM   18  C   UNL     1      42.708 -13.292   3.894  1.00  0.00     0.035 C 
HETATM   19  C   UNL     1      42.567 -13.654   2.388  1.00  0.00     0.168 C 
ENDBRANCH   8  11
ENDBRANCH   7   8
ENDBRANCH   1   7
BRANCH   2  20
HETATM   20  C   UNL     1      44.305 -11.948   9.516  1.00  0.00    -0.002 A 
HETATM   21  C   UNL     1      43.290 -11.035   9.203  1.00  0.00     0.053 A 
HETATM   22  C   UNL     1      42.471 -10.529  10.213  1.00  0.00     0.103 A 
HETATM   23  C   UNL     1      42.659 -10.927  11.540  1.00  0.00     0.102 A 
HETATM   24  O   UNL     1      41.512  -9.629   9.827  1.00  0.00    -0.346 OA
HETATM   25  O   UNL     1      41.913 -10.443  12.581  1.00  0.00    -0.346 OA
HETATM   26  C   UNL     1      43.635 -11.869  11.851  1.00  0.00     0.040 A 
HETATM   27  C   UNL     1      41.171  -9.276  12.209  1.00  0.00     0.202 C 
HETATM   28  C   UNL     1      40.517  -9.463  10.849  1.00  0.00     0.202 C 
HETATM   29  C   UNL     1      44.458 -12.377  10.842  1.00  0.00     0.017 A 
ENDBRANCH   2  20
TORSDOF 4
ENDMDL
MODEL 6
REMARK VINA RESULT:      -7.3      3.175      4.319
REMARK  4 active torsions:
REMARK  status: ('A' for Active; 'I' for Inactive)
REMARK    1  A    between atoms: C_9  and  N_10 
REMARK    2  A    between atoms: N_10  and  C_12 
REMARK    3  A    between atoms: C_12  and  C_13 
REMARK    4  A    between atoms: C_14  and  C_15 
ROOT
HETATM    1  C   UNL     1      41.943 -14.963   3.453  1.00  0.00     0.016 A 
HETATM    2  C   UNL     1      41.653 -13.574   3.644  1.00  0.00     0.096 A 
HETATM    3  N   UNL     1      42.000 -12.860   2.568  1.00  0.00    -0.174 NA
HETATM    4  N   UNL     1      42.495 -13.746   1.702  1.00  0.00    -0.288 N 
HETATM    5  H   UNL     1      42.815 -13.407   0.797  1.00  0.00     0.188 HD
HETATM    6  C   UNL     1      42.471 -15.028   2.174  1.00  0.00     0.120 A 
ENDROOT
BRANCH   1   7
HETATM    7  C   UNL     1      41.633 -16.070   4.401  1.00  0.00     0.277 C 
BRANCH   7   8
HETATM    8  N   UNL     1      42.802 -16.534   5.249  1.00  0.00    -0.065 N 
HETATM    9  H   UNL     1      43.667 -16.226   4.791  1.00  0.00     0.280 HD
HETATM   10  C   UNL     1      42.732 -15.948   6.639  1.00  0.00     0.270 C 
BRANCH   8  11
HETATM   11  C   UNL     1      42.731 -18.030   5.390  1.00  0.00     0.205 C 
HETATM   12  C   UNL     1      44.099 -18.806   5.759  1.00  0.00     0.008 C 
HETATM   13  C   UNL     1      43.890 -20.156   6.460  1.00  0.00     0.020 C 
HETATM   14  C   UNL     1      45.249 -18.060   6.438  1.00  0.00     0.020 C 
HETATM   15  C   UNL     1      44.301 -18.862   4.239  1.00  0.00     0.137 C 
HETATM   16  C   UNL     1      42.760 -18.864   4.057  1.00  0.00     0.049 C 
HETATM   17  O   UNL     1      44.787 -19.954   3.459  1.00  0.00    -0.385 OA
HETATM   18  C   UNL     1      42.891 -18.869   2.537  1.00  0.00     0.035 C 
HETATM   19  C   UNL     1      43.920 -20.013   2.300  1.00  0.00     0.168 C 
ENDBRANCH   8  11
ENDBRANCH   7   8
ENDBRANCH   1   7
BRANCH   2  20
HETATM   20  C   UNL     1      41.008 -12.928   4.784  1.00  0.00    -0.002 A 
HETATM   21  C   UNL     1      41.744 -12.142   5.680  1.00  0.00     0.053 A 
HETATM   22  C   UNL     1      41.118 -11.581   6.793  1.00  0.00     0.103 A 
HETATM   23  C   UNL     1      39.756 -11.800   7.022  1.00  0.00     0.102 A 
HETATM   24  O   UNL     1      41.910 -10.837   7.629  1.00  0.00    -0.346 OA
HETATM   25  O   UNL     1      39.090 -11.307   8.112  1.00  0.00    -0.346 OA
HETATM   26  C   UNL     1      39.009 -12.541   6.112  1.00  0.00     0.040 A 
HETATM   27  C   UNL     1      39.991 -10.840   9.122  1.00  0.00     0.202 C 
HETATM   28  C   UNL     1      41.116 -10.025   8.507  1.00  0.00     0.202 C 
HETATM   29  C   UNL     1      39.633 -13.106   4.996  1.00  0.00     0.017 A 
ENDBRANCH   2  20
TORSDOF 4
ENDMDL
MODEL 7
REMARK VINA RESULT:      -7.2      2.040      6.348
REMARK  4 active torsions:
REMARK  status: ('A' for Active; 'I' for Inactive)
REMARK    1  A    between atoms: C_9  and  N_10 
REMARK    2  A    between atoms: N_10  and  C_12 
REMARK    3  A    between atoms: C_12  and  C_13 
REMARK    4  A    between atoms: C_14  and  C_15 
ROOT
HETATM    1  C   UNL     1      42.544 -15.540   5.099  1.00  0.00     0.016 A 
HETATM    2  C   UNL     1      43.325 -16.735   5.222  1.00  0.00     0.096 A 
HETATM    3  N   UNL     1      44.015 -16.739   6.368  1.00  0.00    -0.174 NA
HETATM    4  N   UNL     1      43.698 -15.594   6.975  1.00  0.00    -0.288 N 
HETATM    5  H   UNL     1      44.115 -15.400   7.883  1.00  0.00     0.188 HD
HETATM    6  C   UNL     1      42.806 -14.841   6.265  1.00  0.00     0.120 A 
ENDROOT
BRANCH   1   7
HETATM    7  C   UNL     1      41.597 -15.212   3.997  1.00  0.00     0.277 C 
BRANCH   7   8
HETATM    8  N   UNL     1      42.079 -14.142   3.034  1.00  0.00    -0.065 N 
HETATM    9  H   UNL     1      41.649 -13.253   3.311  1.00  0.00     0.280 HD
HETATM   10  C   UNL     1      43.583 -14.011   3.075  1.00  0.00     0.270 C 
BRANCH   8  11
HETATM   11  C   UNL     1      41.703 -14.549   1.635  1.00  0.00     0.205 C 
HETATM   12  C   UNL     1      41.490 -13.369   0.552  1.00  0.00     0.008 C 
HETATM   13  C   UNL     1      41.705 -13.803  -0.904  1.00  0.00     0.020 C 
HETATM   14  C   UNL     1      42.134 -11.999   0.770  1.00  0.00     0.020 C 
HETATM   15  C   UNL     1      40.038 -13.379   1.049  1.00  0.00     0.137 C 
HETATM   16  C   UNL     1      40.188 -14.887   1.385  1.00  0.00     0.049 C 
HETATM   17  O   UNL     1      38.845 -13.269   0.274  1.00  0.00    -0.385 OA
HETATM   18  C   UNL     1      38.767 -14.954   1.940  1.00  0.00     0.035 C 
HETATM   19  C   UNL     1      37.943 -14.264   0.815  1.00  0.00     0.168 C 
ENDBRANCH   8  11
ENDBRANCH   7   8
ENDBRANCH   1   7
BRANCH   2  20
HETATM   20  C   UNL     1      43.381 -17.881   4.319  1.00  0.00    -0.002 A 
HETATM   21  C   UNL     1      44.061 -19.051   4.680  1.00  0.00     0.053 A 
HETATM   22  C   UNL     1      44.150 -20.113   3.779  1.00  0.00     0.103 A 
HETATM   23  C   UNL     1      43.564 -20.015   2.513  1.00  0.00     0.102 A 
HETATM   24  O   UNL     1      44.845 -21.216   4.202  1.00  0.00    -0.346 OA
HETATM   25  O   UNL     1      43.643 -21.005   1.571  1.00  0.00    -0.346 OA
HETATM   26  C   UNL     1      42.848 -18.873   2.165  1.00  0.00     0.040 A 
HETATM   27  C   UNL     1      44.642 -21.976   1.901  1.00  0.00     0.202 C 
HETATM   28  C   UNL     1      44.565 -22.353   3.371  1.00  0.00     0.202 C 
HETATM   29  C   UNL     1      42.757 -17.808   3.065  1.00  0.00     0.017 A 
ENDBRANCH   2  20
TORSDOF 4
ENDMDL
MODEL 8
REMARK VINA RESULT:      -7.2      2.765      4.703
REMARK  4 active torsions:
REMARK  status: ('A' for Active; 'I' for Inactive)
REMARK    1  A    between atoms: C_9  and  N_10 
REMARK    2  A    between atoms: N_10  and  C_12 
REMARK    3  A    between atoms: C_12  and  C_13 
REMARK    4  A    between atoms: C_14  and  C_15 
ROOT
HETATM    1  C   UNL     1      41.293 -15.931   1.830  1.00  0.00     0.016 A 
HETATM    2  C   UNL     1      40.660 -15.005   0.939  1.00  0.00     0.096 A 
HETATM    3  N   UNL     1      39.332 -15.016   1.103  1.00  0.00    -0.174 NA
HETATM    4  N   UNL     1      39.103 -15.911   2.066  1.00  0.00    -0.288 N 
HETATM    5  H   UNL     1      38.140 -16.069   2.356  1.00  0.00     0.188 HD
HETATM    6  C   UNL     1      40.247 -16.481   2.550  1.00  0.00     0.120 A 
ENDROOT
BRANCH   1   7
HETATM    7  C   UNL     1      42.759 -16.146   1.986  1.00  0.00     0.277 C 
BRANCH   7   8
HETATM    8  N   UNL     1      43.300 -15.886   3.380  1.00  0.00    -0.065 N 
HETATM    9  H   UNL     1      44.324 -15.902   3.329  1.00  0.00     0.280 HD
HETATM   10  C   UNL     1      42.842 -14.544   3.900  1.00  0.00     0.270 C 
BRANCH   8  11
HETATM   11  C   UNL     1      42.757 -16.936   4.311  1.00  0.00     0.205 C 
HETATM   12  C   UNL     1      43.489 -17.110   5.740  1.00  0.00     0.008 C 
HETATM   13  C   UNL     1      42.597 -17.708   6.837  1.00  0.00     0.020 C 
HETATM   14  C   UNL     1      44.311 -15.963   6.329  1.00  0.00     0.020 C 
HETATM   15  C   UNL     1      44.388 -18.102   4.990  1.00  0.00     0.137 C 
HETATM   16  C   UNL     1      43.205 -18.418   4.036  1.00  0.00     0.049 C 
HETATM   17  O   UNL     1      44.870 -19.365   5.445  1.00  0.00    -0.385 OA
HETATM   18  C   UNL     1      44.060 -19.381   3.217  1.00  0.00     0.035 C 
HETATM   19  C   UNL     1      44.708 -20.265   4.321  1.00  0.00     0.168 C 
ENDBRANCH   8  11
ENDBRANCH   7   8
ENDBRANCH   1   7
BRANCH   2  20
HETATM   20  C   UNL     1      41.281 -14.082  -0.006  1.00  0.00    -0.002 A 
HETATM   21  C   UNL     1      41.814 -12.860   0.423  1.00  0.00     0.053 A 
HETATM   22  C   UNL     1      42.353 -11.969  -0.506  1.00  0.00     0.103 A 
HETATM   23  C   UNL     1      42.362 -12.288  -1.867  1.00  0.00     0.102 A 
HETATM   24  O   UNL     1      42.841 -10.788  -0.007  1.00  0.00    -0.346 OA
HETATM   25  O   UNL     1      42.844 -11.445  -2.832  1.00  0.00    -0.346 OA
HETATM   26  C   UNL     1      41.876 -13.520  -2.295  1.00  0.00     0.040 A 
HETATM   27  C   UNL     1      43.023 -10.113  -2.337  1.00  0.00     0.202 C 
HETATM   28  C   UNL     1      43.682 -10.130  -0.967  1.00  0.00     0.202 C 
HETATM   29  C   UNL     1      41.335 -14.414  -1.367  1.00  0.00     0.017 A 
ENDBRANCH   2  20
TORSDOF 4
ENDMDL
MODEL 9
REMARK VINA RESULT:      -7.2      2.485      6.397
REMARK  4 active torsions:
REMARK  status: ('A' for Active; 'I' for Inactive)
REMARK    1  A    between atoms: C_9  and  N_10 
REMARK    2  A    between atoms: N_10  and  C_12 
REMARK    3  A    between atoms: C_12  and  C_13 
REMARK    4  A    between atoms: C_14  and  C_15 
ROOT
HETATM    1  C   UNL     1      41.094 -15.000   3.818  1.00  0.00     0.016 A 
HETATM    2  C   UNL     1      41.390 -15.978   4.822  1.00  0.00     0.096 A 
HETATM    3  N   UNL     1      40.512 -15.909   5.829  1.00  0.00    -0.174 NA
HETATM    4  N   UNL     1      39.672 -14.927   5.498  1.00  0.00    -0.288 N 
HETATM    5  H   UNL     1      38.908 -14.713   6.136  1.00  0.00     0.188 HD
HETATM    6  C   UNL     1      39.964 -14.356   4.292  1.00  0.00     0.120 A 
ENDROOT
BRANCH   1   7
HETATM    7  C   UNL     1      41.806 -14.823   2.521  1.00  0.00     0.277 C 
BRANCH   7   8
HETATM    8  N   UNL     1      41.134 -15.474   1.327  1.00  0.00    -0.065 N 
HETATM    9  H   UNL     1      41.867 -15.879   0.734  1.00  0.00     0.280 HD
HETATM   10  C   UNL     1      40.182 -16.563   1.765  1.00  0.00     0.270 C 
BRANCH   8  11
HETATM   11  C   UNL     1      40.322 -14.434   0.604  1.00  0.00     0.205 C 
HETATM   12  C   UNL     1      40.437 -14.392  -1.007  1.00  0.00     0.008 C 
HETATM   13  C   UNL     1      39.216 -13.783  -1.711  1.00  0.00     0.020 C 
HETATM   14  C   UNL     1      40.896 -15.630  -1.779  1.00  0.00     0.020 C 
HETATM   15  C   UNL     1      41.609 -13.437  -0.750  1.00  0.00     0.137 C 
HETATM   16  C   UNL     1      40.919 -12.980   0.563  1.00  0.00     0.049 C 
HETATM   17  O   UNL     1      41.937 -12.241  -1.455  1.00  0.00    -0.385 OA
HETATM   18  C   UNL     1      42.078 -12.047   0.904  1.00  0.00     0.035 C 
HETATM   19  C   UNL     1      42.281 -11.275  -0.432  1.00  0.00     0.168 C 
ENDBRANCH   8  11
ENDBRANCH   7   8
ENDBRANCH   1   7
BRANCH   2  20
HETATM   20  C   UNL     1      42.433 -17.000   4.818  1.00  0.00    -0.002 A 
HETATM   21  C   UNL     1      42.489 -17.971   3.811  1.00  0.00     0.053 A 
HETATM   22  C   UNL     1      43.461 -18.971   3.858  1.00  0.00     0.103 A 
HETATM   23  C   UNL     1      44.382 -19.011   4.910  1.00  0.00     0.102 A 
HETATM   24  O   UNL     1      43.440 -19.892   2.843  1.00  0.00    -0.346 OA
HETATM   25  O   UNL     1      45.337 -19.983   5.034  1.00  0.00    -0.346 OA
HETATM   26  C   UNL     1      44.361 -18.022   5.890  1.00  0.00     0.040 A 
HETATM   27  C   UNL     1      45.078 -21.099   4.175  1.00  0.00     0.202 C 
HETATM   28  C   UNL     1      44.671 -20.629   2.788  1.00  0.00     0.202 C 
HETATM   29  C   UNL     1      43.388 -17.020   5.845  1.00  0.00     0.017 A 
ENDBRANCH   2  20
TORSDOF 4
ENDMDL
MODEL 10
REMARK VINA RESULT:      -7.2      2.158      5.097
REMARK  4 active torsions:
REMARK  status: ('A' for Active; 'I' for Inactive)
REMARK    1  A    between atoms: C_9  and  N_10 
REMARK    2  A    between atoms: N_10  and  C_12 
REMARK    3  A    between atoms: C_12  and  C_13 
REMARK    4  A    between atoms: C_14  and  C_15 
ROOT
HETATM    1  C   UNL     1      43.230 -17.089   3.260  1.00  0.00     0.016 A 
HETATM    2  C   UNL     1      42.322 -17.371   2.189  1.00  0.00     0.096 A 
HETATM    3  N   UNL     1      42.336 -18.673   1.881  1.00  0.00    -0.174 NA
HETATM    4  N   UNL     1      43.215 -19.225   2.718  1.00  0.00    -0.288 N 
HETATM    5  H   UNL     1      43.373 -20.228   2.657  1.00  0.00     0.188 HD
HETATM    6  C   UNL     1      43.772 -18.323   3.581  1.00  0.00     0.120 A 
ENDROOT
BRANCH   1   7
HETATM    7  C   UNL     1      43.436 -15.770   3.921  1.00  0.00     0.277 C 
BRANCH   7   8
HETATM    8  N   UNL     1      42.342 -15.362   4.891  1.00  0.00    -0.065 N 
HETATM    9  H   UNL     1      41.444 -15.665   4.500  1.00  0.00     0.280 HD
HETATM   10  C   UNL     1      42.547 -16.004   6.243  1.00  0.00     0.270 C 
BRANCH   8  11
HETATM   11  C   UNL     1      42.406 -13.871   5.089  1.00  0.00     0.205 C 
HETATM   12  C   UNL     1      41.022 -13.109   5.427  1.00  0.00     0.008 C 
HETATM   13  C   UNL     1      41.200 -11.785   6.183  1.00  0.00     0.020 C 
HETATM   14  C   UNL     1      39.846 -13.879   6.029  1.00  0.00     0.020 C 
HETATM   15  C   UNL     1      40.885 -12.998   3.903  1.00  0.00     0.137 C 
HETATM   16  C   UNL     1      42.433 -12.990   3.786  1.00  0.00     0.049 C 
HETATM   17  O   UNL     1      40.431 -11.879   3.142  1.00  0.00    -0.385 OA
HETATM   18  C   UNL     1      42.366 -12.931   2.262  1.00  0.00     0.035 C 
HETATM   19  C   UNL     1      41.347 -11.779   2.024  1.00  0.00     0.168 C 
ENDBRANCH   8  11
ENDBRANCH   7   8
ENDBRANCH   1   7
BRANCH   2  20
HETATM   20  C   UNL     1      41.411 -16.458   1.504  1.00  0.00    -0.002 A 
HETATM   21  C   UNL     1      41.721 -15.944   0.239  1.00  0.00     0.053 A 
HETATM   22  C   UNL     1      40.863 -15.029  -0.372  1.00  0.00     0.103 A 
HETATM   23  C   UNL     1      39.693 -14.619   0.274  1.00  0.00     0.102 A 
HETATM   24  O   UNL     1      41.244 -14.563  -1.604  1.00  0.00    -0.346 OA
HETATM   25  O   UNL     1      38.826 -13.700  -0.255  1.00  0.00    -0.346 OA
HETATM   26  C   UNL     1      39.356 -15.160   1.511  1.00  0.00     0.040 A 
HETATM   27  C   UNL     1      39.408 -12.988  -1.352  1.00  0.00     0.202 C 
HETATM   28  C   UNL     1      40.145 -13.937  -2.283  1.00  0.00     0.202 C 
HETATM   29  C   UNL     1      40.213 -16.077   2.126  1.00  0.00     0.017 A 
ENDBRANCH   2  20
TORSDOF 4
ENDMDL
