MODEL 1
REMARK VINA RESULT:      -8.5      0.000      0.000
REMARK  8 active torsions:
REMARK  status: ('A' for Active; 'I' for Inactive)
REMARK    1  A    between atoms: C_3  and  N_4 
REMARK       I    between atoms: N_4  and  C_5 
REMARK       I    between atoms: C_5  and  N_6 
REMARK       I    between atoms: N_6  and  C_7 
REMARK    2  A    between atoms: C_7  and  C_8 
REMARK    3  A    between atoms: C_8  and  N_9 
REMARK    4  A    between atoms: N_9  and  C_11 
REMARK    5  A    between atoms: N_9  and  C_17 
REMARK    6  A    between atoms: C_11  and  C_12 
REMARK    7  A    between atoms: C_17  and  C_18 
REMARK    8  A    between atoms: C_19  and  O_20 
ROOT
HETATM    1  N   UNL     1      42.396 -17.423   3.350  1.00  0.00    -0.053 N 
HETATM    2  H   UNL     1      42.369 -16.393   3.370  1.00  0.00     0.281 HD
ENDROOT
BRANCH   1   3
HETATM    3  C   UNL     1      41.517 -17.786   2.155  1.00  0.00     0.338 C 
BRANCH   3   4
HETATM    4  C   UNL     1      41.598 -16.769   1.017  1.00  0.00     0.251 C 
HETATM    5  N   UNL     1      40.463 -16.002   0.855  1.00  0.00    -0.278 N 
HETATM    6  C   UNL     1      40.341 -14.805   0.199  1.00  0.00     0.323 C 
HETATM    7  H   UNL     1      39.688 -16.110   1.498  1.00  0.00     0.173 HD
HETATM    8  N   UNL     1      41.361 -14.460  -0.630  1.00  0.00    -0.338 N 
HETATM    9  O   UNL     1      39.356 -14.115   0.437  1.00  0.00    -0.247 OA
HETATM   10  H   UNL     1      42.071 -15.162  -0.812  1.00  0.00     0.164 HD
HETATM   11  O   UNL     1      42.604 -16.711   0.308  1.00  0.00    -0.271 OA
BRANCH   8  12
HETATM   12  C   UNL     1      41.399 -13.246  -1.445  1.00  0.00     0.089 C 
HETATM   13  C   UNL     1      41.610 -13.518  -2.954  1.00  0.00     0.004 C 
HETATM   14  C   UNL     1      40.524 -14.438  -3.524  1.00  0.00     0.012 C 
HETATM   15  C   UNL     1      41.636 -12.198  -3.744  1.00  0.00     0.006 C 
HETATM   16  C   UNL     1      42.668 -11.220  -3.189  1.00  0.00     0.001 C 
HETATM   17  C   UNL     1      42.441 -10.949  -1.706  1.00  0.00     0.002 C 
HETATM   18  C   UNL     1      42.428 -12.244  -0.899  1.00  0.00     0.026 C 
ENDBRANCH   8  12
ENDBRANCH   3   4
ENDBRANCH   1   3
BRANCH   1  19
HETATM   19  C   UNL     1      41.849 -17.848   4.696  1.00  0.00     0.300 C 
BRANCH  19  20
HETATM   20  C   UNL     1      42.564 -17.287   5.871  1.00  0.00     0.078 A 
HETATM   21  O   UNL     1      42.819 -18.148   6.899  1.00  0.00    -0.325 OA
HETATM   22  C   UNL     1      43.454 -17.439   7.867  1.00  0.00     0.142 A 
HETATM   23  C   UNL     1      43.618 -16.133   7.473  1.00  0.00     0.027 A 
HETATM   24  C   UNL     1      43.040 -16.030   6.184  1.00  0.00     0.036 A 
ENDBRANCH  19  20
ENDBRANCH   1  19
BRANCH   1  25
HETATM   25  C   UNL     1      43.835 -17.818   3.135  1.00  0.00     0.277 C 
BRANCH  25  26
HETATM   26  C   UNL     1      44.016 -19.307   3.044  1.00  0.00     0.001 A 
HETATM   27  C   UNL     1      44.625 -20.024   4.080  1.00  0.00     0.073 A 
HETATM   28  C   UNL     1      44.802 -21.403   3.999  1.00  0.00     0.037 A 
HETATM   29  C   UNL     1      44.361 -22.086   2.868  1.00  0.00     0.003 A 
HETATM   30  C   UNL     1      43.742 -21.393   1.829  1.00  0.00     0.001 A 
HETATM   31  C   UNL     1      43.566 -20.010   1.916  1.00  0.00     0.011 A 
BRANCH  27  32
HETATM   32  O   UNL     1      45.042 -19.342   5.189  1.00  0.00    -0.360 OA
HETATM   33  H   UNL     1      45.925 -19.681   5.438  1.00  0.00     0.217 HD
ENDBRANCH  27  32
ENDBRANCH  25  26
ENDBRANCH   1  25
TORSDOF 8
ENDMDL
MODEL 2
REMARK VINA RESULT:      -8.4      3.176      4.762
REMARK  8 active torsions:
REMARK  status: ('A' for Active; 'I' for Inactive)
REMARK    1  A    between atoms: C_3  and  N_4 
REMARK       I    between atoms: N_4  and  C_5 
REMARK       I    between atoms: C_5  and  N_6 
REMARK       I    between atoms: N_6  and  C_7 
REMARK    2  A    between atoms: C_7  and  C_8 
REMARK    3  A    between atoms: C_8  and  N_9 
REMARK    4  A    between atoms: N_9  and  C_11 
REMARK    5  A    between atoms: N_9  and  C_17 
REMARK    6  A    between atoms: C_11  and  C_12 
REMARK    7  A    between atoms: C_17  and  C_18 
REMARK    8  A    between atoms: C_19  and  O_20 
ROOT
HETATM    1  N   UNL     1      43.745 -16.982   5.614  1.00  0.00    -0.053 N 
HETATM    2  H   UNL     1      44.332 -16.562   4.880  1.00  0.00     0.281 HD
ENDROOT
BRANCH   1   3
HETATM    3  C   UNL     1      43.175 -15.776   6.358  1.00  0.00     0.338 C 
BRANCH   3   4
HETATM    4  C   UNL     1      42.162 -14.984   5.533  1.00  0.00     0.251 C 
HETATM    5  N   UNL     1      42.718 -14.212   4.535  1.00  0.00    -0.278 N 
HETATM    6  C   UNL     1      42.097 -13.689   3.429  1.00  0.00     0.323 C 
HETATM    7  H   UNL     1      43.716 -14.244   4.372  1.00  0.00     0.173 HD
HETATM    8  N   UNL     1      40.739 -13.671   3.446  1.00  0.00    -0.338 N 
HETATM    9  O   UNL     1      42.800 -13.320   2.495  1.00  0.00    -0.247 OA
HETATM   10  H   UNL     1      40.281 -13.917   4.318  1.00  0.00     0.164 HD
HETATM   11  O   UNL     1      40.962 -15.037   5.808  1.00  0.00    -0.271 OA
BRANCH   8  12
HETATM   12  C   UNL     1      39.899 -13.121   2.383  1.00  0.00     0.089 C 
HETATM   13  C   UNL     1      38.839 -12.113   2.890  1.00  0.00     0.004 C 
HETATM   14  C   UNL     1      39.481 -10.942   3.642  1.00  0.00     0.012 C 
HETATM   15  C   UNL     1      37.998 -11.576   1.718  1.00  0.00     0.006 C 
HETATM   16  C   UNL     1      37.372 -12.703   0.901  1.00  0.00     0.001 C 
HETATM   17  C   UNL     1      38.426 -13.681   0.396  1.00  0.00     0.002 C 
HETATM   18  C   UNL     1      39.263 -14.239   1.543  1.00  0.00     0.026 C 
ENDBRANCH   8  12
ENDBRANCH   3   4
ENDBRANCH   1   3
BRANCH   1  19
HETATM   19  C   UNL     1      44.695 -17.839   6.423  1.00  0.00     0.300 C 
BRANCH  19  20
HETATM   20  C   UNL     1      44.415 -19.298   6.383  1.00  0.00     0.078 A 
HETATM   21  O   UNL     1      43.728 -19.817   7.442  1.00  0.00    -0.325 OA
HETATM   22  C   UNL     1      43.597 -21.150   7.220  1.00  0.00     0.142 A 
HETATM   23  C   UNL     1      44.185 -21.495   6.026  1.00  0.00     0.027 A 
HETATM   24  C   UNL     1      44.719 -20.300   5.485  1.00  0.00     0.036 A 
ENDBRANCH  19  20
ENDBRANCH   1  19
BRANCH   1  25
HETATM   25  C   UNL     1      42.670 -17.775   4.913  1.00  0.00     0.277 C 
BRANCH  25  26
HETATM   26  C   UNL     1      42.731 -17.632   3.419  1.00  0.00     0.001 A 
HETATM   27  C   UNL     1      41.614 -17.207   2.690  1.00  0.00     0.073 A 
HETATM   28  C   UNL     1      41.661 -17.080   1.303  1.00  0.00     0.037 A 
HETATM   29  C   UNL     1      42.843 -17.374   0.627  1.00  0.00     0.003 A 
HETATM   30  C   UNL     1      43.970 -17.789   1.336  1.00  0.00     0.001 A 
HETATM   31  C   UNL     1      43.916 -17.914   2.725  1.00  0.00     0.011 A 
BRANCH  27  32
HETATM   32  O   UNL     1      40.465 -16.910   3.368  1.00  0.00    -0.360 OA
HETATM   33  H   UNL     1      40.588 -17.173   4.301  1.00  0.00     0.217 HD
ENDBRANCH  27  32
ENDBRANCH  25  26
ENDBRANCH   1  25
TORSDOF 8
ENDMDL
MODEL 3
REMARK VINA RESULT:      -8.4      2.109      8.226
REMARK  8 active torsions:
REMARK  status: ('A' for Active; 'I' for Inactive)
REMARK    1  A    between atoms: C_3  and  N_4 
REMARK       I    between atoms: N_4  and  C_5 
REMARK       I    between atoms: C_5  and  N_6 
REMARK       I    between atoms: N_6  and  C_7 
REMARK    2  A    between atoms: C_7  and  C_8 
REMARK    3  A    between atoms: C_8  and  N_9 
REMARK    4  A    between atoms: N_9  and  C_11 
REMARK    5  A    between atoms: N_9  and  C_17 
REMARK    6  A    between atoms: C_11  and  C_12 
REMARK    7  A    between atoms: C_17  and  C_18 
REMARK    8  A    between atoms: C_19  and  O_20 
ROOT
HETATM    1  N   UNL     1      41.499 -13.550   2.064  1.00  0.00    -0.053 N 
HETATM    2  H   UNL     1      41.274 -14.500   1.736  1.00  0.00     0.281 HD
ENDROOT
BRANCH   1   3
HETATM    3  C   UNL     1      42.612 -13.772   3.086  1.00  0.00     0.338 C 
BRANCH   3   4
HETATM    4  C   UNL     1      43.097 -15.220   3.142  1.00  0.00     0.251 C 
HETATM    5  N   UNL     1      42.430 -16.011   4.053  1.00  0.00    -0.278 N 
HETATM    6  C   UNL     1      42.369 -17.380   4.096  1.00  0.00     0.323 C 
HETATM    7  H   UNL     1      41.656 -15.626   4.580  1.00  0.00     0.173 HD
HETATM    8  N   UNL     1      43.284 -18.053   3.350  1.00  0.00    -0.338 N 
HETATM    9  O   UNL     1      41.476 -17.896   4.759  1.00  0.00    -0.247 OA
HETATM   10  H   UNL     1      44.028 -17.509   2.924  1.00  0.00     0.164 HD
HETATM   11  O   UNL     1      44.039 -15.585   2.436  1.00  0.00    -0.271 OA
BRANCH   8  12
HETATM   12  C   UNL     1      43.405 -19.509   3.293  1.00  0.00     0.089 C 
HETATM   13  C   UNL     1      44.651 -20.056   4.031  1.00  0.00     0.004 C 
HETATM   14  C   UNL     1      44.672 -19.635   5.505  1.00  0.00     0.012 C 
HETATM   15  C   UNL     1      44.709 -21.590   3.931  1.00  0.00     0.006 C 
HETATM   16  C   UNL     1      44.644 -22.072   2.484  1.00  0.00     0.001 C 
HETATM   17  C   UNL     1      43.406 -21.538   1.773  1.00  0.00     0.002 C 
HETATM   18  C   UNL     1      43.335 -20.016   1.845  1.00  0.00     0.026 C 
ENDBRANCH   8  12
ENDBRANCH   3   4
ENDBRANCH   1   3
BRANCH   1  19
HETATM   19  C   UNL     1      40.201 -13.025   2.639  1.00  0.00     0.300 C 
BRANCH  19  20
HETATM   20  C   UNL     1      38.990 -13.318   1.829  1.00  0.00     0.078 A 
HETATM   21  O   UNL     1      38.254 -12.243   1.421  1.00  0.00    -0.325 OA
HETATM   22  C   UNL     1      37.195 -12.726   0.720  1.00  0.00     0.142 A 
HETATM   23  C   UNL     1      37.244 -14.098   0.668  1.00  0.00     0.027 A 
HETATM   24  C   UNL     1      38.401 -14.484   1.387  1.00  0.00     0.036 A 
ENDBRANCH  19  20
ENDBRANCH   1  19
BRANCH   1  25
HETATM   25  C   UNL     1      41.980 -12.775   0.863  1.00  0.00     0.277 C 
BRANCH  25  26
HETATM   26  C   UNL     1      41.351 -13.248  -0.417  1.00  0.00     0.001 A 
HETATM   27  C   UNL     1      41.456 -14.584  -0.821  1.00  0.00     0.073 A 
HETATM   28  C   UNL     1      40.882 -15.027  -2.010  1.00  0.00     0.037 A 
HETATM   29  C   UNL     1      40.184 -14.128  -2.813  1.00  0.00     0.003 A 
HETATM   30  C   UNL     1      40.058 -12.795  -2.423  1.00  0.00     0.001 A 
HETATM   31  C   UNL     1      40.636 -12.356  -1.230  1.00  0.00     0.011 A 
BRANCH  27  32
HETATM   32  O   UNL     1      42.133 -15.458  -0.018  1.00  0.00    -0.360 OA
HETATM   33  H   UNL     1      43.072 -15.456  -0.292  1.00  0.00     0.217 HD
ENDBRANCH  27  32
ENDBRANCH  25  26
ENDBRANCH   1  25
TORSDOF 8
ENDMDL
MODEL 4
REMARK VINA RESULT:      -8.4      2.219      7.773
REMARK  8 active torsions:
REMARK  status: ('A' for Active; 'I' for Inactive)
REMARK    1  A    between atoms: C_3  and  N_4 
REMARK       I    between atoms: N_4  and  C_5 
REMARK       I    between atoms: C_5  and  N_6 
REMARK       I    between atoms: N_6  and  C_7 
REMARK    2  A    between atoms: C_7  and  C_8 
REMARK    3  A    between atoms: C_8  and  N_9 
REMARK    4  A    between atoms: N_9  and  C_11 
REMARK    5  A    between atoms: N_9  and  C_17 
REMARK    6  A    between atoms: C_11  and  C_12 
REMARK    7  A    between atoms: C_17  and  C_18 
REMARK    8  A    between atoms: C_19  and  O_20 
ROOT
HETATM    1  N   UNL     1      41.120 -14.367   0.085  1.00  0.00    -0.053 N 
HETATM    2  H   UNL     1      42.140 -14.436   0.202  1.00  0.00     0.281 HD
ENDROOT
BRANCH   1   3
HETATM    3  C   UNL     1      40.702 -15.783  -0.306  1.00  0.00     0.338 C 
BRANCH   3   4
HETATM    4  C   UNL     1      41.424 -16.866   0.495  1.00  0.00     0.251 C 
HETATM    5  N   UNL     1      42.800 -16.807   0.424  1.00  0.00    -0.278 N 
HETATM    6  C   UNL     1      43.713 -17.374   1.276  1.00  0.00     0.323 C 
HETATM    7  H   UNL     1      43.244 -16.056  -0.089  1.00  0.00     0.173 HD
HETATM    8  N   UNL     1      43.246 -18.336   2.114  1.00  0.00    -0.338 N 
HETATM    9  O   UNL     1      44.862 -16.948   1.255  1.00  0.00    -0.247 OA
HETATM   10  H   UNL     1      42.297 -18.664   1.965  1.00  0.00     0.164 HD
HETATM   11  O   UNL     1      40.778 -17.722   1.102  1.00  0.00    -0.271 OA
BRANCH   8  12
HETATM   12  C   UNL     1      44.068 -19.084   3.065  1.00  0.00     0.089 C 
HETATM   13  C   UNL     1      43.837 -20.613   3.016  1.00  0.00     0.004 C 
HETATM   14  C   UNL     1      44.093 -21.183   1.616  1.00  0.00     0.012 C 
HETATM   15  C   UNL     1      44.735 -21.330   4.038  1.00  0.00     0.006 C 
HETATM   16  C   UNL     1      44.557 -20.770   5.447  1.00  0.00     0.001 C 
HETATM   17  C   UNL     1      44.801 -19.266   5.486  1.00  0.00     0.002 C 
HETATM   18  C   UNL     1      43.909 -18.531   4.490  1.00  0.00     0.026 C 
ENDBRANCH   8  12
ENDBRANCH   3   4
ENDBRANCH   1   3
BRANCH   1  19
HETATM   19  C   UNL     1      40.925 -13.324  -0.995  1.00  0.00     0.300 C 
BRANCH  19  20
HETATM   20  C   UNL     1      41.822 -12.144  -0.897  1.00  0.00     0.078 A 
HETATM   21  O   UNL     1      41.436 -11.153  -0.041  1.00  0.00    -0.325 OA
HETATM   22  C   UNL     1      42.373 -10.172  -0.116  1.00  0.00     0.142 A 
HETATM   23  C   UNL     1      43.360 -10.521  -1.006  1.00  0.00     0.027 A 
HETATM   24  C   UNL     1      43.005 -11.794  -1.516  1.00  0.00     0.036 A 
ENDBRANCH  19  20
ENDBRANCH   1  19
BRANCH   1  25
HETATM   25  C   UNL     1      40.553 -13.959   1.422  1.00  0.00     0.277 C 
BRANCH  25  26
HETATM   26  C   UNL     1      41.497 -14.241   2.557  1.00  0.00     0.001 A 
HETATM   27  C   UNL     1      41.170 -15.169   3.553  1.00  0.00     0.073 A 
HETATM   28  C   UNL     1      42.036 -15.429   4.612  1.00  0.00     0.037 A 
HETATM   29  C   UNL     1      43.255 -14.759   4.682  1.00  0.00     0.003 A 
HETATM   30  C   UNL     1      43.605 -13.839   3.694  1.00  0.00     0.001 A 
HETATM   31  C   UNL     1      42.732 -13.582   2.635  1.00  0.00     0.011 A 
BRANCH  27  32
HETATM   32  O   UNL     1      39.976 -15.828   3.465  1.00  0.00    -0.360 OA
HETATM   33  H   UNL     1      40.103 -16.611   2.894  1.00  0.00     0.217 HD
ENDBRANCH  27  32
ENDBRANCH  25  26
ENDBRANCH   1  25
TORSDOF 8
ENDMDL
MODEL 5
REMARK VINA RESULT:      -8.3      2.463      8.067
REMARK  8 active torsions:
REMARK  status: ('A' for Active; 'I' for Inactive)
REMARK    1  A    between atoms: C_3  and  N_4 
REMARK       I    between atoms: N_4  and  C_5 
REMARK       I    between atoms: C_5  and  N_6 
REMARK       I    between atoms: N_6  and  C_7 
REMARK    2  A    between atoms: C_7  and  C_8 
REMARK    3  A    between atoms: C_8  and  N_9 
REMARK    4  A    between atoms: N_9  and  C_11 
REMARK    5  A    between atoms: N_9  and  C_17 
REMARK    6  A    between atoms: C_11  and  C_12 
REMARK    7  A    between atoms: C_17  and  C_18 
REMARK    8  A    between atoms: C_19  and  O_20 
ROOT
HETATM    1  N   UNL     1      40.225 -13.553   0.979  1.00  0.00    -0.053 N 
HETATM    2  H   UNL     1      41.226 -13.783   1.044  1.00  0.00     0.281 HD
ENDROOT
BRANCH   1   3
HETATM    3  C   UNL     1      39.528 -14.886   1.244  1.00  0.00     0.338 C 
BRANCH   3   4
HETATM    4  C   UNL     1      40.483 -15.980   1.717  1.00  0.00     0.251 C 
HETATM    5  N   UNL     1      41.818 -15.699   1.517  1.00  0.00    -0.278 N 
HETATM    6  C   UNL     1      42.902 -16.274   2.128  1.00  0.00     0.323 C 
HETATM    7  H   UNL     1      42.090 -14.803   1.131  1.00  0.00     0.173 HD
HETATM    8  N   UNL     1      42.679 -17.441   2.788  1.00  0.00    -0.338 N 
HETATM    9  O   UNL     1      43.974 -15.682   2.078  1.00  0.00    -0.247 OA
HETATM   10  H   UNL     1      41.768 -17.875   2.673  1.00  0.00     0.164 HD
HETATM   11  O   UNL     1      40.039 -17.026   2.193  1.00  0.00    -0.271 OA
BRANCH   8  12
HETATM   12  C   UNL     1      43.710 -18.225   3.468  1.00  0.00     0.089 C 
HETATM   13  C   UNL     1      43.588 -19.749   3.228  1.00  0.00     0.004 C 
HETATM   14  C   UNL     1      43.634 -20.097   1.735  1.00  0.00     0.012 C 
HETATM   15  C   UNL     1      44.704 -20.505   3.969  1.00  0.00     0.006 C 
HETATM   16  C   UNL     1      44.738 -20.161   5.456  1.00  0.00     0.001 C 
HETATM   17  C   UNL     1      44.872 -18.659   5.679  1.00  0.00     0.002 C 
HETATM   18  C   UNL     1      43.765 -17.889   4.966  1.00  0.00     0.026 C 
ENDBRANCH   8  12
ENDBRANCH   3   4
ENDBRANCH   1   3
BRANCH   1  19
HETATM   19  C   UNL     1      40.046 -13.008  -0.422  1.00  0.00     0.300 C 
BRANCH  19  20
HETATM   20  C   UNL     1      40.109 -14.024  -1.505  1.00  0.00     0.078 A 
HETATM   21  O   UNL     1      41.236 -14.793  -1.555  1.00  0.00    -0.325 OA
HETATM   22  C   UNL     1      41.101 -15.632  -2.614  1.00  0.00     0.142 A 
HETATM   23  C   UNL     1      39.898 -15.416  -3.244  1.00  0.00     0.027 A 
HETATM   24  C   UNL     1      39.257 -14.374  -2.531  1.00  0.00     0.036 A 
ENDBRANCH  19  20
ENDBRANCH   1  19
BRANCH   1  25
HETATM   25  C   UNL     1      39.937 -12.539   2.058  1.00  0.00     0.277 C 
BRANCH  25  26
HETATM   26  C   UNL     1      40.677 -12.829   3.333  1.00  0.00     0.001 A 
HETATM   27  C   UNL     1      42.074 -12.923   3.350  1.00  0.00     0.073 A 
HETATM   28  C   UNL     1      42.765 -13.200   4.527  1.00  0.00     0.037 A 
HETATM   29  C   UNL     1      42.058 -13.380   5.713  1.00  0.00     0.003 A 
HETATM   30  C   UNL     1      40.667 -13.280   5.720  1.00  0.00     0.001 A 
HETATM   31  C   UNL     1      39.979 -13.003   4.537  1.00  0.00     0.011 A 
BRANCH  27  32
HETATM   32  O   UNL     1      42.756 -12.732   2.181  1.00  0.00    -0.360 OA
HETATM   33  H   UNL     1      42.909 -11.772   2.074  1.00  0.00     0.217 HD
ENDBRANCH  27  32
ENDBRANCH  25  26
ENDBRANCH   1  25
TORSDOF 8
ENDMDL
MODEL 6
REMARK VINA RESULT:      -8.3      3.341      7.502
REMARK  8 active torsions:
REMARK  status: ('A' for Active; 'I' for Inactive)
REMARK    1  A    between atoms: C_3  and  N_4 
REMARK       I    between atoms: N_4  and  C_5 
REMARK       I    between atoms: C_5  and  N_6 
REMARK       I    between atoms: N_6  and  C_7 
REMARK    2  A    between atoms: C_7  and  C_8 
REMARK    3  A    between atoms: C_8  and  N_9 
REMARK    4  A    between atoms: N_9  and  C_11 
REMARK    5  A    between atoms: N_9  and  C_17 
REMARK    6  A    between atoms: C_11  and  C_12 
REMARK    7  A    between atoms: C_17  and  C_18 
REMARK    8  A    between atoms: C_19  and  O_20 
ROOT
HETATM    1  N   UNL     1      40.639 -12.737   2.829  1.00  0.00    -0.053 N 
HETATM    2  H   UNL     1      40.462 -13.504   3.492  1.00  0.00     0.281 HD
ENDROOT
BRANCH   1   3
HETATM    3  C   UNL     1      42.142 -12.495   2.947  1.00  0.00     0.338 C 
BRANCH   3   4
HETATM    4  C   UNL     1      42.859 -13.556   3.780  1.00  0.00     0.251 C 
HETATM    5  N   UNL     1      42.053 -14.211   4.687  1.00  0.00    -0.278 N 
HETATM    6  C   UNL     1      42.281 -15.414   5.304  1.00  0.00     0.323 C 
HETATM    7  H   UNL     1      41.063 -14.001   4.722  1.00  0.00     0.173 HD
HETATM    8  N   UNL     1      43.552 -15.891   5.255  1.00  0.00    -0.338 N 
HETATM    9  O   UNL     1      41.326 -15.991   5.811  1.00  0.00    -0.247 OA
HETATM   10  H   UNL     1      44.268 -15.271   4.889  1.00  0.00     0.164 HD
HETATM   11  O   UNL     1      44.069 -13.742   3.638  1.00  0.00    -0.271 OA
BRANCH   8  12
HETATM   12  C   UNL     1      44.003 -17.132   5.883  1.00  0.00     0.089 C 
HETATM   13  C   UNL     1      43.467 -18.408   5.188  1.00  0.00     0.004 C 
HETATM   14  C   UNL     1      43.857 -18.456   3.706  1.00  0.00     0.012 C 
HETATM   15  C   UNL     1      43.984 -19.670   5.900  1.00  0.00     0.006 C 
HETATM   16  C   UNL     1      43.666 -19.655   7.393  1.00  0.00     0.001 C 
HETATM   17  C   UNL     1      44.211 -18.401   8.068  1.00  0.00     0.002 C 
HETATM   18  C   UNL     1      43.698 -17.135   7.389  1.00  0.00     0.026 C 
ENDBRANCH   8  12
ENDBRANCH   3   4
ENDBRANCH   1   3
BRANCH   1  19
HETATM   19  C   UNL     1      39.770 -11.598   3.318  1.00  0.00     0.300 C 
BRANCH  19  20
HETATM   20  C   UNL     1      39.652 -11.486   4.795  1.00  0.00     0.078 A 
HETATM   21  O   UNL     1      39.575 -12.658   5.492  1.00  0.00    -0.325 OA
HETATM   22  C   UNL     1      39.455 -12.335   6.805  1.00  0.00     0.142 A 
HETATM   23  C   UNL     1      39.460 -10.969   6.964  1.00  0.00     0.027 A 
HETATM   24  C   UNL     1      39.584 -10.418   5.665  1.00  0.00     0.036 A 
ENDBRANCH  19  20
ENDBRANCH   1  19
BRANCH   1  25
HETATM   25  C   UNL     1      40.253 -13.242   1.461  1.00  0.00     0.277 C 
BRANCH  25  26
HETATM   26  C   UNL     1      40.549 -14.704   1.283  1.00  0.00     0.001 A 
HETATM   27  C   UNL     1      40.138 -15.644   2.235  1.00  0.00     0.073 A 
HETATM   28  C   UNL     1      40.416 -17.000   2.079  1.00  0.00     0.037 A 
HETATM   29  C   UNL     1      41.110 -17.434   0.952  1.00  0.00     0.003 A 
HETATM   30  C   UNL     1      41.518 -16.515  -0.014  1.00  0.00     0.001 A 
HETATM   31  C   UNL     1      41.237 -15.157   0.147  1.00  0.00     0.011 A 
BRANCH  27  32
HETATM   32  O   UNL     1      39.448 -15.206   3.330  1.00  0.00    -0.360 OA
HETATM   33  H   UNL     1      38.492 -15.281   3.135  1.00  0.00     0.217 HD
ENDBRANCH  27  32
ENDBRANCH  25  26
ENDBRANCH   1  25
TORSDOF 8
ENDMDL
MODEL 7
REMARK VINA RESULT:      -8.2      2.449      7.456
REMARK  8 active torsions:
REMARK  status: ('A' for Active; 'I' for Inactive)
REMARK    1  A    between atoms: C_3  and  N_4 
REMARK       I    between atoms: N_4  and  C_5 
REMARK       I    between atoms: C_5  and  N_6 
REMARK       I    between atoms: N_6  and  C_7 
REMARK    2  A    between atoms: C_7  and  C_8 
REMARK    3  A    between atoms: C_8  and  N_9 
REMARK    4  A    between atoms: N_9  and  C_11 
REMARK    5  A    between atoms: N_9  and  C_17 
REMARK    6  A    between atoms: C_11  and  C_12 
REMARK    7  A    between atoms: C_17  and  C_18 
REMARK    8  A    between atoms: C_19  and  O_20 
ROOT
HETATM    1  N   UNL     1      40.574 -12.562   1.376  1.00  0.00    -0.053 N 
HETATM    2  H   UNL     1      40.210 -13.524   1.439  1.00  0.00     0.281 HD
ENDROOT
BRANCH   1   3
HETATM    3  C   UNL     1      42.076 -12.727   1.600  1.00  0.00     0.338 C 
BRANCH   3   4
HETATM    4  C   UNL     1      42.448 -14.076   2.214  1.00  0.00     0.251 C 
HETATM    5  N   UNL     1      41.456 -15.030   2.141  1.00  0.00    -0.278 N 
HETATM    6  C   UNL     1      41.583 -16.390   2.260  1.00  0.00     0.323 C 
HETATM    7  H   UNL     1      40.589 -14.818   1.662  1.00  0.00     0.173 HD
HETATM    8  N   UNL     1      42.747 -16.847   2.792  1.00  0.00    -0.338 N 
HETATM    9  O   UNL     1      40.670 -17.093   1.842  1.00  0.00    -0.247 OA
HETATM   10  H   UNL     1      43.381 -16.159   3.187  1.00  0.00     0.164 HD
HETATM   11  O   UNL     1      43.545 -14.229   2.755  1.00  0.00    -0.271 OA
BRANCH   8  12
HETATM   12  C   UNL     1      43.056 -18.256   3.036  1.00  0.00     0.089 C 
HETATM   13  C   UNL     1      44.137 -18.474   4.123  1.00  0.00     0.004 C 
HETATM   14  C   UNL     1      43.739 -17.836   5.459  1.00  0.00     0.012 C 
HETATM   15  C   UNL     1      44.406 -19.975   4.325  1.00  0.00     0.006 C 
HETATM   16  C   UNL     1      44.762 -20.673   3.015  1.00  0.00     0.001 C 
HETATM   17  C   UNL     1      43.683 -20.464   1.959  1.00  0.00     0.002 C 
HETATM   18  C   UNL     1      43.411 -18.981   1.729  1.00  0.00     0.026 C 
ENDBRANCH   8  12
ENDBRANCH   3   4
ENDBRANCH   1   3
BRANCH   1  19
HETATM   19  C   UNL     1      39.847 -11.804   2.466  1.00  0.00     0.300 C 
BRANCH  19  20
HETATM   20  C   UNL     1      39.974 -12.383   3.828  1.00  0.00     0.078 A 
HETATM   21  O   UNL     1      39.522 -13.661   3.992  1.00  0.00    -0.325 OA
HETATM   22  C   UNL     1      39.711 -13.988   5.297  1.00  0.00     0.142 A 
HETATM   23  C   UNL     1      40.285 -12.938   5.973  1.00  0.00     0.027 A 
HETATM   24  C   UNL     1      40.453 -11.898   5.027  1.00  0.00     0.036 A 
ENDBRANCH  19  20
ENDBRANCH   1  19
BRANCH   1  25
HETATM   25  C   UNL     1      40.260 -12.066  -0.013  1.00  0.00     0.277 C 
BRANCH  25  26
HETATM   26  C   UNL     1      40.657 -13.047  -1.079  1.00  0.00     0.001 A 
HETATM   27  C   UNL     1      40.227 -14.378  -1.029  1.00  0.00     0.073 A 
HETATM   28  C   UNL     1      40.597 -15.295  -2.010  1.00  0.00     0.037 A 
HETATM   29  C   UNL     1      41.406 -14.882  -3.066  1.00  0.00     0.003 A 
HETATM   30  C   UNL     1      41.836 -13.558  -3.141  1.00  0.00     0.001 A 
HETATM   31  C   UNL     1      41.462 -12.643  -2.154  1.00  0.00     0.011 A 
BRANCH  27  32
HETATM   32  O   UNL     1      39.424 -14.767   0.006  1.00  0.00    -0.360 OA
HETATM   33  H   UNL     1      39.068 -15.654  -0.203  1.00  0.00     0.217 HD
ENDBRANCH  27  32
ENDBRANCH  25  26
ENDBRANCH   1  25
TORSDOF 8
ENDMDL
MODEL 8
REMARK VINA RESULT:      -8.2      3.449      5.984
REMARK  8 active torsions:
REMARK  status: ('A' for Active; 'I' for Inactive)
REMARK    1  A    between atoms: C_3  and  N_4 
REMARK       I    between atoms: N_4  and  C_5 
REMARK       I    between atoms: C_5  and  N_6 
REMARK       I    between atoms: N_6  and  C_7 
REMARK    2  A    between atoms: C_7  and  C_8 
REMARK    3  A    between atoms: C_8  and  N_9 
REMARK    4  A    between atoms: N_9  and  C_11 
REMARK    5  A    between atoms: N_9  and  C_17 
REMARK    6  A    between atoms: C_11  and  C_12 
REMARK    7  A    between atoms: C_17  and  C_18 
REMARK    8  A    between atoms: C_19  and  O_20 
ROOT
HETATM    1  N   UNL     1      44.193 -18.254   5.030  1.00  0.00    -0.053 N 
HETATM    2  H   UNL     1      44.652 -17.616   4.365  1.00  0.00     0.281 HD
ENDROOT
BRANCH   1   3
HETATM    3  C   UNL     1      44.072 -17.423   6.306  1.00  0.00     0.338 C 
BRANCH   3   4
HETATM    4  C   UNL     1      43.187 -16.189   6.138  1.00  0.00     0.251 C 
HETATM    5  N   UNL     1      43.760 -15.171   5.406  1.00  0.00    -0.278 N 
HETATM    6  C   UNL     1      43.133 -14.122   4.785  1.00  0.00     0.323 C 
HETATM    7  H   UNL     1      44.675 -15.303   4.992  1.00  0.00     0.173 HD
HETATM    8  N   UNL     1      41.849 -13.876   5.156  1.00  0.00    -0.338 N 
HETATM    9  O   UNL     1      43.748 -13.514   3.917  1.00  0.00    -0.247 OA
HETATM   10  H   UNL     1      41.488 -14.390   5.954  1.00  0.00     0.164 HD
HETATM   11  O   UNL     1      42.077 -16.145   6.671  1.00  0.00    -0.271 OA
BRANCH   8  12
HETATM   12  C   UNL     1      41.026 -12.783   4.640  1.00  0.00     0.089 C 
HETATM   13  C   UNL     1      40.376 -11.919   5.749  1.00  0.00     0.004 C 
HETATM   14  C   UNL     1      41.424 -11.320   6.693  1.00  0.00     0.012 C 
HETATM   15  C   UNL     1      39.531 -10.792   5.131  1.00  0.00     0.006 C 
HETATM   16  C   UNL     1      38.498 -11.327   4.143  1.00  0.00     0.001 C 
HETATM   17  C   UNL     1      39.152 -12.162   3.048  1.00  0.00     0.002 C 
HETATM   18  C   UNL     1      39.983 -13.298   3.637  1.00  0.00     0.026 C 
ENDBRANCH   8  12
ENDBRANCH   3   4
ENDBRANCH   1   3
BRANCH   1  19
HETATM   19  C   UNL     1      45.125 -19.442   5.129  1.00  0.00     0.300 C 
BRANCH  19  20
HETATM   20  C   UNL     1      44.878 -20.520   4.138  1.00  0.00     0.078 A 
HETATM   21  O   UNL     1      44.626 -21.765   4.639  1.00  0.00    -0.325 OA
HETATM   22  C   UNL     1      44.449 -22.595   3.579  1.00  0.00     0.142 A 
HETATM   23  C   UNL     1      44.577 -21.899   2.401  1.00  0.00     0.027 A 
HETATM   24  C   UNL     1      44.859 -20.558   2.759  1.00  0.00     0.036 A 
ENDBRANCH  19  20
ENDBRANCH   1  19
BRANCH   1  25
HETATM   25  C   UNL     1      42.844 -18.596   4.447  1.00  0.00     0.277 C 
BRANCH  25  26
HETATM   26  C   UNL     1      42.547 -17.825   3.193  1.00  0.00     0.001 A 
HETATM   27  C   UNL     1      41.425 -16.991   3.108  1.00  0.00     0.073 A 
HETATM   28  C   UNL     1      41.139 -16.279   1.945  1.00  0.00     0.037 A 
HETATM   29  C   UNL     1      41.987 -16.392   0.846  1.00  0.00     0.003 A 
HETATM   30  C   UNL     1      43.115 -17.208   0.913  1.00  0.00     0.001 A 
HETATM   31  C   UNL     1      43.397 -17.919   2.081  1.00  0.00     0.011 A 
BRANCH  27  32
HETATM   32  O   UNL     1      40.609 -16.881   4.199  1.00  0.00    -0.360 OA
HETATM   33  H   UNL     1      40.156 -17.738   4.325  1.00  0.00     0.217 HD
ENDBRANCH  27  32
ENDBRANCH  25  26
ENDBRANCH   1  25
TORSDOF 8
ENDMDL
MODEL 9
REMARK VINA RESULT:      -8.1      4.576      8.478
REMARK  8 active torsions:
REMARK  status: ('A' for Active; 'I' for Inactive)
REMARK    1  A    between atoms: C_3  and  N_4 
REMARK       I    between atoms: N_4  and  C_5 
REMARK       I    between atoms: C_5  and  N_6 
REMARK       I    between atoms: N_6  and  C_7 
REMARK    2  A    between atoms: C_7  and  C_8 
REMARK    3  A    between atoms: C_8  and  N_9 
REMARK    4  A    between atoms: N_9  and  C_11 
REMARK    5  A    between atoms: N_9  and  C_17 
REMARK    6  A    between atoms: C_11  and  C_12 
REMARK    7  A    between atoms: C_17  and  C_18 
REMARK    8  A    between atoms: C_19  and  O_20 
ROOT
HETATM    1  N   UNL     1      41.996 -15.113   4.906  1.00  0.00    -0.053 N 
HETATM    2  H   UNL     1      41.807 -15.257   5.908  1.00  0.00     0.281 HD
ENDROOT
BRANCH   1   3
HETATM    3  C   UNL     1      42.037 -13.594   4.758  1.00  0.00     0.338 C 
BRANCH   3   4
HETATM    4  C   UNL     1      42.502 -12.879   6.026  1.00  0.00     0.251 C 
HETATM    5  N   UNL     1      41.880 -11.671   6.261  1.00  0.00    -0.278 N 
HETATM    6  C   UNL     1      41.800 -10.979   7.442  1.00  0.00     0.323 C 
HETATM    7  H   UNL     1      41.146 -11.354   5.640  1.00  0.00     0.173 HD
HETATM    8  N   UNL     1      42.657 -11.357   8.427  1.00  0.00    -0.338 N 
HETATM    9  O   UNL     1      40.942 -10.110   7.544  1.00  0.00    -0.247 OA
HETATM   10  H   UNL     1      43.381 -12.025   8.183  1.00  0.00     0.164 HD
HETATM   11  O   UNL     1      43.393 -13.369   6.722  1.00  0.00    -0.271 OA
BRANCH   8  12
HETATM   12  C   UNL     1      42.752 -10.720   9.740  1.00  0.00     0.089 C 
HETATM   13  C   UNL     1      44.018 -11.122  10.534  1.00  0.00     0.004 C 
HETATM   14  C   UNL     1      45.302 -10.805   9.758  1.00  0.00     0.012 C 
HETATM   15  C   UNL     1      44.050 -10.412  11.898  1.00  0.00     0.006 C 
HETATM   16  C   UNL     1      42.773 -10.654  12.698  1.00  0.00     0.001 C 
HETATM   17  C   UNL     1      41.534 -10.241  11.912  1.00  0.00     0.002 C 
HETATM   18  C   UNL     1      41.472 -10.945  10.560  1.00  0.00     0.026 C 
ENDBRANCH   8  12
ENDBRANCH   3   4
ENDBRANCH   1   3
BRANCH   1  19
HETATM   19  C   UNL     1      40.843 -15.791   4.197  1.00  0.00     0.300 C 
BRANCH  19  20
HETATM   20  C   UNL     1      41.087 -16.118   2.768  1.00  0.00     0.078 A 
HETATM   21  O   UNL     1      41.184 -15.062   1.908  1.00  0.00    -0.325 OA
HETATM   22  C   UNL     1      41.387 -15.574   0.667  1.00  0.00     0.142 A 
HETATM   23  C   UNL     1      41.427 -16.947   0.717  1.00  0.00     0.027 A 
HETATM   24  C   UNL     1      41.230 -17.301   2.074  1.00  0.00     0.036 A 
ENDBRANCH  19  20
ENDBRANCH   1  19
BRANCH   1  25
HETATM   25  C   UNL     1      43.334 -15.747   4.617  1.00  0.00     0.277 C 
BRANCH  25  26
HETATM   26  C   UNL     1      43.505 -17.071   5.305  1.00  0.00     0.001 A 
HETATM   27  C   UNL     1      43.312 -17.195   6.686  1.00  0.00     0.073 A 
HETATM   28  C   UNL     1      43.477 -18.418   7.333  1.00  0.00     0.037 A 
HETATM   29  C   UNL     1      43.834 -19.543   6.593  1.00  0.00     0.003 A 
HETATM   30  C   UNL     1      44.021 -19.442   5.215  1.00  0.00     0.001 A 
HETATM   31  C   UNL     1      43.854 -18.214   4.572  1.00  0.00     0.011 A 
BRANCH  27  32
HETATM   32  O   UNL     1      42.949 -16.086   7.398  1.00  0.00    -0.360 OA
HETATM   33  H   UNL     1      42.593 -15.426   6.770  1.00  0.00     0.217 HD
ENDBRANCH  27  32
ENDBRANCH  25  26
ENDBRANCH   1  25
TORSDOF 8
ENDMDL
MODEL 10
REMARK VINA RESULT:      -8.1      1.774      2.445
REMARK  8 active torsions:
REMARK  status: ('A' for Active; 'I' for Inactive)
REMARK    1  A    between atoms: C_3  and  N_4 
REMARK       I    between atoms: N_4  and  C_5 
REMARK       I    between atoms: C_5  and  N_6 
REMARK       I    between atoms: N_6  and  C_7 
REMARK    2  A    between atoms: C_7  and  C_8 
REMARK    3  A    between atoms: C_8  and  N_9 
REMARK    4  A    between atoms: N_9  and  C_11 
REMARK    5  A    between atoms: N_9  and  C_17 
REMARK    6  A    between atoms: C_11  and  C_12 
REMARK    7  A    between atoms: C_17  and  C_18 
REMARK    8  A    between atoms: C_19  and  O_20 
ROOT
HETATM    1  N   UNL     1      42.481 -17.408   2.932  1.00  0.00    -0.053 N 
HETATM    2  H   UNL     1      42.491 -16.378   2.958  1.00  0.00     0.281 HD
ENDROOT
BRANCH   1   3
HETATM    3  C   UNL     1      41.675 -17.732   1.676  1.00  0.00     0.338 C 
BRANCH   3   4
HETATM    4  C   UNL     1      41.089 -16.492   1.000  1.00  0.00     0.251 C 
HETATM    5  N   UNL     1      41.552 -16.268  -0.280  1.00  0.00    -0.278 N 
HETATM    6  C   UNL     1      40.984 -15.491  -1.257  1.00  0.00     0.323 C 
HETATM    7  H   UNL     1      42.187 -16.930  -0.708  1.00  0.00     0.173 HD
HETATM    8  N   UNL     1      40.026 -14.615  -0.857  1.00  0.00    -0.338 N 
HETATM    9  O   UNL     1      41.342 -15.671  -2.416  1.00  0.00    -0.247 OA
HETATM   10  H   UNL     1      39.890 -14.497   0.142  1.00  0.00     0.164 HD
HETATM   11  O   UNL     1      40.304 -15.766   1.611  1.00  0.00    -0.271 OA
BRANCH   8  12
HETATM   12  C   UNL     1      39.333 -13.677  -1.739  1.00  0.00     0.089 C 
HETATM   13  C   UNL     1      38.937 -12.351  -1.046  1.00  0.00     0.004 C 
HETATM   14  C   UNL     1      40.154 -11.633  -0.452  1.00  0.00     0.012 C 
HETATM   15  C   UNL     1      38.217 -11.417  -2.034  1.00  0.00     0.006 C 
HETATM   16  C   UNL     1      37.021 -12.096  -2.695  1.00  0.00     0.001 C 
HETATM   17  C   UNL     1      37.426 -13.393  -3.386  1.00  0.00     0.002 C 
HETATM   18  C   UNL     1      38.128 -14.343  -2.421  1.00  0.00     0.026 C 
ENDBRANCH   8  12
ENDBRANCH   3   4
ENDBRANCH   1   3
BRANCH   1  19
HETATM   19  C   UNL     1      41.825 -17.818   4.233  1.00  0.00     0.300 C 
BRANCH  19  20
HETATM   20  C   UNL     1      42.454 -17.260   5.458  1.00  0.00     0.078 A 
HETATM   21  O   UNL     1      42.652 -18.128   6.493  1.00  0.00    -0.325 OA
HETATM   22  C   UNL     1      43.213 -17.420   7.507  1.00  0.00     0.142 A 
HETATM   23  C   UNL     1      43.384 -16.108   7.136  1.00  0.00     0.027 A 
HETATM   24  C   UNL     1      42.891 -16.000   5.813  1.00  0.00     0.036 A 
ENDBRANCH  19  20
ENDBRANCH   1  19
BRANCH   1  25
HETATM   25  C   UNL     1      43.915 -17.857   2.815  1.00  0.00     0.277 C 
BRANCH  25  26
HETATM   26  C   UNL     1      44.057 -19.352   2.869  1.00  0.00     0.001 A 
HETATM   27  C   UNL     1      44.630 -19.982   3.980  1.00  0.00     0.073 A 
HETATM   28  C   UNL     1      44.772 -21.367   4.033  1.00  0.00     0.037 A 
HETATM   29  C   UNL     1      44.329 -22.143   2.964  1.00  0.00     0.003 A 
HETATM   30  C   UNL     1      43.745 -21.536   1.853  1.00  0.00     0.001 A 
HETATM   31  C   UNL     1      43.606 -20.148   1.806  1.00  0.00     0.011 A 
BRANCH  27  32
HETATM   32  O   UNL     1      45.049 -19.208   5.025  1.00  0.00    -0.360 OA
HETATM   33  H   UNL     1      44.710 -19.606   5.852  1.00  0.00     0.217 HD
ENDBRANCH  27  32
ENDBRANCH  25  26
ENDBRANCH   1  25
TORSDOF 8
ENDMDL
