MODEL 1
REMARK VINA RESULT:      -9.1      0.000      0.000
REMARK  6 active torsions:
REMARK  status: ('A' for Active; 'I' for Inactive)
REMARK    1  A    between atoms: C_2  and  S_3 
REMARK    2  A    between atoms: S_3  and  C_4 
REMARK    3  A    between atoms: C_5  and  C_6 
REMARK       I    between atoms: C_6  and  N_7 
REMARK    4  A    between atoms: N_7  and  C_8 
REMARK    5  A    between atoms: N_9  and  C_10 
REMARK    6  A    between atoms: C_22  and  C_23 
ROOT
HETATM    1  C   UNL     1      43.300 -14.673   5.847  1.00  0.00     0.152 A 
HETATM    2  N   UNL     1      43.900 -15.671   6.602  1.00  0.00    -0.044 N 
HETATM    3  N   UNL     1      44.491 -15.186   7.738  1.00  0.00    -0.148 NA
HETATM    4  C   UNL     1      44.270 -13.866   7.676  1.00  0.00     0.115 A 
HETATM    5  C   UNL     1      43.511 -13.505   6.545  1.00  0.00     0.087 A 
ENDROOT
BRANCH   1   6
HETATM    6  N   UNL     1      42.687 -14.923   4.626  1.00  0.00    -0.307 N 
HETATM    7  C   UNL     1      43.195 -14.468   3.427  1.00  0.00     0.258 C 
HETATM    8  O   UNL     1      44.132 -13.693   3.268  1.00  0.00    -0.267 OA
HETATM    9  H   UNL     1      41.871 -15.541   4.626  1.00  0.00     0.170 HD
BRANCH   7  10
HETATM   10  C   UNL     1      42.591 -15.090   2.225  1.00  0.00     0.049 A 
HETATM   11  C   UNL     1      41.565 -14.505   1.469  1.00  0.00     0.016 A 
HETATM   12  C   UNL     1      41.043 -15.220   0.380  1.00  0.00     0.019 A 
HETATM   13  C   UNL     1      41.548 -16.478   0.037  1.00  0.00     0.001 A 
HETATM   14  C   UNL     1      42.585 -17.038   0.776  1.00  0.00     0.001 A 
HETATM   15  C   UNL     1      43.108 -16.346   1.866  1.00  0.00     0.018 A 
BRANCH  11  16
HETATM   16  S   UNL     1      40.904 -12.870   1.760  1.00  0.00    -0.129 SA
BRANCH  16  17
HETATM   17  C   UNL     1      39.644 -13.310   3.005  1.00  0.00     0.075 C 
HETATM   18  C   UNL     1      39.929 -12.598   4.314  1.00  0.00     0.016 C 
ENDBRANCH  16  17
ENDBRANCH  11  16
ENDBRANCH   7  10
ENDBRANCH   1   6
BRANCH   2  19
HETATM   19  C   UNL     1      44.004 -17.046   6.310  1.00  0.00     0.732 A 
HETATM   20  N   UNL     1      44.160 -17.513   5.111  1.00  0.00    -0.067 NA
HETATM   21  C   UNL     1      44.258 -18.885   5.005  1.00  0.00     0.065 A 
HETATM   22  C   UNL     1      44.205 -19.733   6.050  1.00  0.00     0.036 A 
HETATM   23  C   UNL     1      44.459 -19.402   3.598  1.00  0.00     0.060 C 
HETATM   24  C   UNL     1      44.303 -21.227   5.942  1.00  0.00     0.046 C 
HETATM   25  C   UNL     1      44.034 -19.159   7.407  1.00  0.00     0.268 A 
HETATM   26  C   UNL     1      44.173 -21.732   4.504  1.00  0.00     0.005 C 
HETATM   27  C   UNL     1      44.954 -20.849   3.540  1.00  0.00     0.006 C 
HETATM   28  O   UNL     1      43.996 -19.852   8.415  1.00  0.00    -0.267 OA
HETATM   29  N   UNL     1      43.931 -17.805   7.443  1.00  0.00    -0.152 N 
HETATM   30  H   UNL     1      43.821 -17.344   8.341  1.00  0.00     0.188 HD
ENDBRANCH   2  19
BRANCH   4  31
HETATM   31  C   UNL     1      44.808 -12.907   8.684  1.00  0.00     0.105 A 
HETATM   32  O   UNL     1      44.417 -12.863   9.995  1.00  0.00    -0.320 OA
HETATM   33  C   UNL     1      45.097 -11.848  10.586  1.00  0.00     0.142 A 
HETATM   34  C   UNL     1      45.928 -11.233   9.680  1.00  0.00     0.027 A 
HETATM   35  C   UNL     1      45.745 -11.918   8.454  1.00  0.00     0.041 A 
ENDBRANCH   4  31
TORSDOF 6
ENDMDL
MODEL 2
REMARK VINA RESULT:      -8.6      2.419      5.912
REMARK  6 active torsions:
REMARK  status: ('A' for Active; 'I' for Inactive)
REMARK    1  A    between atoms: C_2  and  S_3 
REMARK    2  A    between atoms: S_3  and  C_4 
REMARK    3  A    between atoms: C_5  and  C_6 
REMARK       I    between atoms: C_6  and  N_7 
REMARK    4  A    between atoms: N_7  and  C_8 
REMARK    5  A    between atoms: N_9  and  C_10 
REMARK    6  A    between atoms: C_22  and  C_23 
ROOT
HETATM    1  C   UNL     1      43.900 -14.582   6.139  1.00  0.00     0.152 A 
HETATM    2  N   UNL     1      43.042 -13.497   6.024  1.00  0.00    -0.044 N 
HETATM    3  N   UNL     1      43.208 -12.587   7.034  1.00  0.00    -0.148 NA
HETATM    4  C   UNL     1      44.168 -13.126   7.796  1.00  0.00     0.115 A 
HETATM    5  C   UNL     1      44.650 -14.340   7.268  1.00  0.00     0.087 A 
ENDROOT
BRANCH   1   6
HETATM    6  N   UNL     1      43.873 -15.655   5.258  1.00  0.00    -0.307 N 
HETATM    7  C   UNL     1      42.943 -16.670   5.344  1.00  0.00     0.258 C 
HETATM    8  O   UNL     1      42.131 -16.853   6.245  1.00  0.00    -0.267 OA
HETATM    9  H   UNL     1      44.525 -15.635   4.470  1.00  0.00     0.170 HD
BRANCH   7  10
HETATM   10  C   UNL     1      42.872 -17.545   4.151  1.00  0.00     0.049 A 
HETATM   11  C   UNL     1      43.606 -18.731   4.002  1.00  0.00     0.016 A 
HETATM   12  C   UNL     1      43.489 -19.446   2.800  1.00  0.00     0.019 A 
HETATM   13  C   UNL     1      42.642 -19.003   1.780  1.00  0.00     0.001 A 
HETATM   14  C   UNL     1      41.896 -17.841   1.948  1.00  0.00     0.001 A 
HETATM   15  C   UNL     1      42.008 -17.114   3.131  1.00  0.00     0.018 A 
BRANCH  11  16
HETATM   16  S   UNL     1      44.650 -19.437   5.270  1.00  0.00    -0.129 SA
BRANCH  16  17
HETATM   17  C   UNL     1      45.198 -20.924   4.365  1.00  0.00     0.075 C 
HETATM   18  C   UNL     1      44.768 -22.177   5.107  1.00  0.00     0.016 C 
ENDBRANCH  16  17
ENDBRANCH  11  16
ENDBRANCH   7  10
ENDBRANCH   1   6
BRANCH   2  19
HETATM   19  C   UNL     1      42.039 -13.273   5.059  1.00  0.00     0.732 A 
HETATM   20  N   UNL     1      42.185 -13.540   3.800  1.00  0.00    -0.067 NA
HETATM   21  C   UNL     1      41.098 -13.273   2.995  1.00  0.00     0.065 A 
HETATM   22  C   UNL     1      39.930 -12.770   3.438  1.00  0.00     0.036 A 
HETATM   23  C   UNL     1      41.289 -13.611   1.533  1.00  0.00     0.060 C 
HETATM   24  C   UNL     1      38.744 -12.470   2.568  1.00  0.00     0.046 C 
HETATM   25  C   UNL     1      39.799 -12.486   4.889  1.00  0.00     0.268 A 
HETATM   26  C   UNL     1      39.074 -12.507   1.075  1.00  0.00     0.005 C 
HETATM   27  C   UNL     1      39.980 -13.686   0.744  1.00  0.00     0.006 C 
HETATM   28  O   UNL     1      38.768 -12.047   5.383  1.00  0.00    -0.267 OA
HETATM   29  N   UNL     1      40.907 -12.758   5.625  1.00  0.00    -0.152 N 
HETATM   30  H   UNL     1      40.885 -12.595   6.627  1.00  0.00     0.188 HD
ENDBRANCH   2  19
BRANCH   4  31
HETATM   31  C   UNL     1      44.630 -12.507   9.073  1.00  0.00     0.105 A 
HETATM   32  O   UNL     1      44.302 -12.968  10.319  1.00  0.00    -0.320 OA
HETATM   33  C   UNL     1      44.878 -12.136  11.224  1.00  0.00     0.142 A 
HETATM   34  C   UNL     1      45.579 -11.141  10.584  1.00  0.00     0.027 A 
HETATM   35  C   UNL     1      45.423 -11.382   9.196  1.00  0.00     0.041 A 
ENDBRANCH   4  31
TORSDOF 6
ENDMDL
MODEL 3
REMARK VINA RESULT:      -8.4      2.958      6.539
REMARK  6 active torsions:
REMARK  status: ('A' for Active; 'I' for Inactive)
REMARK    1  A    between atoms: C_2  and  S_3 
REMARK    2  A    between atoms: S_3  and  C_4 
REMARK    3  A    between atoms: C_5  and  C_6 
REMARK       I    between atoms: C_6  and  N_7 
REMARK    4  A    between atoms: N_7  and  C_8 
REMARK    5  A    between atoms: N_9  and  C_10 
REMARK    6  A    between atoms: C_22  and  C_23 
ROOT
HETATM    1  C   UNL     1      42.782 -14.096   4.671  1.00  0.00     0.152 A 
HETATM    2  N   UNL     1      42.245 -13.154   3.803  1.00  0.00    -0.044 N 
HETATM    3  N   UNL     1      41.805 -12.033   4.454  1.00  0.00    -0.148 NA
HETATM    4  C   UNL     1      42.054 -12.291   5.743  1.00  0.00     0.115 A 
HETATM    5  C   UNL     1      42.687 -13.537   5.925  1.00  0.00     0.087 A 
ENDROOT
BRANCH   1   6
HETATM    6  N   UNL     1      43.242 -15.334   4.241  1.00  0.00    -0.307 N 
HETATM    7  C   UNL     1      42.644 -16.522   4.608  1.00  0.00     0.258 C 
HETATM    8  O   UNL     1      41.754 -16.675   5.438  1.00  0.00    -0.267 OA
HETATM    9  H   UNL     1      44.005 -15.343   3.561  1.00  0.00     0.170 HD
BRANCH   7  10
HETATM   10  C   UNL     1      43.069 -17.698   3.814  1.00  0.00     0.049 A 
HETATM   11  C   UNL     1      44.052 -18.609   4.224  1.00  0.00     0.016 A 
HETATM   12  C   UNL     1      44.402 -19.656   3.357  1.00  0.00     0.019 A 
HETATM   13  C   UNL     1      43.769 -19.805   2.119  1.00  0.00     0.001 A 
HETATM   14  C   UNL     1      42.775 -18.912   1.732  1.00  0.00     0.001 A 
HETATM   15  C   UNL     1      42.423 -17.862   2.578  1.00  0.00     0.018 A 
BRANCH  11  16
HETATM   16  S   UNL     1      44.864 -18.569   5.817  1.00  0.00    -0.129 SA
BRANCH  16  17
HETATM   17  C   UNL     1      43.576 -19.417   6.793  1.00  0.00     0.075 C 
HETATM   18  C   UNL     1      43.814 -20.916   6.783  1.00  0.00     0.016 C 
ENDBRANCH  16  17
ENDBRANCH  11  16
ENDBRANCH   7  10
ENDBRANCH   1   6
BRANCH   2  19
HETATM   19  C   UNL     1      42.068 -13.251   2.408  1.00  0.00     0.732 A 
HETATM   20  N   UNL     1      41.839 -14.367   1.791  1.00  0.00    -0.067 NA
HETATM   21  C   UNL     1      41.676 -14.281   0.425  1.00  0.00     0.065 A 
HETATM   22  C   UNL     1      41.739 -13.132  -0.277  1.00  0.00     0.036 A 
HETATM   23  C   UNL     1      41.392 -15.595  -0.268  1.00  0.00     0.060 C 
HETATM   24  C   UNL     1      41.570 -13.030  -1.765  1.00  0.00     0.046 C 
HETATM   25  C   UNL     1      41.994 -11.874   0.467  1.00  0.00     0.268 A 
HETATM   26  C   UNL     1      41.615 -14.389  -2.465  1.00  0.00     0.005 C 
HETATM   27  C   UNL     1      40.832 -15.435  -1.683  1.00  0.00     0.006 C 
HETATM   28  O   UNL     1      42.047 -10.783  -0.085  1.00  0.00    -0.267 OA
HETATM   29  N   UNL     1      42.158 -12.028   1.807  1.00  0.00    -0.152 N 
HETATM   30  H   UNL     1      42.328 -11.206   2.379  1.00  0.00     0.188 HD
ENDBRANCH   2  19
BRANCH   4  31
HETATM   31  C   UNL     1      41.665 -11.363   6.845  1.00  0.00     0.105 A 
HETATM   32  O   UNL     1      42.541 -10.820   7.745  1.00  0.00    -0.320 OA
HETATM   33  C   UNL     1      41.818 -10.061   8.607  1.00  0.00     0.142 A 
HETATM   34  C   UNL     1      40.484 -10.099   8.279  1.00  0.00     0.027 A 
HETATM   35  C   UNL     1      40.384 -10.936   7.140  1.00  0.00     0.041 A 
ENDBRANCH   4  31
TORSDOF 6
ENDMDL
MODEL 4
REMARK VINA RESULT:      -8.3      3.895      8.180
REMARK  6 active torsions:
REMARK  status: ('A' for Active; 'I' for Inactive)
REMARK    1  A    between atoms: C_2  and  S_3 
REMARK    2  A    between atoms: S_3  and  C_4 
REMARK    3  A    between atoms: C_5  and  C_6 
REMARK       I    between atoms: C_6  and  N_7 
REMARK    4  A    between atoms: N_7  and  C_8 
REMARK    5  A    between atoms: N_9  and  C_10 
REMARK    6  A    between atoms: C_22  and  C_23 
ROOT
HETATM    1  C   UNL     1      41.245 -16.237   2.364  1.00  0.00     0.152 A 
HETATM    2  N   UNL     1      41.786 -16.370   1.092  1.00  0.00    -0.044 N 
HETATM    3  N   UNL     1      42.569 -17.486   0.969  1.00  0.00    -0.148 NA
HETATM    4  C   UNL     1      42.530 -18.041   2.186  1.00  0.00     0.115 A 
HETATM    5  C   UNL     1      41.699 -17.327   3.073  1.00  0.00     0.087 A 
ENDROOT
BRANCH   1   6
HETATM    6  N   UNL     1      40.462 -15.153   2.736  1.00  0.00    -0.307 N 
HETATM    7  C   UNL     1      40.990 -14.004   3.289  1.00  0.00     0.258 C 
HETATM    8  O   UNL     1      42.147 -13.824   3.653  1.00  0.00    -0.267 OA
HETATM    9  H   UNL     1      39.465 -15.190   2.509  1.00  0.00     0.170 HD
BRANCH   7  10
HETATM   10  C   UNL     1      40.058 -12.853   3.327  1.00  0.00     0.049 A 
HETATM   11  C   UNL     1      39.449 -12.372   4.495  1.00  0.00     0.016 A 
HETATM   12  C   UNL     1      38.545 -11.304   4.390  1.00  0.00     0.019 A 
HETATM   13  C   UNL     1      38.272 -10.713   3.153  1.00  0.00     0.001 A 
HETATM   14  C   UNL     1      38.901 -11.178   2.003  1.00  0.00     0.001 A 
HETATM   15  C   UNL     1      39.795 -12.243   2.089  1.00  0.00     0.018 A 
BRANCH  11  16
HETATM   16  S   UNL     1      39.789 -12.992   6.137  1.00  0.00    -0.129 SA
BRANCH  16  17
HETATM   17  C   UNL     1      40.079 -11.394   6.969  1.00  0.00     0.075 C 
HETATM   18  C   UNL     1      39.333 -11.348   8.290  1.00  0.00     0.016 C 
ENDBRANCH  16  17
ENDBRANCH  11  16
ENDBRANCH   7  10
ENDBRANCH   1   6
BRANCH   2  19
HETATM   19  C   UNL     1      41.661 -15.496  -0.006  1.00  0.00     0.732 A 
HETATM   20  N   UNL     1      41.979 -14.241   0.037  1.00  0.00    -0.067 NA
HETATM   21  C   UNL     1      41.807 -13.532  -1.133  1.00  0.00     0.065 A 
HETATM   22  C   UNL     1      41.343 -14.062  -2.281  1.00  0.00     0.036 A 
HETATM   23  C   UNL     1      42.205 -12.074  -1.059  1.00  0.00     0.060 C 
HETATM   24  C   UNL     1      41.146 -13.296  -3.557  1.00  0.00     0.046 C 
HETATM   25  C   UNL     1      40.997 -15.505  -2.293  1.00  0.00     0.268 A 
HETATM   26  C   UNL     1      41.238 -11.782  -3.364  1.00  0.00     0.005 C 
HETATM   27  C   UNL     1      42.384 -11.417  -2.429  1.00  0.00     0.006 C 
HETATM   28  O   UNL     1      40.588 -16.075  -3.296  1.00  0.00    -0.267 OA
HETATM   29  N   UNL     1      41.176 -16.143  -1.107  1.00  0.00    -0.152 N 
HETATM   30  H   UNL     1      40.967 -17.135  -1.046  1.00  0.00     0.188 HD
ENDBRANCH   2  19
BRANCH   4  31
HETATM   31  C   UNL     1      43.313 -19.259   2.546  1.00  0.00     0.105 A 
HETATM   32  O   UNL     1      44.075 -19.384   3.676  1.00  0.00    -0.320 OA
HETATM   33  C   UNL     1      44.657 -20.609   3.640  1.00  0.00     0.142 A 
HETATM   34  C   UNL     1      44.283 -21.286   2.504  1.00  0.00     0.027 A 
HETATM   35  C   UNL     1      43.413 -20.418   1.799  1.00  0.00     0.041 A 
ENDBRANCH   4  31
TORSDOF 6
ENDMDL
MODEL 5
REMARK VINA RESULT:      -8.3      2.923      7.144
REMARK  6 active torsions:
REMARK  status: ('A' for Active; 'I' for Inactive)
REMARK    1  A    between atoms: C_2  and  S_3 
REMARK    2  A    between atoms: S_3  and  C_4 
REMARK    3  A    between atoms: C_5  and  C_6 
REMARK       I    between atoms: C_6  and  N_7 
REMARK    4  A    between atoms: N_7  and  C_8 
REMARK    5  A    between atoms: N_9  and  C_10 
REMARK    6  A    between atoms: C_22  and  C_23 
ROOT
HETATM    1  C   UNL     1      41.503 -16.870   2.038  1.00  0.00     0.152 A 
HETATM    2  N   UNL     1      42.143 -16.588   3.238  1.00  0.00    -0.044 N 
HETATM    3  N   UNL     1      42.981 -17.594   3.635  1.00  0.00    -0.148 NA
HETATM    4  C   UNL     1      42.845 -18.522   2.679  1.00  0.00     0.115 A 
HETATM    5  C   UNL     1      41.970 -18.108   1.655  1.00  0.00     0.087 A 
ENDROOT
BRANCH   1   6
HETATM    6  N   UNL     1      40.566 -16.018   1.470  1.00  0.00    -0.307 N 
HETATM    7  C   UNL     1      40.917 -14.911   0.724  1.00  0.00     0.258 C 
HETATM    8  O   UNL     1      42.043 -14.448   0.576  1.00  0.00    -0.267 OA
HETATM    9  H   UNL     1      39.581 -16.281   1.546  1.00  0.00     0.170 HD
BRANCH   7  10
HETATM   10  C   UNL     1      39.807 -14.313  -0.053  1.00  0.00     0.049 A 
HETATM   11  C   UNL     1      39.714 -14.358  -1.452  1.00  0.00     0.016 A 
HETATM   12  C   UNL     1      38.637 -13.709  -2.074  1.00  0.00     0.019 A 
HETATM   13  C   UNL     1      37.661 -13.050  -1.319  1.00  0.00     0.001 A 
HETATM   14  C   UNL     1      37.747 -13.035   0.070  1.00  0.00     0.001 A 
HETATM   15  C   UNL     1      38.815 -13.667   0.702  1.00  0.00     0.018 A 
BRANCH  11  16
HETATM   16  S   UNL     1      40.851 -15.242  -2.510  1.00  0.00    -0.129 SA
BRANCH  16  17
HETATM   17  C   UNL     1      41.484 -13.821  -3.466  1.00  0.00     0.075 C 
HETATM   18  C   UNL     1      42.513 -13.059  -2.651  1.00  0.00     0.016 C 
ENDBRANCH  16  17
ENDBRANCH  11  16
ENDBRANCH   7  10
ENDBRANCH   1   6
BRANCH   2  19
HETATM   19  C   UNL     1      41.986 -15.459   4.067  1.00  0.00     0.732 A 
HETATM   20  N   UNL     1      40.834 -14.956   4.381  1.00  0.00    -0.067 NA
HETATM   21  C   UNL     1      40.860 -13.858   5.215  1.00  0.00     0.065 A 
HETATM   22  C   UNL     1      41.986 -13.304   5.706  1.00  0.00     0.036 A 
HETATM   23  C   UNL     1      39.502 -13.303   5.581  1.00  0.00     0.060 C 
HETATM   24  C   UNL     1      42.024 -12.105   6.608  1.00  0.00     0.046 C 
HETATM   25  C   UNL     1      43.285 -13.914   5.330  1.00  0.00     0.268 A 
HETATM   26  C   UNL     1      40.682 -11.376   6.690  1.00  0.00     0.005 C 
HETATM   27  C   UNL     1      39.527 -12.364   6.790  1.00  0.00     0.006 C 
HETATM   28  O   UNL     1      44.356 -13.490   5.745  1.00  0.00    -0.267 OA
HETATM   29  N   UNL     1      43.192 -14.983   4.497  1.00  0.00    -0.152 N 
HETATM   30  H   UNL     1      44.043 -15.455   4.206  1.00  0.00     0.188 HD
ENDBRANCH   2  19
BRANCH   4  31
HETATM   31  C   UNL     1      43.527 -19.848   2.734  1.00  0.00     0.105 A 
HETATM   32  O   UNL     1      44.285 -20.284   3.787  1.00  0.00    -0.320 OA
HETATM   33  C   UNL     1      44.763 -21.512   3.460  1.00  0.00     0.142 A 
HETATM   34  C   UNL     1      44.323 -21.883   2.212  1.00  0.00     0.027 A 
HETATM   35  C   UNL     1      43.522 -20.812   1.744  1.00  0.00     0.041 A 
ENDBRANCH   4  31
TORSDOF 6
ENDMDL
MODEL 6
REMARK VINA RESULT:      -8.0      3.171      7.927
REMARK  6 active torsions:
REMARK  status: ('A' for Active; 'I' for Inactive)
REMARK    1  A    between atoms: C_2  and  S_3 
REMARK    2  A    between atoms: S_3  and  C_4 
REMARK    3  A    between atoms: C_5  and  C_6 
REMARK       I    between atoms: C_6  and  N_7 
REMARK    4  A    between atoms: N_7  and  C_8 
REMARK    5  A    between atoms: N_9  and  C_10 
REMARK    6  A    between atoms: C_22  and  C_23 
ROOT
HETATM    1  C   UNL     1      41.959 -16.189   3.555  1.00  0.00     0.152 A 
HETATM    2  N   UNL     1      41.564 -16.460   2.252  1.00  0.00    -0.044 N 
HETATM    3  N   UNL     1      42.008 -17.677   1.812  1.00  0.00    -0.148 NA
HETATM    4  C   UNL     1      42.704 -18.159   2.849  1.00  0.00     0.115 A 
HETATM    5  C   UNL     1      42.675 -17.293   3.960  1.00  0.00     0.087 A 
ENDROOT
BRANCH   1   6
HETATM    6  N   UNL     1      41.670 -14.989   4.192  1.00  0.00    -0.307 N 
HETATM    7  C   UNL     1      42.536 -13.915   4.192  1.00  0.00     0.258 C 
HETATM    8  O   UNL     1      43.690 -13.897   3.779  1.00  0.00    -0.267 OA
HETATM    9  H   UNL     1      40.739 -14.886   4.603  1.00  0.00     0.170 HD
BRANCH   7  10
HETATM   10  C   UNL     1      41.935 -12.638   4.641  1.00  0.00     0.049 A 
HETATM   11  C   UNL     1      41.441 -11.653   3.774  1.00  0.00     0.016 A 
HETATM   12  C   UNL     1      40.941 -10.462   4.324  1.00  0.00     0.019 A 
HETATM   13  C   UNL     1      40.911 -10.268   5.708  1.00  0.00     0.001 A 
HETATM   14  C   UNL     1      41.377 -11.262   6.563  1.00  0.00     0.001 A 
HETATM   15  C   UNL     1      41.885 -12.445   6.032  1.00  0.00     0.018 A 
BRANCH  11  16
HETATM   16  S   UNL     1      41.349 -11.828   1.997  1.00  0.00    -0.129 SA
BRANCH  16  17
HETATM   17  C   UNL     1      40.068 -10.570   1.671  1.00  0.00     0.075 C 
HETATM   18  C   UNL     1      40.118 -10.136   0.218  1.00  0.00     0.016 C 
ENDBRANCH  16  17
ENDBRANCH  11  16
ENDBRANCH   7  10
ENDBRANCH   1   6
BRANCH   2  19
HETATM   19  C   UNL     1      40.840 -15.634   1.369  1.00  0.00     0.732 A 
HETATM   20  N   UNL     1      39.660 -15.166   1.631  1.00  0.00    -0.067 NA
HETATM   21  C   UNL     1      39.099 -14.362   0.661  1.00  0.00     0.065 A 
HETATM   22  C   UNL     1      39.698 -14.047  -0.504  1.00  0.00     0.036 A 
HETATM   23  C   UNL     1      37.731 -13.814   1.001  1.00  0.00     0.060 C 
HETATM   24  C   UNL     1      39.092 -13.178  -1.568  1.00  0.00     0.046 C 
HETATM   25  C   UNL     1      41.052 -14.595  -0.763  1.00  0.00     0.268 A 
HETATM   26  C   UNL     1      37.601 -12.916  -1.347  1.00  0.00     0.005 C 
HETATM   27  C   UNL     1      37.305 -12.637   0.121  1.00  0.00     0.006 C 
HETATM   28  O   UNL     1      41.678 -14.345  -1.784  1.00  0.00    -0.267 OA
HETATM   29  N   UNL     1      41.543 -15.389   0.224  1.00  0.00    -0.152 N 
HETATM   30  H   UNL     1      42.469 -15.792   0.116  1.00  0.00     0.188 HD
ENDBRANCH   2  19
BRANCH   4  31
HETATM   31  C   UNL     1      43.445 -19.453   2.796  1.00  0.00     0.105 A 
HETATM   32  O   UNL     1      44.368 -19.855   3.723  1.00  0.00    -0.320 OA
HETATM   33  C   UNL     1      44.846 -21.061   3.323  1.00  0.00     0.142 A 
HETATM   34  C   UNL     1      44.245 -21.451   2.149  1.00  0.00     0.027 A 
HETATM   35  C   UNL     1      43.339 -20.417   1.810  1.00  0.00     0.041 A 
ENDBRANCH   4  31
TORSDOF 6
ENDMDL
MODEL 7
REMARK VINA RESULT:      -8.0      3.415      8.782
REMARK  6 active torsions:
REMARK  status: ('A' for Active; 'I' for Inactive)
REMARK    1  A    between atoms: C_2  and  S_3 
REMARK    2  A    between atoms: S_3  and  C_4 
REMARK    3  A    between atoms: C_5  and  C_6 
REMARK       I    between atoms: C_6  and  N_7 
REMARK    4  A    between atoms: N_7  and  C_8 
REMARK    5  A    between atoms: N_9  and  C_10 
REMARK    6  A    between atoms: C_22  and  C_23 
ROOT
HETATM    1  C   UNL     1      41.694 -15.086   1.924  1.00  0.00     0.152 A 
HETATM    2  N   UNL     1      40.862 -13.986   2.087  1.00  0.00    -0.044 N 
HETATM    3  N   UNL     1      40.233 -13.629   0.925  1.00  0.00    -0.148 NA
HETATM    4  C   UNL     1      40.696 -14.506   0.025  1.00  0.00     0.115 A 
HETATM    5  C   UNL     1      41.574 -15.446   0.601  1.00  0.00     0.087 A 
ENDROOT
BRANCH   1   6
HETATM    6  N   UNL     1      42.475 -15.593   2.954  1.00  0.00    -0.307 N 
HETATM    7  C   UNL     1      42.078 -16.655   3.741  1.00  0.00     0.258 C 
HETATM    8  O   UNL     1      40.976 -17.194   3.752  1.00  0.00    -0.267 OA
HETATM    9  H   UNL     1      43.415 -15.206   3.067  1.00  0.00     0.170 HD
BRANCH   7  10
HETATM   10  C   UNL     1      43.156 -17.250   4.564  1.00  0.00     0.049 A 
HETATM   11  C   UNL     1      43.852 -18.418   4.221  1.00  0.00     0.016 A 
HETATM   12  C   UNL     1      44.819 -18.909   5.113  1.00  0.00     0.019 A 
HETATM   13  C   UNL     1      45.102 -18.238   6.306  1.00  0.00     0.001 A 
HETATM   14  C   UNL     1      44.426 -17.065   6.625  1.00  0.00     0.001 A 
HETATM   15  C   UNL     1      43.457 -16.569   5.755  1.00  0.00     0.018 A 
BRANCH  11  16
HETATM   16  S   UNL     1      43.636 -19.308   2.686  1.00  0.00    -0.129 SA
BRANCH  16  17
HETATM   17  C   UNL     1      44.722 -20.729   3.047  1.00  0.00     0.075 C 
HETATM   18  C   UNL     1      44.396 -21.886   2.120  1.00  0.00     0.016 C 
ENDBRANCH  16  17
ENDBRANCH  11  16
ENDBRANCH   7  10
ENDBRANCH   1   6
BRANCH   2  19
HETATM   19  C   UNL     1      40.652 -13.212   3.246  1.00  0.00     0.732 A 
HETATM   20  N   UNL     1      41.497 -13.147   4.226  1.00  0.00    -0.067 NA
HETATM   21  C   UNL     1      41.141 -12.330   5.278  1.00  0.00     0.065 A 
HETATM   22  C   UNL     1      39.999 -11.619   5.335  1.00  0.00     0.036 A 
HETATM   23  C   UNL     1      42.154 -12.257   6.399  1.00  0.00     0.060 C 
HETATM   24  C   UNL     1      39.600 -10.733   6.479  1.00  0.00     0.046 C 
HETATM   25  C   UNL     1      39.061 -11.714   4.189  1.00  0.00     0.268 A 
HETATM   26  C   UNL     1      40.469 -10.935   7.721  1.00  0.00     0.005 C 
HETATM   27  C   UNL     1      41.939 -11.074   7.345  1.00  0.00     0.006 C 
HETATM   28  O   UNL     1      38.010 -11.088   4.146  1.00  0.00    -0.267 OA
HETATM   29  N   UNL     1      39.462 -12.543   3.191  1.00  0.00    -0.152 N 
HETATM   30  H   UNL     1      38.872 -12.649   2.372  1.00  0.00     0.188 HD
ENDBRANCH   2  19
BRANCH   4  31
HETATM   31  C   UNL     1      40.333 -14.451  -1.421  1.00  0.00     0.105 A 
HETATM   32  O   UNL     1      39.525 -13.498  -1.980  1.00  0.00    -0.320 OA
HETATM   33  C   UNL     1      39.402 -13.794  -3.299  1.00  0.00     0.142 A 
HETATM   34  C   UNL     1      40.120 -14.925  -3.607  1.00  0.00     0.027 A 
HETATM   35  C   UNL     1      40.724 -15.347  -2.397  1.00  0.00     0.041 A 
ENDBRANCH   4  31
TORSDOF 6
ENDMDL
MODEL 8
REMARK VINA RESULT:      -8.0      4.037      8.369
REMARK  6 active torsions:
REMARK  status: ('A' for Active; 'I' for Inactive)
REMARK    1  A    between atoms: C_2  and  S_3 
REMARK    2  A    between atoms: S_3  and  C_4 
REMARK    3  A    between atoms: C_5  and  C_6 
REMARK       I    between atoms: C_6  and  N_7 
REMARK    4  A    between atoms: N_7  and  C_8 
REMARK    5  A    between atoms: N_9  and  C_10 
REMARK    6  A    between atoms: C_22  and  C_23 
ROOT
HETATM    1  C   UNL     1      41.580 -15.701   2.380  1.00  0.00     0.152 A 
HETATM    2  N   UNL     1      41.420 -16.112   1.063  1.00  0.00    -0.044 N 
HETATM    3  N   UNL     1      41.937 -17.360   0.838  1.00  0.00    -0.148 NA
HETATM    4  C   UNL     1      42.441 -17.718   2.025  1.00  0.00     0.115 A 
HETATM    5  C   UNL     1      42.216 -16.743   3.017  1.00  0.00     0.087 A 
ENDROOT
BRANCH   1   6
HETATM    6  N   UNL     1      41.182 -14.448   2.827  1.00  0.00    -0.307 N 
HETATM    7  C   UNL     1      42.035 -13.364   2.873  1.00  0.00     0.258 C 
HETATM    8  O   UNL     1      43.245 -13.369   2.677  1.00  0.00    -0.267 OA
HETATM    9  H   UNL     1      40.192 -14.319   3.049  1.00  0.00     0.170 HD
BRANCH   7  10
HETATM   10  C   UNL     1      41.364 -12.059   3.073  1.00  0.00     0.049 A 
HETATM   11  C   UNL     1      41.034 -11.529   4.328  1.00  0.00     0.016 A 
HETATM   12  C   UNL     1      40.353 -10.302   4.381  1.00  0.00     0.019 A 
HETATM   13  C   UNL     1      40.030  -9.609   3.211  1.00  0.00     0.001 A 
HETATM   14  C   UNL     1      40.386 -10.129   1.971  1.00  0.00     0.001 A 
HETATM   15  C   UNL     1      41.054 -11.350   1.900  1.00  0.00     0.018 A 
BRANCH  11  16
HETATM   16  S   UNL     1      41.473 -12.282   5.888  1.00  0.00    -0.129 SA
BRANCH  16  17
HETATM   17  C   UNL     1      40.006 -13.348   6.092  1.00  0.00     0.075 C 
HETATM   18  C   UNL     1      40.407 -14.810   6.021  1.00  0.00     0.016 C 
ENDBRANCH  16  17
ENDBRANCH  11  16
ENDBRANCH   7  10
ENDBRANCH   1   6
BRANCH   2  19
HETATM   19  C   UNL     1      40.861 -15.397  -0.014  1.00  0.00     0.732 A 
HETATM   20  N   UNL     1      39.954 -14.482   0.127  1.00  0.00    -0.067 NA
HETATM   21  C   UNL     1      39.526 -13.871  -1.032  1.00  0.00     0.065 A 
HETATM   22  C   UNL     1      39.990 -14.165  -2.263  1.00  0.00     0.036 A 
HETATM   23  C   UNL     1      38.481 -12.794  -0.837  1.00  0.00     0.060 C 
HETATM   24  C   UNL     1      39.524 -13.509  -3.530  1.00  0.00     0.046 C 
HETATM   25  C   UNL     1      41.034 -15.212  -2.382  1.00  0.00     0.268 A 
HETATM   26  C   UNL     1      38.255 -12.677  -3.340  1.00  0.00     0.005 C 
HETATM   27  C   UNL     1      38.314 -11.874  -2.047  1.00  0.00     0.006 C 
HETATM   28  O   UNL     1      41.528 -15.529  -3.456  1.00  0.00    -0.267 OA
HETATM   29  N   UNL     1      41.404 -15.785  -1.207  1.00  0.00    -0.152 N 
HETATM   30  H   UNL     1      42.120 -16.504  -1.214  1.00  0.00     0.188 HD
ENDBRANCH   2  19
BRANCH   4  31
HETATM   31  C   UNL     1      43.182 -18.996   2.237  1.00  0.00     0.105 A 
HETATM   32  O   UNL     1      42.853 -20.187   1.650  1.00  0.00    -0.320 OA
HETATM   33  C   UNL     1      43.729 -21.119   2.106  1.00  0.00     0.142 A 
HETATM   34  C   UNL     1      44.624 -20.551   2.980  1.00  0.00     0.027 A 
HETATM   35  C   UNL     1      44.275 -19.180   3.063  1.00  0.00     0.041 A 
ENDBRANCH   4  31
TORSDOF 6
ENDMDL
MODEL 9
REMARK VINA RESULT:      -7.9      2.984      4.224
REMARK  6 active torsions:
REMARK  status: ('A' for Active; 'I' for Inactive)
REMARK    1  A    between atoms: C_2  and  S_3 
REMARK    2  A    between atoms: S_3  and  C_4 
REMARK    3  A    between atoms: C_5  and  C_6 
REMARK       I    between atoms: C_6  and  N_7 
REMARK    4  A    between atoms: N_7  and  C_8 
REMARK    5  A    between atoms: N_9  and  C_10 
REMARK    6  A    between atoms: C_22  and  C_23 
ROOT
HETATM    1  C   UNL     1      42.038 -12.545   3.712  1.00  0.00     0.152 A 
HETATM    2  N   UNL     1      42.187 -13.625   4.572  1.00  0.00    -0.044 N 
HETATM    3  N   UNL     1      41.929 -13.296   5.876  1.00  0.00    -0.148 NA
HETATM    4  C   UNL     1      41.637 -11.991   5.827  1.00  0.00     0.115 A 
HETATM    5  C   UNL     1      41.657 -11.489   4.510  1.00  0.00     0.087 A 
ENDROOT
BRANCH   1   6
HETATM    6  N   UNL     1      42.299 -12.629   2.351  1.00  0.00    -0.307 N 
HETATM    7  C   UNL     1      41.313 -12.515   1.392  1.00  0.00     0.258 C 
HETATM    8  O   UNL     1      40.102 -12.470   1.580  1.00  0.00    -0.267 OA
HETATM    9  H   UNL     1      43.278 -12.696   2.062  1.00  0.00     0.170 HD
BRANCH   7  10
HETATM   10  C   UNL     1      41.815 -12.315   0.013  1.00  0.00     0.049 A 
HETATM   11  C   UNL     1      41.778 -13.298  -0.986  1.00  0.00     0.016 A 
HETATM   12  C   UNL     1      42.332 -13.001  -2.241  1.00  0.00     0.019 A 
HETATM   13  C   UNL     1      42.888 -11.745  -2.502  1.00  0.00     0.001 A 
HETATM   14  C   UNL     1      42.895 -10.766  -1.514  1.00  0.00     0.001 A 
HETATM   15  C   UNL     1      42.357 -11.049  -0.260  1.00  0.00     0.018 A 
BRANCH  11  16
HETATM   16  S   UNL     1      41.016 -14.904  -0.794  1.00  0.00    -0.129 SA
BRANCH  16  17
HETATM   17  C   UNL     1      41.045 -15.424  -2.543  1.00  0.00     0.075 C 
HETATM   18  C   UNL     1      39.681 -15.213  -3.175  1.00  0.00     0.016 C 
ENDBRANCH  16  17
ENDBRANCH  11  16
ENDBRANCH   7  10
ENDBRANCH   1   6
BRANCH   2  19
HETATM   19  C   UNL     1      42.602 -14.936   4.265  1.00  0.00     0.732 A 
HETATM   20  N   UNL     1      42.531 -15.450   3.078  1.00  0.00    -0.067 NA
HETATM   21  C   UNL     1      42.995 -16.742   2.949  1.00  0.00     0.065 A 
HETATM   22  C   UNL     1      43.504 -17.471   3.962  1.00  0.00     0.036 A 
HETATM   23  C   UNL     1      42.918 -17.311   1.550  1.00  0.00     0.060 C 
HETATM   24  C   UNL     1      44.005 -18.880   3.833  1.00  0.00     0.046 C 
HETATM   25  C   UNL     1      43.577 -16.843   5.304  1.00  0.00     0.268 A 
HETATM   26  C   UNL     1      43.614 -19.533   2.506  1.00  0.00     0.005 C 
HETATM   27  C   UNL     1      43.780 -18.559   1.346  1.00  0.00     0.006 C 
HETATM   28  O   UNL     1      44.043 -17.423   6.277  1.00  0.00    -0.267 OA
HETATM   29  N   UNL     1      43.093 -15.575   5.368  1.00  0.00    -0.152 N 
HETATM   30  H   UNL     1      43.119 -15.083   6.255  1.00  0.00     0.188 HD
ENDBRANCH   2  19
BRANCH   4  31
HETATM   31  C   UNL     1      41.358 -11.177   7.046  1.00  0.00     0.105 A 
HETATM   32  O   UNL     1      42.297 -10.438   7.714  1.00  0.00    -0.320 OA
HETATM   33  C   UNL     1      41.680  -9.868   8.780  1.00  0.00     0.142 A 
HETATM   34  C   UNL     1      40.352 -10.222   8.814  1.00  0.00     0.027 A 
HETATM   35  C   UNL     1      40.143 -11.063   7.693  1.00  0.00     0.041 A 
ENDBRANCH   4  31
TORSDOF 6
ENDMDL
MODEL 10
REMARK VINA RESULT:      -7.8      3.195      6.607
REMARK  6 active torsions:
REMARK  status: ('A' for Active; 'I' for Inactive)
REMARK    1  A    between atoms: C_2  and  S_3 
REMARK    2  A    between atoms: S_3  and  C_4 
REMARK    3  A    between atoms: C_5  and  C_6 
REMARK       I    between atoms: C_6  and  N_7 
REMARK    4  A    between atoms: N_7  and  C_8 
REMARK    5  A    between atoms: N_9  and  C_10 
REMARK    6  A    between atoms: C_22  and  C_23 
ROOT
HETATM    1  C   UNL     1      42.193 -13.799   4.715  1.00  0.00     0.152 A 
HETATM    2  N   UNL     1      41.304 -13.028   3.979  1.00  0.00    -0.044 N 
HETATM    3  N   UNL     1      40.873 -11.924   4.665  1.00  0.00    -0.148 NA
HETATM    4  C   UNL     1      41.488 -12.023   5.850  1.00  0.00     0.115 A 
HETATM    5  C   UNL     1      42.339 -13.144   5.918  1.00  0.00     0.087 A 
ENDROOT
BRANCH   1   6
HETATM    6  N   UNL     1      42.719 -14.993   4.242  1.00  0.00    -0.307 N 
HETATM    7  C   UNL     1      42.124 -16.217   4.475  1.00  0.00     0.258 C 
HETATM    8  O   UNL     1      41.174 -16.447   5.216  1.00  0.00    -0.267 OA
HETATM    9  H   UNL     1      43.535 -14.940   3.628  1.00  0.00     0.170 HD
BRANCH   7  10
HETATM   10  C   UNL     1      42.643 -17.325   3.640  1.00  0.00     0.049 A 
HETATM   11  C   UNL     1      43.533 -18.306   4.101  1.00  0.00     0.016 A 
HETATM   12  C   UNL     1      43.992 -19.275   3.196  1.00  0.00     0.019 A 
HETATM   13  C   UNL     1      43.554 -19.282   1.868  1.00  0.00     0.001 A 
HETATM   14  C   UNL     1      42.650 -18.321   1.426  1.00  0.00     0.001 A 
HETATM   15  C   UNL     1      42.193 -17.346   2.310  1.00  0.00     0.018 A 
BRANCH  11  16
HETATM   16  S   UNL     1      44.090 -18.447   5.794  1.00  0.00    -0.129 SA
BRANCH  16  17
HETATM   17  C   UNL     1      44.329 -20.256   5.845  1.00  0.00     0.075 C 
HETATM   18  C   UNL     1      43.648 -20.839   7.070  1.00  0.00     0.016 C 
ENDBRANCH  16  17
ENDBRANCH  11  16
ENDBRANCH   7  10
ENDBRANCH   1   6
BRANCH   2  19
HETATM   19  C   UNL     1      40.788 -13.278   2.691  1.00  0.00     0.732 A 
HETATM   20  N   UNL     1      41.470 -13.838   1.743  1.00  0.00    -0.067 NA
HETATM   21  C   UNL     1      40.807 -14.022   0.548  1.00  0.00     0.065 A 
HETATM   22  C   UNL     1      39.527 -13.663   0.326  1.00  0.00     0.036 A 
HETATM   23  C   UNL     1      41.620 -14.695  -0.535  1.00  0.00     0.060 C 
HETATM   24  C   UNL     1      38.800 -13.852  -0.973  1.00  0.00     0.046 C 
HETATM   25  C   UNL     1      38.777 -13.032   1.440  1.00  0.00     0.268 A 
HETATM   26  C   UNL     1      39.731 -14.222  -2.129  1.00  0.00     0.005 C 
HETATM   27  C   UNL     1      40.775 -15.240  -1.688  1.00  0.00     0.006 C 
HETATM   28  O   UNL     1      37.606 -12.693   1.335  1.00  0.00    -0.267 OA
HETATM   29  N   UNL     1      39.489 -12.867   2.585  1.00  0.00    -0.152 N 
HETATM   30  H   UNL     1      39.034 -12.449   3.391  1.00  0.00     0.188 HD
ENDBRANCH   2  19
BRANCH   4  31
HETATM   31  C   UNL     1      41.255 -11.061   6.966  1.00  0.00     0.105 A 
HETATM   32  O   UNL     1      42.060  -9.990   7.246  1.00  0.00    -0.320 OA
HETATM   33  C   UNL     1      41.549  -9.374   8.342  1.00  0.00     0.142 A 
HETATM   34  C   UNL     1      40.421 -10.026   8.779  1.00  0.00     0.027 A 
HETATM   35  C   UNL     1      40.228 -11.113   7.890  1.00  0.00     0.041 A 
ENDBRANCH   4  31
TORSDOF 6
ENDMDL
