MODEL 1
REMARK VINA RESULT:      -9.4      0.000      0.000
REMARK  8 active torsions:
REMARK  status: ('A' for Active; 'I' for Inactive)
REMARK    1  A    between atoms: C_4  and  O_5 
REMARK    2  A    between atoms: O_5  and  C_6 
REMARK    3  A    between atoms: C_9  and  N_10 
REMARK    4  A    between atoms: N_10  and  C_11 
REMARK    5  A    between atoms: C_13  and  N_14 
REMARK    6  A    between atoms: C_16  and  C_17 
REMARK    7  A    between atoms: C_17  and  N_18 
REMARK    8  A    between atoms: N_22  and  C_23 
ROOT
HETATM    1  C   UNL     1      39.550 -14.923   1.776  1.00  0.00     0.731 A 
HETATM    2  N   UNL     1      38.369 -14.597   1.268  1.00  0.00    -0.031 NA
HETATM    3  C   UNL     1      38.024 -13.322   1.328  1.00  0.00     0.219 A 
HETATM    4  N   UNL     1      38.780 -12.362   1.837  1.00  0.00    -0.200 NA
HETATM    5  C   UNL     1      39.940 -12.774   2.338  1.00  0.00     0.174 A 
HETATM    6  N   UNL     1      40.390 -14.025   2.286  1.00  0.00    -0.045 NA
ENDROOT
BRANCH   1   7
HETATM    7  N   UNL     1      39.903 -16.264   1.672  1.00  0.00    -0.188 N 
HETATM    8  H   UNL     1      39.065 -16.833   1.613  1.00  0.00     0.184 HD
BRANCH   7   9
HETATM    9  C   UNL     1      41.087 -16.976   1.912  1.00  0.00     0.049 A 
HETATM   10  C   UNL     1      41.425 -17.536   3.150  1.00  0.00     0.033 A 
HETATM   11  C   UNL     1      42.642 -18.202   3.334  1.00  0.00     0.039 A 
HETATM   12  C   UNL     1      43.539 -18.320   2.278  1.00  0.00     0.076 A 
HETATM   13  C   UNL     1      43.249 -17.732   1.050  1.00  0.00     0.039 A 
HETATM   14  C   UNL     1      42.029 -17.069   0.873  1.00  0.00     0.033 A 
BRANCH  12  15
HETATM   15  O   UNL     1      44.729 -18.957   2.526  1.00  0.00    -0.311 OA
BRANCH  15  16
HETATM   16  C   UNL     1      44.686 -20.170   3.177  1.00  0.00     0.076 A 
HETATM   17  C   UNL     1      44.424 -21.288   2.381  1.00  0.00     0.037 A 
HETATM   18  C   UNL     1      44.401 -22.562   2.951  1.00  0.00     0.003 A 
HETATM   19  C   UNL     1      44.650 -22.722   4.313  1.00  0.00     0.000 A 
HETATM   20  C   UNL     1      44.932 -21.610   5.106  1.00  0.00     0.003 A 
HETATM   21  C   UNL     1      44.960 -20.334   4.539  1.00  0.00     0.037 A 
ENDBRANCH  15  16
ENDBRANCH  12  15
ENDBRANCH   7   9
ENDBRANCH   1   7
BRANCH   3  22
HETATM   22  N   UNL     1      36.815 -12.958   0.781  1.00  0.00    -0.270 NA
HETATM   23  H   UNL     1      36.113 -13.670   0.954  1.00  0.00     0.127 HD
HETATM   24  H   UNL     1      36.543 -12.020   1.042  1.00  0.00     0.127 HD
ENDBRANCH   3  22
BRANCH   5  25
HETATM   25  C   UNL     1      40.919 -11.708   2.788  1.00  0.00     0.316 C 
BRANCH  25  26
HETATM   26  N   UNL     1      41.948 -12.150   3.847  1.00  0.00    -0.061 N 
HETATM   27  H   UNL     1      42.561 -11.333   3.974  1.00  0.00     0.280 HD
HETATM   28  C   UNL     1      41.300 -12.454   5.195  1.00  0.00     0.255 C 
HETATM   29  C   UNL     1      42.390 -12.796   6.239  1.00  0.00     0.152 C 
HETATM   30  N   UNL     1      43.321 -13.857   5.774  1.00  0.00    -0.364 N 
HETATM   31  C   UNL     1      43.897 -13.640   4.424  1.00  0.00     0.152 C 
HETATM   32  C   UNL     1      42.808 -13.314   3.370  1.00  0.00     0.255 C 
BRANCH  30  33
HETATM   33  C   UNL     1      43.150 -15.162   6.197  1.00  0.00     0.102 A 
HETATM   34  N   UNL     1      41.890 -15.591   6.401  1.00  0.00    -0.352 N 
HETATM   35  H   UNL     1      41.137 -14.942   6.188  1.00  0.00     0.166 HD
HETATM   36  C   UNL     1      41.574 -16.836   6.790  1.00  0.00     0.089 A 
HETATM   37  C   UNL     1      42.573 -17.770   7.001  1.00  0.00     0.017 A 
HETATM   38  C   UNL     1      43.891 -17.395   6.786  1.00  0.00     0.005 A 
HETATM   39  C   UNL     1      44.182 -16.093   6.376  1.00  0.00     0.048 A 
ENDBRANCH  30  33
ENDBRANCH  25  26
ENDBRANCH   5  25
TORSDOF 8
ENDMDL
MODEL 2
REMARK VINA RESULT:      -9.3      4.642      5.995
REMARK  8 active torsions:
REMARK  status: ('A' for Active; 'I' for Inactive)
REMARK    1  A    between atoms: C_4  and  O_5 
REMARK    2  A    between atoms: O_5  and  C_6 
REMARK    3  A    between atoms: C_9  and  N_10 
REMARK    4  A    between atoms: N_10  and  C_11 
REMARK    5  A    between atoms: C_13  and  N_14 
REMARK    6  A    between atoms: C_16  and  C_17 
REMARK    7  A    between atoms: C_17  and  N_18 
REMARK    8  A    between atoms: N_22  and  C_23 
ROOT
HETATM    1  C   UNL     1      39.587 -13.200   5.910  1.00  0.00     0.731 A 
HETATM    2  N   UNL     1      38.950 -12.684   4.867  1.00  0.00    -0.031 NA
HETATM    3  C   UNL     1      38.748 -11.378   4.876  1.00  0.00     0.219 A 
HETATM    4  N   UNL     1      39.152 -10.561   5.836  1.00  0.00    -0.200 NA
HETATM    5  C   UNL     1      39.768 -11.158   6.852  1.00  0.00     0.174 A 
HETATM    6  N   UNL     1      40.053 -12.456   6.911  1.00  0.00    -0.045 NA
ENDROOT
BRANCH   1   7
HETATM    7  N   UNL     1      39.815 -14.571   5.860  1.00  0.00    -0.188 N 
HETATM    8  H   UNL     1      39.023 -15.062   6.260  1.00  0.00     0.184 HD
BRANCH   7   9
HETATM    9  C   UNL     1      40.959 -15.355   5.658  1.00  0.00     0.049 A 
HETATM   10  C   UNL     1      42.122 -14.893   5.029  1.00  0.00     0.033 A 
HETATM   11  C   UNL     1      43.218 -15.740   4.823  1.00  0.00     0.039 A 
HETATM   12  C   UNL     1      43.165 -17.064   5.247  1.00  0.00     0.076 A 
HETATM   13  C   UNL     1      42.005 -17.561   5.832  1.00  0.00     0.039 A 
HETATM   14  C   UNL     1      40.914 -16.708   6.036  1.00  0.00     0.033 A 
BRANCH  12  15
HETATM   15  O   UNL     1      44.258 -17.854   4.991  1.00  0.00    -0.311 OA
BRANCH  15  16
HETATM   16  C   UNL     1      44.151 -18.796   3.991  1.00  0.00     0.076 A 
HETATM   17  C   UNL     1      44.681 -20.057   4.274  1.00  0.00     0.037 A 
HETATM   18  C   UNL     1      44.581 -21.085   3.335  1.00  0.00     0.003 A 
HETATM   19  C   UNL     1      43.942 -20.857   2.117  1.00  0.00     0.000 A 
HETATM   20  C   UNL     1      43.394 -19.604   1.840  1.00  0.00     0.003 A 
HETATM   21  C   UNL     1      43.489 -18.575   2.779  1.00  0.00     0.037 A 
ENDBRANCH  15  16
ENDBRANCH  12  15
ENDBRANCH   7   9
ENDBRANCH   1   7
BRANCH   3  22
HETATM   22  N   UNL     1      38.114 -10.819   3.790  1.00  0.00    -0.270 NA
HETATM   23  H   UNL     1      37.111 -10.961   3.846  1.00  0.00     0.127 HD
HETATM   24  H   UNL     1      38.400  -9.863   3.628  1.00  0.00     0.127 HD
ENDBRANCH   3  22
BRANCH   5  25
HETATM   25  C   UNL     1      40.397 -10.266   7.902  1.00  0.00     0.316 C 
BRANCH  25  26
HETATM   26  N   UNL     1      40.900 -10.981   9.172  1.00  0.00    -0.061 N 
HETATM   27  H   UNL     1      40.897 -11.981   8.929  1.00  0.00     0.280 HD
HETATM   28  C   UNL     1      42.336 -10.599   9.523  1.00  0.00     0.255 C 
HETATM   29  C   UNL     1      42.817 -11.418  10.745  1.00  0.00     0.152 C 
HETATM   30  N   UNL     1      41.881 -11.338  11.897  1.00  0.00    -0.364 N 
HETATM   31  C   UNL     1      40.459 -11.612  11.572  1.00  0.00     0.152 C 
HETATM   32  C   UNL     1      39.967 -10.780  10.359  1.00  0.00     0.255 C 
BRANCH  30  33
HETATM   33  C   UNL     1      42.146 -10.475  12.945  1.00  0.00     0.102 A 
HETATM   34  N   UNL     1      41.312 -10.502  14.001  1.00  0.00    -0.352 N 
HETATM   35  H   UNL     1      40.561 -11.189  13.984  1.00  0.00     0.166 HD
HETATM   36  C   UNL     1      41.459  -9.740  15.095  1.00  0.00     0.089 A 
HETATM   37  C   UNL     1      42.524  -8.859  15.186  1.00  0.00     0.017 A 
HETATM   38  C   UNL     1      43.431  -8.801  14.139  1.00  0.00     0.005 A 
HETATM   39  C   UNL     1      43.249  -9.615  13.019  1.00  0.00     0.048 A 
ENDBRANCH  30  33
ENDBRANCH  25  26
ENDBRANCH   5  25
TORSDOF 8
ENDMDL
MODEL 3
REMARK VINA RESULT:      -9.3      4.741      9.503
REMARK  8 active torsions:
REMARK  status: ('A' for Active; 'I' for Inactive)
REMARK    1  A    between atoms: C_4  and  O_5 
REMARK    2  A    between atoms: O_5  and  C_6 
REMARK    3  A    between atoms: C_9  and  N_10 
REMARK    4  A    between atoms: N_10  and  C_11 
REMARK    5  A    between atoms: C_13  and  N_14 
REMARK    6  A    between atoms: C_16  and  C_17 
REMARK    7  A    between atoms: C_17  and  N_18 
REMARK    8  A    between atoms: N_22  and  C_23 
ROOT
HETATM    1  C   UNL     1      44.012 -14.449   7.097  1.00  0.00     0.731 A 
HETATM    2  N   UNL     1      43.943 -15.629   7.700  1.00  0.00    -0.031 NA
HETATM    3  C   UNL     1      43.157 -16.537   7.148  1.00  0.00     0.219 A 
HETATM    4  N   UNL     1      42.458 -16.353   6.039  1.00  0.00    -0.200 NA
HETATM    5  C   UNL     1      42.571 -15.140   5.506  1.00  0.00     0.174 A 
HETATM    6  N   UNL     1      43.368 -14.178   5.964  1.00  0.00    -0.045 NA
ENDROOT
BRANCH   1   7
HETATM    7  N   UNL     1      44.871 -13.523   7.679  1.00  0.00    -0.188 N 
HETATM    8  H   UNL     1      45.833 -13.808   7.527  1.00  0.00     0.184 HD
BRANCH   7   9
HETATM    9  C   UNL     1      44.698 -12.501   8.623  1.00  0.00     0.049 A 
HETATM   10  C   UNL     1      45.547 -12.296   9.717  1.00  0.00     0.033 A 
HETATM   11  C   UNL     1      45.295 -11.280  10.647  1.00  0.00     0.039 A 
HETATM   12  C   UNL     1      44.189 -10.451  10.492  1.00  0.00     0.076 A 
HETATM   13  C   UNL     1      43.304 -10.663   9.439  1.00  0.00     0.039 A 
HETATM   14  C   UNL     1      43.562 -11.680   8.513  1.00  0.00     0.033 A 
BRANCH  12  15
HETATM   15  O   UNL     1      43.977  -9.492  11.451  1.00  0.00    -0.311 OA
BRANCH  15  16
HETATM   16  C   UNL     1      43.151  -9.809  12.507  1.00  0.00     0.076 A 
HETATM   17  C   UNL     1      43.465  -9.219  13.733  1.00  0.00     0.037 A 
HETATM   18  C   UNL     1      42.659  -9.452  14.848  1.00  0.00     0.003 A 
HETATM   19  C   UNL     1      41.533 -10.266  14.737  1.00  0.00     0.000 A 
HETATM   20  C   UNL     1      41.205 -10.841  13.509  1.00  0.00     0.003 A 
HETATM   21  C   UNL     1      42.008 -10.606  12.390  1.00  0.00     0.037 A 
ENDBRANCH  15  16
ENDBRANCH  12  15
ENDBRANCH   7   9
ENDBRANCH   1   7
BRANCH   3  22
HETATM   22  N   UNL     1      43.092 -17.776   7.743  1.00  0.00    -0.270 NA
HETATM   23  H   UNL     1      43.855 -17.901   8.399  1.00  0.00     0.127 HD
HETATM   24  H   UNL     1      42.174 -17.976   8.115  1.00  0.00     0.127 HD
ENDBRANCH   3  22
BRANCH   5  25
HETATM   25  C   UNL     1      41.929 -14.916   4.152  1.00  0.00     0.316 C 
BRANCH  25  26
HETATM   26  N   UNL     1      42.301 -15.937   3.058  1.00  0.00    -0.061 N 
HETATM   27  H   UNL     1      42.073 -15.467   2.172  1.00  0.00     0.280 HD
HETATM   28  C   UNL     1      43.794 -16.252   3.042  1.00  0.00     0.255 C 
HETATM   29  C   UNL     1      44.120 -17.205   1.866  1.00  0.00     0.152 C 
HETATM   30  N   UNL     1      43.256 -18.414   1.847  1.00  0.00    -0.364 N 
HETATM   31  C   UNL     1      41.801 -18.148   1.957  1.00  0.00     0.152 C 
HETATM   32  C   UNL     1      41.467 -17.209   3.145  1.00  0.00     0.255 C 
BRANCH  30  33
HETATM   33  C   UNL     1      43.731 -19.611   2.351  1.00  0.00     0.102 A 
HETATM   34  N   UNL     1      44.269 -19.598   3.585  1.00  0.00    -0.352 N 
HETATM   35  H   UNL     1      44.252 -18.716   4.091  1.00  0.00     0.166 HD
HETATM   36  C   UNL     1      44.748 -20.686   4.207  1.00  0.00     0.089 A 
HETATM   37  C   UNL     1      44.702 -21.919   3.579  1.00  0.00     0.017 A 
HETATM   38  C   UNL     1      44.139 -22.001   2.314  1.00  0.00     0.005 A 
HETATM   39  C   UNL     1      43.645 -20.848   1.700  1.00  0.00     0.048 A 
ENDBRANCH  30  33
ENDBRANCH  25  26
ENDBRANCH   5  25
TORSDOF 8
ENDMDL
MODEL 4
REMARK VINA RESULT:      -9.2      3.052      4.865
REMARK  8 active torsions:
REMARK  status: ('A' for Active; 'I' for Inactive)
REMARK    1  A    between atoms: C_4  and  O_5 
REMARK    2  A    between atoms: O_5  and  C_6 
REMARK    3  A    between atoms: C_9  and  N_10 
REMARK    4  A    between atoms: N_10  and  C_11 
REMARK    5  A    between atoms: C_13  and  N_14 
REMARK    6  A    between atoms: C_16  and  C_17 
REMARK    7  A    between atoms: C_17  and  N_18 
REMARK    8  A    between atoms: N_22  and  C_23 
ROOT
HETATM    1  C   UNL     1      41.889 -13.973   5.620  1.00  0.00     0.731 A 
HETATM    2  N   UNL     1      42.528 -13.852   4.464  1.00  0.00    -0.031 NA
HETATM    3  C   UNL     1      42.102 -12.909   3.641  1.00  0.00     0.219 A 
HETATM    4  N   UNL     1      41.104 -12.078   3.901  1.00  0.00    -0.200 NA
HETATM    5  C   UNL     1      40.507 -12.276   5.072  1.00  0.00     0.174 A 
HETATM    6  N   UNL     1      40.892 -13.168   5.982  1.00  0.00    -0.045 NA
ENDROOT
BRANCH   1   7
HETATM    7  N   UNL     1      42.378 -14.949   6.481  1.00  0.00    -0.188 N 
HETATM    8  H   UNL     1      42.544 -14.545   7.396  1.00  0.00     0.184 HD
BRANCH   7   9
HETATM    9  C   UNL     1      42.932 -16.222   6.286  1.00  0.00     0.049 A 
HETATM   10  C   UNL     1      42.197 -17.340   5.873  1.00  0.00     0.033 A 
HETATM   11  C   UNL     1      42.804 -18.594   5.734  1.00  0.00     0.039 A 
HETATM   12  C   UNL     1      44.160 -18.746   6.004  1.00  0.00     0.076 A 
HETATM   13  C   UNL     1      44.904 -17.661   6.461  1.00  0.00     0.039 A 
HETATM   14  C   UNL     1      44.291 -16.411   6.596  1.00  0.00     0.033 A 
BRANCH  12  15
HETATM   15  O   UNL     1      44.693 -20.004   5.879  1.00  0.00    -0.311 OA
BRANCH  15  16
HETATM   16  C   UNL     1      44.625 -20.612   4.644  1.00  0.00     0.076 A 
HETATM   17  C   UNL     1      44.753 -22.003   4.635  1.00  0.00     0.037 A 
HETATM   18  C   UNL     1      44.656 -22.707   3.434  1.00  0.00     0.003 A 
HETATM   19  C   UNL     1      44.421 -22.023   2.242  1.00  0.00     0.000 A 
HETATM   20  C   UNL     1      44.272 -20.636   2.251  1.00  0.00     0.003 A 
HETATM   21  C   UNL     1      44.364 -19.930   3.452  1.00  0.00     0.037 A 
ENDBRANCH  15  16
ENDBRANCH  12  15
ENDBRANCH   7   9
ENDBRANCH   1   7
BRANCH   3  22
HETATM   22  N   UNL     1      42.769 -12.749   2.448  1.00  0.00    -0.270 NA
HETATM   23  H   UNL     1      43.750 -12.549   2.608  1.00  0.00     0.127 HD
HETATM   24  H   UNL     1      42.588 -13.506   1.803  1.00  0.00     0.127 HD
ENDBRANCH   3  22
BRANCH   5  25
HETATM   25  C   UNL     1      39.469 -11.259   5.501  1.00  0.00     0.316 C 
BRANCH  25  26
HETATM   26  N   UNL     1      39.785 -10.486   6.796  1.00  0.00    -0.061 N 
HETATM   27  H   UNL     1      39.069  -9.749   6.844  1.00  0.00     0.280 HD
HETATM   28  C   UNL     1      39.636 -11.354   8.043  1.00  0.00     0.255 C 
HETATM   29  C   UNL     1      39.872 -10.500   9.313  1.00  0.00     0.152 C 
HETATM   30  N   UNL     1      41.147  -9.739   9.267  1.00  0.00    -0.364 N 
HETATM   31  C   UNL     1      41.368  -8.957   8.026  1.00  0.00     0.152 C 
HETATM   32  C   UNL     1      41.151  -9.812   6.751  1.00  0.00     0.255 C 
BRANCH  30  33
HETATM   33  C   UNL     1      42.261 -10.215   9.934  1.00  0.00     0.102 A 
HETATM   34  N   UNL     1      42.897 -11.278   9.406  1.00  0.00    -0.352 N 
HETATM   35  H   UNL     1      42.545 -11.639   8.523  1.00  0.00     0.166 HD
HETATM   36  C   UNL     1      44.000 -11.831   9.932  1.00  0.00     0.089 A 
HETATM   37  C   UNL     1      44.556 -11.304  11.086  1.00  0.00     0.017 A 
HETATM   38  C   UNL     1      43.959 -10.194  11.665  1.00  0.00     0.005 A 
HETATM   39  C   UNL     1      42.815  -9.642  11.086  1.00  0.00     0.048 A 
ENDBRANCH  30  33
ENDBRANCH  25  26
ENDBRANCH   5  25
TORSDOF 8
ENDMDL
MODEL 5
REMARK VINA RESULT:      -9.1      1.947      2.596
REMARK  8 active torsions:
REMARK  status: ('A' for Active; 'I' for Inactive)
REMARK    1  A    between atoms: C_4  and  O_5 
REMARK    2  A    between atoms: O_5  and  C_6 
REMARK    3  A    between atoms: C_9  and  N_10 
REMARK    4  A    between atoms: N_10  and  C_11 
REMARK    5  A    between atoms: C_13  and  N_14 
REMARK    6  A    between atoms: C_16  and  C_17 
REMARK    7  A    between atoms: C_17  and  N_18 
REMARK    8  A    between atoms: N_22  and  C_23 
ROOT
HETATM    1  C   UNL     1      40.791 -15.002  -0.346  1.00  0.00     0.731 A 
HETATM    2  N   UNL     1      41.363 -14.649  -1.490  1.00  0.00    -0.031 NA
HETATM    3  C   UNL     1      41.227 -13.387  -1.861  1.00  0.00     0.219 A 
HETATM    4  N   UNL     1      40.583 -12.463  -1.165  1.00  0.00    -0.200 NA
HETATM    5  C   UNL     1      40.027 -12.902  -0.040  1.00  0.00     0.174 A 
HETATM    6  N   UNL     1      40.145 -14.139   0.435  1.00  0.00    -0.045 NA
ENDROOT
BRANCH   1   7
HETATM    7  N   UNL     1      40.976 -16.326   0.037  1.00  0.00    -0.188 N 
HETATM    8  H   UNL     1      40.212 -16.892  -0.314  1.00  0.00     0.184 HD
BRANCH   7   9
HETATM    9  C   UNL     1      41.788 -16.953   0.994  1.00  0.00     0.049 A 
HETATM   10  C   UNL     1      41.331 -17.380   2.246  1.00  0.00     0.033 A 
HETATM   11  C   UNL     1      42.203 -17.965   3.173  1.00  0.00     0.039 A 
HETATM   12  C   UNL     1      43.547 -18.133   2.855  1.00  0.00     0.076 A 
HETATM   13  C   UNL     1      44.036 -17.675   1.635  1.00  0.00     0.039 A 
HETATM   14  C   UNL     1      43.158 -17.093   0.714  1.00  0.00     0.033 A 
BRANCH  12  15
HETATM   15  O   UNL     1      44.359 -18.685   3.814  1.00  0.00    -0.311 OA
BRANCH  15  16
HETATM   16  C   UNL     1      44.491 -20.056   3.835  1.00  0.00     0.076 A 
HETATM   17  C   UNL     1      44.715 -20.635   5.086  1.00  0.00     0.037 A 
HETATM   18  C   UNL     1      44.820 -22.021   5.207  1.00  0.00     0.003 A 
HETATM   19  C   UNL     1      44.692 -22.832   4.080  1.00  0.00     0.000 A 
HETATM   20  C   UNL     1      44.447 -22.258   2.832  1.00  0.00     0.003 A 
HETATM   21  C   UNL     1      44.337 -20.872   2.709  1.00  0.00     0.037 A 
ENDBRANCH  15  16
ENDBRANCH  12  15
ENDBRANCH   7   9
ENDBRANCH   1   7
BRANCH   3  22
HETATM   22  N   UNL     1      41.836 -12.993  -3.031  1.00  0.00    -0.270 NA
HETATM   23  H   UNL     1      42.744 -12.581  -2.843  1.00  0.00     0.127 HD
HETATM   24  H   UNL     1      41.837 -13.725  -3.728  1.00  0.00     0.127 HD
ENDBRANCH   3  22
BRANCH   5  25
HETATM   25  C   UNL     1      39.416 -11.866   0.882  1.00  0.00     0.316 C 
BRANCH  25  26
HETATM   26  N   UNL     1      39.965 -11.846   2.322  1.00  0.00    -0.061 N 
HETATM   27  H   UNL     1      40.008 -10.849   2.573  1.00  0.00     0.280 HD
HETATM   28  C   UNL     1      39.025 -12.530   3.311  1.00  0.00     0.255 C 
HETATM   29  C   UNL     1      39.582 -12.394   4.749  1.00  0.00     0.152 C 
HETATM   30  N   UNL     1      40.994 -12.840   4.865  1.00  0.00    -0.364 N 
HETATM   31  C   UNL     1      41.919 -12.266   3.857  1.00  0.00     0.152 C 
HETATM   32  C   UNL     1      41.375 -12.416   2.413  1.00  0.00     0.255 C 
BRANCH  30  33
HETATM   33  C   UNL     1      41.284 -14.098   5.361  1.00  0.00     0.102 A 
HETATM   34  N   UNL     1      42.578 -14.404   5.569  1.00  0.00    -0.352 N 
HETATM   35  H   UNL     1      43.263 -13.673   5.391  1.00  0.00     0.166 HD
HETATM   36  C   UNL     1      43.003 -15.575   6.066  1.00  0.00     0.089 A 
HETATM   37  C   UNL     1      42.087 -16.557   6.403  1.00  0.00     0.017 A 
HETATM   38  C   UNL     1      40.736 -16.294   6.232  1.00  0.00     0.005 A 
HETATM   39  C   UNL     1      40.331 -15.061   5.718  1.00  0.00     0.048 A 
ENDBRANCH  30  33
ENDBRANCH  25  26
ENDBRANCH   5  25
TORSDOF 8
ENDMDL
MODEL 6
REMARK VINA RESULT:      -9.0      3.526      6.562
REMARK  8 active torsions:
REMARK  status: ('A' for Active; 'I' for Inactive)
REMARK    1  A    between atoms: C_4  and  O_5 
REMARK    2  A    between atoms: O_5  and  C_6 
REMARK    3  A    between atoms: C_9  and  N_10 
REMARK    4  A    between atoms: N_10  and  C_11 
REMARK    5  A    between atoms: C_13  and  N_14 
REMARK    6  A    between atoms: C_16  and  C_17 
REMARK    7  A    between atoms: C_17  and  N_18 
REMARK    8  A    between atoms: N_22  and  C_23 
ROOT
HETATM    1  C   UNL     1      39.775 -14.568   3.537  1.00  0.00     0.731 A 
HETATM    2  N   UNL     1      39.999 -13.336   3.977  1.00  0.00    -0.031 NA
HETATM    3  C   UNL     1      39.582 -12.343   3.211  1.00  0.00     0.219 A 
HETATM    4  N   UNL     1      38.950 -12.497   2.058  1.00  0.00    -0.200 NA
HETATM    5  C   UNL     1      38.779 -13.760   1.681  1.00  0.00     0.174 A 
HETATM    6  N   UNL     1      39.125 -14.823   2.404  1.00  0.00    -0.045 NA
ENDROOT
BRANCH   1   7
HETATM    7  N   UNL     1      40.193 -15.594   4.377  1.00  0.00    -0.188 N 
HETATM    8  H   UNL     1      39.597 -15.628   5.196  1.00  0.00     0.184 HD
BRANCH   7   9
HETATM    9  C   UNL     1      41.370 -16.353   4.467  1.00  0.00     0.049 A 
HETATM   10  C   UNL     1      42.514 -16.115   3.697  1.00  0.00     0.033 A 
HETATM   11  C   UNL     1      43.644 -16.935   3.808  1.00  0.00     0.039 A 
HETATM   12  C   UNL     1      43.644 -18.004   4.697  1.00  0.00     0.076 A 
HETATM   13  C   UNL     1      42.503 -18.290   5.441  1.00  0.00     0.039 A 
HETATM   14  C   UNL     1      41.379 -17.466   5.326  1.00  0.00     0.033 A 
BRANCH  12  15
HETATM   15  O   UNL     1      44.768 -18.790   4.741  1.00  0.00    -0.311 OA
BRANCH  15  16
HETATM   16  C   UNL     1      44.713 -20.027   4.138  1.00  0.00     0.076 A 
HETATM   17  C   UNL     1      44.817 -21.132   4.986  1.00  0.00     0.037 A 
HETATM   18  C   UNL     1      44.731 -22.424   4.466  1.00  0.00     0.003 A 
HETATM   19  C   UNL     1      44.530 -22.614   3.099  1.00  0.00     0.000 A 
HETATM   20  C   UNL     1      44.406 -21.512   2.252  1.00  0.00     0.003 A 
HETATM   21  C   UNL     1      44.488 -20.218   2.771  1.00  0.00     0.037 A 
ENDBRANCH  15  16
ENDBRANCH  12  15
ENDBRANCH   7   9
ENDBRANCH   1   7
BRANCH   3  22
HETATM   22  N   UNL     1      39.779 -11.058   3.662  1.00  0.00    -0.270 NA
HETATM   23  H   UNL     1      40.712 -10.734   3.432  1.00  0.00     0.127 HD
HETATM   24  H   UNL     1      39.032 -10.435   3.386  1.00  0.00     0.127 HD
ENDBRANCH   3  22
BRANCH   5  25
HETATM   25  C   UNL     1      37.923 -14.009   0.457  1.00  0.00     0.316 C 
BRANCH  25  26
HETATM   26  N   UNL     1      38.689 -14.267  -0.855  1.00  0.00    -0.061 N 
HETATM   27  H   UNL     1      38.649 -15.286  -0.987  1.00  0.00     0.280 HD
HETATM   28  C   UNL     1      38.013 -13.619  -2.060  1.00  0.00     0.255 C 
HETATM   29  C   UNL     1      38.772 -13.992  -3.357  1.00  0.00     0.152 C 
HETATM   30  N   UNL     1      40.229 -13.713  -3.271  1.00  0.00    -0.364 N 
HETATM   31  C   UNL     1      40.902 -14.249  -2.062  1.00  0.00     0.152 C 
HETATM   32  C   UNL     1      40.155 -13.862  -0.760  1.00  0.00     0.255 C 
BRANCH  30  33
HETATM   33  C   UNL     1      40.748 -12.564  -3.840  1.00  0.00     0.102 A 
HETATM   34  N   UNL     1      39.893 -11.746  -4.482  1.00  0.00    -0.352 N 
HETATM   35  H   UNL     1      38.908 -12.000  -4.470  1.00  0.00     0.166 HD
HETATM   36  C   UNL     1      40.251 -10.589  -5.060  1.00  0.00     0.089 A 
HETATM   37  C   UNL     1      41.570 -10.172  -5.014  1.00  0.00     0.017 A 
HETATM   38  C   UNL     1      42.495 -10.962  -4.347  1.00  0.00     0.005 A 
HETATM   39  C   UNL     1      42.085 -12.156  -3.752  1.00  0.00     0.048 A 
ENDBRANCH  30  33
ENDBRANCH  25  26
ENDBRANCH   5  25
TORSDOF 8
ENDMDL
MODEL 7
REMARK VINA RESULT:      -9.0      3.869      5.014
REMARK  8 active torsions:
REMARK  status: ('A' for Active; 'I' for Inactive)
REMARK    1  A    between atoms: C_4  and  O_5 
REMARK    2  A    between atoms: O_5  and  C_6 
REMARK    3  A    between atoms: C_9  and  N_10 
REMARK    4  A    between atoms: N_10  and  C_11 
REMARK    5  A    between atoms: C_13  and  N_14 
REMARK    6  A    between atoms: C_16  and  C_17 
REMARK    7  A    between atoms: C_17  and  N_18 
REMARK    8  A    between atoms: N_22  and  C_23 
ROOT
HETATM    1  C   UNL     1      39.778 -14.171   4.299  1.00  0.00     0.731 A 
HETATM    2  N   UNL     1      39.569 -13.212   3.406  1.00  0.00    -0.031 NA
HETATM    3  C   UNL     1      39.166 -12.041   3.869  1.00  0.00     0.219 A 
HETATM    4  N   UNL     1      38.979 -11.763   5.150  1.00  0.00    -0.200 NA
HETATM    5  C   UNL     1      39.194 -12.781   5.978  1.00  0.00     0.174 A 
HETATM    6  N   UNL     1      39.641 -13.979   5.609  1.00  0.00    -0.045 NA
ENDROOT
BRANCH   1   7
HETATM    7  N   UNL     1      40.232 -15.382   3.789  1.00  0.00    -0.188 N 
HETATM    8  H   UNL     1      39.474 -15.856   3.312  1.00  0.00     0.184 HD
BRANCH   7   9
HETATM    9  C   UNL     1      41.365 -16.171   4.033  1.00  0.00     0.049 A 
HETATM   10  C   UNL     1      42.623 -15.928   3.469  1.00  0.00     0.033 A 
HETATM   11  C   UNL     1      43.706 -16.778   3.723  1.00  0.00     0.039 A 
HETATM   12  C   UNL     1      43.545 -17.884   4.550  1.00  0.00     0.076 A 
HETATM   13  C   UNL     1      42.294 -18.175   5.087  1.00  0.00     0.039 A 
HETATM   14  C   UNL     1      41.217 -17.320   4.830  1.00  0.00     0.033 A 
BRANCH  12  15
HETATM   15  O   UNL     1      44.635 -18.697   4.738  1.00  0.00    -0.311 OA
BRANCH  15  16
HETATM   16  C   UNL     1      44.620 -19.940   4.144  1.00  0.00     0.076 A 
HETATM   17  C   UNL     1      44.751 -21.035   5.003  1.00  0.00     0.037 A 
HETATM   18  C   UNL     1      44.707 -22.333   4.492  1.00  0.00     0.003 A 
HETATM   19  C   UNL     1      44.522 -22.539   3.126  1.00  0.00     0.000 A 
HETATM   20  C   UNL     1      44.371 -21.449   2.269  1.00  0.00     0.003 A 
HETATM   21  C   UNL     1      44.411 -20.148   2.778  1.00  0.00     0.037 A 
ENDBRANCH  15  16
ENDBRANCH  12  15
ENDBRANCH   7   9
ENDBRANCH   1   7
BRANCH   3  22
HETATM   22  N   UNL     1      38.971 -11.025   2.962  1.00  0.00    -0.270 NA
HETATM   23  H   UNL     1      38.031 -11.058   2.582  1.00  0.00     0.127 HD
HETATM   24  H   UNL     1      39.251 -10.125   3.328  1.00  0.00     0.127 HD
ENDBRANCH   3  22
BRANCH   5  25
HETATM   25  C   UNL     1      39.156 -12.487   7.463  1.00  0.00     0.316 C 
BRANCH  25  26
HETATM   26  N   UNL     1      39.751 -11.131   7.892  1.00  0.00    -0.061 N 
HETATM   27  H   UNL     1      39.451 -10.470   7.163  1.00  0.00     0.280 HD
HETATM   28  C   UNL     1      39.180 -10.641   9.220  1.00  0.00     0.255 C 
HETATM   29  C   UNL     1      39.740  -9.236   9.550  1.00  0.00     0.152 C 
HETATM   30  N   UNL     1      41.223  -9.176   9.481  1.00  0.00    -0.364 N 
HETATM   31  C   UNL     1      41.818  -9.732   8.240  1.00  0.00     0.152 C 
HETATM   32  C   UNL     1      41.274 -11.147   7.916  1.00  0.00     0.255 C 
BRANCH  30  33
HETATM   33  C   UNL     1      41.973  -9.247  10.641  1.00  0.00     0.102 A 
HETATM   34  N   UNL     1      41.589  -8.481  11.679  1.00  0.00    -0.352 N 
HETATM   35  H   UNL     1      40.742  -7.929  11.562  1.00  0.00     0.166 HD
HETATM   36  C   UNL     1      42.206  -8.464  12.870  1.00  0.00     0.089 A 
HETATM   37  C   UNL     1      43.309  -9.273  13.089  1.00  0.00     0.017 A 
HETATM   38  C   UNL     1      43.740 -10.102  12.064  1.00  0.00     0.005 A 
HETATM   39  C   UNL     1      43.068 -10.097  10.840  1.00  0.00     0.048 A 
ENDBRANCH  30  33
ENDBRANCH  25  26
ENDBRANCH   5  25
TORSDOF 8
ENDMDL
MODEL 8
REMARK VINA RESULT:      -8.9      2.554      5.764
REMARK  8 active torsions:
REMARK  status: ('A' for Active; 'I' for Inactive)
REMARK    1  A    between atoms: C_4  and  O_5 
REMARK    2  A    between atoms: O_5  and  C_6 
REMARK    3  A    between atoms: C_9  and  N_10 
REMARK    4  A    between atoms: N_10  and  C_11 
REMARK    5  A    between atoms: C_13  and  N_14 
REMARK    6  A    between atoms: C_16  and  C_17 
REMARK    7  A    between atoms: C_17  and  N_18 
REMARK    8  A    between atoms: N_22  and  C_23 
ROOT
HETATM    1  C   UNL     1      42.042 -13.822   5.576  1.00  0.00     0.731 A 
HETATM    2  N   UNL     1      40.873 -13.755   6.201  1.00  0.00    -0.031 NA
HETATM    3  C   UNL     1      39.906 -13.093   5.588  1.00  0.00     0.219 A 
HETATM    4  N   UNL     1      40.022 -12.518   4.402  1.00  0.00    -0.200 NA
HETATM    5  C   UNL     1      41.228 -12.617   3.851  1.00  0.00     0.174 A 
HETATM    6  N   UNL     1      42.247 -13.298   4.370  1.00  0.00    -0.045 NA
ENDROOT
BRANCH   1   7
HETATM    7  N   UNL     1      43.032 -14.552   6.226  1.00  0.00    -0.188 N 
HETATM    8  H   UNL     1      43.726 -13.919   6.608  1.00  0.00     0.184 HD
BRANCH   7   9
HETATM    9  C   UNL     1      43.406 -15.903   6.211  1.00  0.00     0.049 A 
HETATM   10  C   UNL     1      44.670 -16.368   6.592  1.00  0.00     0.033 A 
HETATM   11  C   UNL     1      44.993 -17.728   6.517  1.00  0.00     0.039 A 
HETATM   12  C   UNL     1      44.050 -18.645   6.063  1.00  0.00     0.076 A 
HETATM   13  C   UNL     1      42.801 -18.203   5.634  1.00  0.00     0.039 A 
HETATM   14  C   UNL     1      42.486 -16.843   5.713  1.00  0.00     0.033 A 
BRANCH  12  15
HETATM   15  O   UNL     1      44.433 -19.960   5.983  1.00  0.00    -0.311 OA
BRANCH  15  16
HETATM   16  C   UNL     1      44.461 -20.548   4.738  1.00  0.00     0.076 A 
HETATM   17  C   UNL     1      44.649 -21.933   4.714  1.00  0.00     0.037 A 
HETATM   18  C   UNL     1      44.651 -22.617   3.498  1.00  0.00     0.003 A 
HETATM   19  C   UNL     1      44.455 -21.922   2.306  1.00  0.00     0.000 A 
HETATM   20  C   UNL     1      44.247 -20.543   2.328  1.00  0.00     0.003 A 
HETATM   21  C   UNL     1      44.241 -19.856   3.543  1.00  0.00     0.037 A 
ENDBRANCH  15  16
ENDBRANCH  12  15
ENDBRANCH   7   9
ENDBRANCH   1   7
BRANCH   3  22
HETATM   22  N   UNL     1      38.677 -13.035   6.206  1.00  0.00    -0.270 NA
HETATM   23  H   UNL     1      38.329 -13.967   6.403  1.00  0.00     0.127 HD
HETATM   24  H   UNL     1      38.674 -12.404   6.996  1.00  0.00     0.127 HD
ENDBRANCH   3  22
BRANCH   5  25
HETATM   25  C   UNL     1      41.383 -12.124   2.428  1.00  0.00     0.316 C 
BRANCH  25  26
HETATM   26  N   UNL     1      41.656 -13.211   1.369  1.00  0.00    -0.061 N 
HETATM   27  H   UNL     1      42.578 -13.594   1.617  1.00  0.00     0.280 HD
HETATM   28  C   UNL     1      40.648 -14.355   1.439  1.00  0.00     0.255 C 
HETATM   29  C   UNL     1      41.028 -15.457   0.421  1.00  0.00     0.152 C 
HETATM   30  N   UNL     1      41.233 -14.927  -0.953  1.00  0.00    -0.364 N 
HETATM   31  C   UNL     1      42.135 -13.753  -1.045  1.00  0.00     0.152 C 
HETATM   32  C   UNL     1      41.747 -12.638  -0.040  1.00  0.00     0.255 C 
BRANCH  30  33
HETATM   33  C   UNL     1      40.227 -15.042  -1.894  1.00  0.00     0.102 A 
HETATM   34  N   UNL     1      39.071 -14.394  -1.655  1.00  0.00    -0.352 N 
HETATM   35  H   UNL     1      39.024 -13.821  -0.815  1.00  0.00     0.166 HD
HETATM   36  C   UNL     1      38.021 -14.397  -2.489  1.00  0.00     0.089 A 
HETATM   37  C   UNL     1      38.088 -15.094  -3.684  1.00  0.00     0.017 A 
HETATM   38  C   UNL     1      39.261 -15.764  -3.998  1.00  0.00     0.005 A 
HETATM   39  C   UNL     1      40.336 -15.733  -3.108  1.00  0.00     0.048 A 
ENDBRANCH  30  33
ENDBRANCH  25  26
ENDBRANCH   5  25
TORSDOF 8
ENDMDL
MODEL 9
REMARK VINA RESULT:      -8.8      1.818      4.733
REMARK  8 active torsions:
REMARK  status: ('A' for Active; 'I' for Inactive)
REMARK    1  A    between atoms: C_4  and  O_5 
REMARK    2  A    between atoms: O_5  and  C_6 
REMARK    3  A    between atoms: C_9  and  N_10 
REMARK    4  A    between atoms: N_10  and  C_11 
REMARK    5  A    between atoms: C_13  and  N_14 
REMARK    6  A    between atoms: C_16  and  C_17 
REMARK    7  A    between atoms: C_17  and  N_18 
REMARK    8  A    between atoms: N_22  and  C_23 
ROOT
HETATM    1  C   UNL     1      41.924 -12.601   5.374  1.00  0.00     0.731 A 
HETATM    2  N   UNL     1      41.071 -12.130   6.274  1.00  0.00    -0.031 NA
HETATM    3  C   UNL     1      40.073 -11.390   5.822  1.00  0.00     0.219 A 
HETATM    4  N   UNL     1      39.863 -11.109   4.545  1.00  0.00    -0.200 NA
HETATM    5  C   UNL     1      40.770 -11.606   3.710  1.00  0.00     0.174 A 
HETATM    6  N   UNL     1      41.781 -12.394   4.067  1.00  0.00    -0.045 NA
ENDROOT
BRANCH   1   7
HETATM    7  N   UNL     1      42.945 -13.403   5.872  1.00  0.00    -0.188 N 
HETATM    8  H   UNL     1      43.838 -12.942   5.735  1.00  0.00     0.184 HD
BRANCH   7   9
HETATM    9  C   UNL     1      43.025 -14.756   6.232  1.00  0.00     0.049 A 
HETATM   10  C   UNL     1      42.008 -15.689   5.998  1.00  0.00     0.033 A 
HETATM   11  C   UNL     1      42.135 -17.018   6.418  1.00  0.00     0.039 A 
HETATM   12  C   UNL     1      43.288 -17.434   7.077  1.00  0.00     0.076 A 
HETATM   13  C   UNL     1      44.295 -16.516   7.362  1.00  0.00     0.039 A 
HETATM   14  C   UNL     1      44.161 -15.190   6.938  1.00  0.00     0.033 A 
BRANCH  12  15
HETATM   15  O   UNL     1      43.344 -18.741   7.491  1.00  0.00    -0.311 OA
BRANCH  15  16
HETATM   16  C   UNL     1      43.845 -19.674   6.610  1.00  0.00     0.076 A 
HETATM   17  C   UNL     1      44.568 -19.172   5.525  1.00  0.00     0.037 A 
HETATM   18  C   UNL     1      45.147 -20.046   4.605  1.00  0.00     0.003 A 
HETATM   19  C   UNL     1      45.014 -21.424   4.773  1.00  0.00     0.000 A 
HETATM   20  C   UNL     1      44.310 -21.929   5.866  1.00  0.00     0.003 A 
HETATM   21  C   UNL     1      43.733 -21.056   6.791  1.00  0.00     0.037 A 
ENDBRANCH  15  16
ENDBRANCH  12  15
ENDBRANCH   7   9
ENDBRANCH   1   7
BRANCH   3  22
HETATM   22  N   UNL     1      39.161 -10.915   6.737  1.00  0.00    -0.270 NA
HETATM   23  H   UNL     1      38.462 -10.338   6.282  1.00  0.00     0.127 HD
HETATM   24  H   UNL     1      38.791 -11.648   7.326  1.00  0.00     0.127 HD
ENDBRANCH   3  22
BRANCH   5  25
HETATM   25  C   UNL     1      40.501 -11.460   2.227  1.00  0.00     0.316 C 
BRANCH  25  26
HETATM   26  N   UNL     1      40.350 -12.777   1.441  1.00  0.00    -0.061 N 
HETATM   27  H   UNL     1      39.617 -12.586   0.745  1.00  0.00     0.280 HD
HETATM   28  C   UNL     1      41.621 -13.148   0.681  1.00  0.00     0.255 C 
HETATM   29  C   UNL     1      41.379 -14.424  -0.162  1.00  0.00     0.152 C 
HETATM   30  N   UNL     1      40.814 -15.543   0.636  1.00  0.00    -0.364 N 
HETATM   31  C   UNL     1      39.632 -15.193   1.462  1.00  0.00     0.152 C 
HETATM   32  C   UNL     1      39.876 -13.927   2.322  1.00  0.00     0.255 C 
BRANCH  30  33
HETATM   33  C   UNL     1      41.641 -16.553   1.093  1.00  0.00     0.102 A 
HETATM   34  N   UNL     1      42.834 -16.704   0.488  1.00  0.00    -0.352 N 
HETATM   35  H   UNL     1      43.075 -16.035  -0.240  1.00  0.00     0.166 HD
HETATM   36  C   UNL     1      43.745 -17.624   0.840  1.00  0.00     0.089 A 
HETATM   37  C   UNL     1      43.484 -18.490   1.888  1.00  0.00     0.017 A 
HETATM   38  C   UNL     1      42.280 -18.371   2.566  1.00  0.00     0.005 A 
HETATM   39  C   UNL     1      41.359 -17.397   2.175  1.00  0.00     0.048 A 
ENDBRANCH  30  33
ENDBRANCH  25  26
ENDBRANCH   5  25
TORSDOF 8
ENDMDL
MODEL 10
REMARK VINA RESULT:      -8.7      2.113      4.785
REMARK  8 active torsions:
REMARK  status: ('A' for Active; 'I' for Inactive)
REMARK    1  A    between atoms: C_4  and  O_5 
REMARK    2  A    between atoms: O_5  and  C_6 
REMARK    3  A    between atoms: C_9  and  N_10 
REMARK    4  A    between atoms: N_10  and  C_11 
REMARK    5  A    between atoms: C_13  and  N_14 
REMARK    6  A    between atoms: C_16  and  C_17 
REMARK    7  A    between atoms: C_17  and  N_18 
REMARK    8  A    between atoms: N_22  and  C_23 
ROOT
HETATM    1  C   UNL     1      39.581 -13.098   6.042  1.00  0.00     0.731 A 
HETATM    2  N   UNL     1      39.444 -12.492   7.215  1.00  0.00    -0.031 NA
HETATM    3  C   UNL     1      39.239 -11.187   7.192  1.00  0.00     0.219 A 
HETATM    4  N   UNL     1      39.145 -10.459   6.090  1.00  0.00    -0.200 NA
HETATM    5  C   UNL     1      39.309 -11.139   4.959  1.00  0.00     0.174 A 
HETATM    6  N   UNL     1      39.476 -12.456   4.881  1.00  0.00    -0.045 NA
ENDROOT
BRANCH   1   7
HETATM    7  N   UNL     1      39.763 -14.476   6.093  1.00  0.00    -0.188 N 
HETATM    8  H   UNL     1      38.976 -14.906   6.566  1.00  0.00     0.184 HD
BRANCH   7   9
HETATM    9  C   UNL     1      40.871 -15.314   5.902  1.00  0.00     0.049 A 
HETATM   10  C   UNL     1      40.867 -16.688   6.170  1.00  0.00     0.033 A 
HETATM   11  C   UNL     1      42.020 -17.463   5.995  1.00  0.00     0.039 A 
HETATM   12  C   UNL     1      43.196 -16.871   5.545  1.00  0.00     0.076 A 
HETATM   13  C   UNL     1      43.240 -15.499   5.316  1.00  0.00     0.039 A 
HETATM   14  C   UNL     1      42.083 -14.732   5.492  1.00  0.00     0.033 A 
BRANCH  12  15
HETATM   15  O   UNL     1      44.301 -17.674   5.421  1.00  0.00    -0.311 OA
BRANCH  15  16
HETATM   16  C   UNL     1      44.299 -18.623   4.422  1.00  0.00     0.076 A 
HETATM   17  C   UNL     1      44.686 -19.912   4.795  1.00  0.00     0.037 A 
HETATM   18  C   UNL     1      44.675 -20.945   3.857  1.00  0.00     0.003 A 
HETATM   19  C   UNL     1      44.267 -20.694   2.547  1.00  0.00     0.000 A 
HETATM   20  C   UNL     1      43.860 -19.412   2.177  1.00  0.00     0.003 A 
HETATM   21  C   UNL     1      43.866 -18.377   3.115  1.00  0.00     0.037 A 
ENDBRANCH  15  16
ENDBRANCH  12  15
ENDBRANCH   7   9
ENDBRANCH   1   7
BRANCH   3  22
HETATM   22  N   UNL     1      39.067 -10.543   8.396  1.00  0.00    -0.270 NA
HETATM   23  H   UNL     1      39.056  -9.537   8.269  1.00  0.00     0.127 HD
HETATM   24  H   UNL     1      38.287 -10.914   8.922  1.00  0.00     0.127 HD
ENDBRANCH   3  22
BRANCH   5  25
HETATM   25  C   UNL     1      39.052 -10.399   3.662  1.00  0.00     0.316 C 
BRANCH  25  26
HETATM   26  N   UNL     1      39.370 -11.181   2.372  1.00  0.00    -0.061 N 
HETATM   27  H   UNL     1      39.277 -10.489   1.616  1.00  0.00     0.280 HD
HETATM   28  C   UNL     1      40.805 -11.700   2.347  1.00  0.00     0.255 C 
HETATM   29  C   UNL     1      41.093 -12.390   0.992  1.00  0.00     0.152 C 
HETATM   30  N   UNL     1      40.080 -13.421   0.643  1.00  0.00    -0.364 N 
HETATM   31  C   UNL     1      38.669 -12.976   0.748  1.00  0.00     0.152 C 
HETATM   32  C   UNL     1      38.370 -12.301   2.111  1.00  0.00     0.255 C 
BRANCH  30  33
HETATM   33  C   UNL     1      40.351 -14.759   0.863  1.00  0.00     0.102 A 
HETATM   34  N   UNL     1      40.997 -15.433  -0.107  1.00  0.00    -0.352 N 
HETATM   35  H   UNL     1      41.288 -14.904  -0.926  1.00  0.00     0.166 HD
HETATM   36  C   UNL     1      41.344 -16.725  -0.021  1.00  0.00     0.089 A 
HETATM   37  C   UNL     1      41.042 -17.449   1.121  1.00  0.00     0.017 A 
HETATM   38  C   UNL     1      40.396 -16.804   2.166  1.00  0.00     0.005 A 
HETATM   39  C   UNL     1      40.057 -15.456   2.042  1.00  0.00     0.048 A 
ENDBRANCH  30  33
ENDBRANCH  25  26
ENDBRANCH   5  25
TORSDOF 8
ENDMDL
