MODEL 1
REMARK VINA RESULT:      -9.5      0.000      0.000
REMARK  6 active torsions:
REMARK  status: ('A' for Active; 'I' for Inactive)
REMARK    1  A    between atoms: C_8  and  C_9 
REMARK    2  A    between atoms: N_10  and  N_11 
REMARK    3  A    between atoms: C_22  and  C_23 
REMARK       I    between atoms: C_23  and  N_24 
REMARK    4  A    between atoms: N_24  and  C_25 
REMARK    5  A    between atoms: C_25  and  C_26 
REMARK    6  A    between atoms: C_34  and  N_35 
ROOT
HETATM    1  N   UNL     1      40.411 -14.456   3.416  1.00  0.00    -0.197 N 
HETATM    2  C   UNL     1      40.831 -13.561   2.451  1.00  0.00     0.183 A 
HETATM    3  C   UNL     1      41.495 -14.288   1.470  1.00  0.00     0.125 A 
HETATM    4  N   UNL     1      42.060 -13.666   0.403  1.00  0.00    -0.242 NA
HETATM    5  C   UNL     1      41.914 -12.333   0.381  1.00  0.00     0.086 A 
HETATM    6  C   UNL     1      41.223 -11.617   1.395  1.00  0.00     0.088 A 
HETATM    7  N   UNL     1      40.667 -12.217   2.459  1.00  0.00    -0.225 NA
HETATM    8  C   UNL     1      42.460 -11.630  -0.684  1.00  0.00     0.034 A 
HETATM    9  C   UNL     1      42.346 -10.241  -0.780  1.00  0.00     0.002 A 
HETATM   10  C   UNL     1      41.672  -9.542   0.210  1.00  0.00     0.002 A 
HETATM   11  C   UNL     1      41.119 -10.236   1.287  1.00  0.00     0.034 A 
HETATM   12  C   UNL     1      41.424 -15.667   1.805  1.00  0.00     0.110 A 
HETATM   13  C   UNL     1      40.687 -15.749   2.980  1.00  0.00     0.143 A 
ENDROOT
BRANCH   1  14
HETATM   14  N   UNL     1      39.751 -14.188   4.577  1.00  0.00    -0.176 NA
HETATM   15  C   UNL     1      40.459 -13.978   5.649  1.00  0.00     0.153 C 
BRANCH  15  16
HETATM   16  C   UNL     1      41.871 -14.222   5.915  1.00  0.00     0.011 A 
HETATM   17  C   UNL     1      42.428 -15.479   6.345  1.00  0.00     0.004 A 
HETATM   18  C   UNL     1      41.881 -16.744   6.649  1.00  0.00     0.014 A 
HETATM   19  C   UNL     1      43.811 -15.322   6.447  1.00  0.00     0.043 A 
HETATM   20  C   UNL     1      42.727 -17.794   7.030  1.00  0.00     0.001 A 
HETATM   21  C   UNL     1      44.102 -17.599   7.123  1.00  0.00     0.002 A 
HETATM   22  C   UNL     1      44.671 -16.355   6.839  1.00  0.00     0.030 A 
HETATM   23  N   UNL     1      44.096 -14.025   6.097  1.00  0.00    -0.364 N 
HETATM   24  H   UNL     1      45.023 -13.624   6.083  1.00  0.00     0.165 HD
HETATM   25  C   UNL     1      42.950 -13.378   5.716  1.00  0.00     0.102 A 
ENDBRANCH  15  16
ENDBRANCH   1  14
BRANCH  13  26
HETATM   26  N   UNL     1      40.314 -16.821   3.740  1.00  0.00    -0.383 N 
HETATM   27  H   UNL     1      40.814 -17.701   3.622  1.00  0.00     0.157 HD
HETATM   28  H   UNL     1      40.145 -16.624   4.731  1.00  0.00     0.157 HD
ENDBRANCH  13  26
BRANCH  12  29
HETATM   29  C   UNL     1      42.021 -16.775   1.081  1.00  0.00     0.258 C 
HETATM   30  N   UNL     1      42.762 -17.629   1.867  1.00  0.00    -0.352 N 
HETATM   31  H   UNL     1      42.832 -17.413   2.856  1.00  0.00     0.163 HD
HETATM   32  O   UNL     1      41.917 -16.909  -0.133  1.00  0.00    -0.267 OA
BRANCH  30  33
HETATM   33  C   UNL     1      43.634 -18.619   1.289  1.00  0.00     0.161 C 
BRANCH  33  34
HETATM   34  C   UNL     1      44.014 -19.691   2.278  1.00  0.00    -0.040 A 
HETATM   35  C   UNL     1      44.309 -19.346   3.607  1.00  0.00     0.012 A 
HETATM   36  C   UNL     1      44.640 -20.331   4.539  1.00  0.00     0.043 A 
HETATM   37  C   UNL     1      44.683 -21.662   4.143  1.00  0.00     0.116 A 
HETATM   38  F   UNL     1      45.000 -22.606   5.037  1.00  0.00    -0.206 F 
HETATM   39  C   UNL     1      44.398 -22.027   2.833  1.00  0.00     0.043 A 
HETATM   40  C   UNL     1      44.059 -21.045   1.901  1.00  0.00     0.012 A 
ENDBRANCH  33  34
ENDBRANCH  30  33
ENDBRANCH  12  29
TORSDOF 6
ENDMDL
MODEL 2
REMARK VINA RESULT:      -9.3      1.543      5.358
REMARK  6 active torsions:
REMARK  status: ('A' for Active; 'I' for Inactive)
REMARK    1  A    between atoms: C_8  and  C_9 
REMARK    2  A    between atoms: N_10  and  N_11 
REMARK    3  A    between atoms: C_22  and  C_23 
REMARK       I    between atoms: C_23  and  N_24 
REMARK    4  A    between atoms: N_24  and  C_25 
REMARK    5  A    between atoms: C_25  and  C_26 
REMARK    6  A    between atoms: C_34  and  N_35 
ROOT
HETATM    1  N   UNL     1      40.082 -14.224   2.959  1.00  0.00    -0.197 N 
HETATM    2  C   UNL     1      41.138 -14.295   3.848  1.00  0.00     0.183 A 
HETATM    3  C   UNL     1      41.809 -15.487   3.603  1.00  0.00     0.125 A 
HETATM    4  N   UNL     1      42.879 -15.854   4.355  1.00  0.00    -0.242 NA
HETATM    5  C   UNL     1      43.220 -14.983   5.316  1.00  0.00     0.086 A 
HETATM    6  C   UNL     1      42.519 -13.768   5.539  1.00  0.00     0.088 A 
HETATM    7  N   UNL     1      41.456 -13.396   4.809  1.00  0.00    -0.225 NA
HETATM    8  C   UNL     1      44.310 -15.288   6.122  1.00  0.00     0.034 A 
HETATM    9  C   UNL     1      44.729 -14.430   7.141  1.00  0.00     0.002 A 
HETATM   10  C   UNL     1      44.046 -13.243   7.358  1.00  0.00     0.002 A 
HETATM   11  C   UNL     1      42.948 -12.925   6.557  1.00  0.00     0.034 A 
HETATM   12  C   UNL     1      41.192 -16.133   2.497  1.00  0.00     0.110 A 
HETATM   13  C   UNL     1      40.168 -15.295   2.074  1.00  0.00     0.143 A 
ENDROOT
BRANCH   1  14
HETATM   14  N   UNL     1      39.135 -13.250   2.860  1.00  0.00    -0.176 NA
HETATM   15  C   UNL     1      39.324 -12.299   1.992  1.00  0.00     0.153 C 
BRANCH  15  16
HETATM   16  C   UNL     1      40.517 -11.923   1.242  1.00  0.00     0.011 A 
HETATM   17  C   UNL     1      40.755 -12.230  -0.144  1.00  0.00     0.004 A 
HETATM   18  C   UNL     1      40.034 -12.932  -1.135  1.00  0.00     0.014 A 
HETATM   19  C   UNL     1      41.980 -11.665  -0.503  1.00  0.00     0.043 A 
HETATM   20  C   UNL     1      40.554 -13.033  -2.431  1.00  0.00     0.001 A 
HETATM   21  C   UNL     1      41.780 -12.458  -2.752  1.00  0.00     0.002 A 
HETATM   22  C   UNL     1      42.521 -11.766  -1.791  1.00  0.00     0.030 A 
HETATM   23  N   UNL     1      42.476 -11.037   0.613  1.00  0.00    -0.364 N 
HETATM   24  H   UNL     1      43.356 -10.542   0.650  1.00  0.00     0.165 HD
HETATM   25  C   UNL     1      41.579 -11.132   1.644  1.00  0.00     0.102 A 
ENDBRANCH  15  16
ENDBRANCH   1  14
BRANCH  13  26
HETATM   26  N   UNL     1      39.261 -15.417   1.060  1.00  0.00    -0.383 N 
HETATM   27  H   UNL     1      38.646 -16.229   1.049  1.00  0.00     0.157 HD
HETATM   28  H   UNL     1      38.747 -14.563   0.820  1.00  0.00     0.157 HD
ENDBRANCH  13  26
BRANCH  12  29
HETATM   29  C   UNL     1      41.542 -17.423   1.930  1.00  0.00     0.258 C 
HETATM   30  N   UNL     1      42.758 -17.912   2.351  1.00  0.00    -0.352 N 
HETATM   31  H   UNL     1      43.294 -17.342   2.997  1.00  0.00     0.163 HD
HETATM   32  O   UNL     1      40.839 -18.002   1.109  1.00  0.00    -0.267 OA
BRANCH  30  33
HETATM   33  C   UNL     1      43.384 -19.035   1.701  1.00  0.00     0.161 C 
BRANCH  33  34
HETATM   34  C   UNL     1      43.931 -20.034   2.688  1.00  0.00    -0.040 A 
HETATM   35  C   UNL     1      44.227 -19.632   4.002  1.00  0.00     0.012 A 
HETATM   36  C   UNL     1      44.712 -20.550   4.932  1.00  0.00     0.043 A 
HETATM   37  C   UNL     1      44.907 -21.872   4.553  1.00  0.00     0.116 A 
HETATM   38  F   UNL     1      45.373 -22.754   5.446  1.00  0.00    -0.206 F 
HETATM   39  C   UNL     1      44.624 -22.293   3.259  1.00  0.00     0.043 A 
HETATM   40  C   UNL     1      44.131 -21.377   2.327  1.00  0.00     0.012 A 
ENDBRANCH  33  34
ENDBRANCH  30  33
ENDBRANCH  12  29
TORSDOF 6
ENDMDL
MODEL 3
REMARK VINA RESULT:      -9.2      1.871      2.655
REMARK  6 active torsions:
REMARK  status: ('A' for Active; 'I' for Inactive)
REMARK    1  A    between atoms: C_8  and  C_9 
REMARK    2  A    between atoms: N_10  and  N_11 
REMARK    3  A    between atoms: C_22  and  C_23 
REMARK       I    between atoms: C_23  and  N_24 
REMARK    4  A    between atoms: N_24  and  C_25 
REMARK    5  A    between atoms: C_25  and  C_26 
REMARK    6  A    between atoms: C_34  and  N_35 
ROOT
HETATM    1  N   UNL     1      39.358 -13.262   1.283  1.00  0.00    -0.197 N 
HETATM    2  C   UNL     1      40.143 -12.569   0.382  1.00  0.00     0.183 A 
HETATM    3  C   UNL     1      41.027 -13.479  -0.186  1.00  0.00     0.125 A 
HETATM    4  N   UNL     1      41.960 -13.077  -1.088  1.00  0.00    -0.242 NA
HETATM    5  C   UNL     1      41.941 -11.768  -1.376  1.00  0.00     0.086 A 
HETATM    6  C   UNL     1      41.021 -10.862  -0.785  1.00  0.00     0.088 A 
HETATM    7  N   UNL     1      40.099 -11.243   0.114  1.00  0.00    -0.225 NA
HETATM    8  C   UNL     1      42.863 -11.285  -2.296  1.00  0.00     0.034 A 
HETATM    9  C   UNL     1      42.903  -9.935  -2.652  1.00  0.00     0.002 A 
HETATM   10  C   UNL     1      42.004  -9.050  -2.075  1.00  0.00     0.002 A 
HETATM   11  C   UNL     1      41.074  -9.522  -1.147  1.00  0.00     0.034 A 
HETATM   12  C   UNL     1      40.735 -14.772   0.329  1.00  0.00     0.110 A 
HETATM   13  C   UNL     1      39.651 -14.619   1.184  1.00  0.00     0.143 A 
ENDROOT
BRANCH   1  14
HETATM   14  N   UNL     1      38.381 -12.769   2.095  1.00  0.00    -0.176 NA
HETATM   15  C   UNL     1      38.740 -12.181   3.198  1.00  0.00     0.153 C 
BRANCH  15  16
HETATM   16  C   UNL     1      40.026 -12.158   3.885  1.00  0.00     0.011 A 
HETATM   17  C   UNL     1      40.599 -13.264   4.609  1.00  0.00     0.004 A 
HETATM   18  C   UNL     1      40.170 -14.578   4.898  1.00  0.00     0.014 A 
HETATM   19  C   UNL     1      41.850 -12.864   5.081  1.00  0.00     0.043 A 
HETATM   20  C   UNL     1      41.001 -15.434   5.631  1.00  0.00     0.001 A 
HETATM   21  C   UNL     1      42.242 -14.999   6.088  1.00  0.00     0.002 A 
HETATM   22  C   UNL     1      42.689 -13.701   5.827  1.00  0.00     0.030 A 
HETATM   23  N   UNL     1      42.041 -11.569   4.668  1.00  0.00    -0.364 N 
HETATM   24  H   UNL     1      42.863 -11.017   4.870  1.00  0.00     0.165 HD
HETATM   25  C   UNL     1      40.984 -11.159   3.899  1.00  0.00     0.102 A 
ENDBRANCH  15  16
ENDBRANCH   1  14
BRANCH  13  26
HETATM   26  N   UNL     1      38.962 -15.524   1.940  1.00  0.00    -0.383 N 
HETATM   27  H   UNL     1      39.149 -16.517   1.806  1.00  0.00     0.157 HD
HETATM   28  H   UNL     1      38.879 -15.297   2.936  1.00  0.00     0.157 HD
ENDBRANCH  13  26
BRANCH  12  29
HETATM   29  C   UNL     1      41.440 -16.008   0.040  1.00  0.00     0.258 C 
HETATM   30  N   UNL     1      42.244 -16.451   1.065  1.00  0.00    -0.352 N 
HETATM   31  H   UNL     1      42.281 -15.889   1.909  1.00  0.00     0.163 HD
HETATM   32  O   UNL     1      41.365 -16.579  -1.043  1.00  0.00    -0.267 OA
BRANCH  30  33
HETATM   33  C   UNL     1      43.211 -17.501   0.865  1.00  0.00     0.161 C 
BRANCH  33  34
HETATM   34  C   UNL     1      43.585 -18.186   2.154  1.00  0.00    -0.040 A 
HETATM   35  C   UNL     1      44.003 -19.527   2.140  1.00  0.00     0.012 A 
HETATM   36  C   UNL     1      44.374 -20.167   3.322  1.00  0.00     0.043 A 
HETATM   37  C   UNL     1      44.323 -19.471   4.524  1.00  0.00     0.116 A 
HETATM   38  F   UNL     1      44.679 -20.085   5.658  1.00  0.00    -0.206 F 
HETATM   39  C   UNL     1      43.910 -18.144   4.563  1.00  0.00     0.043 A 
HETATM   40  C   UNL     1      43.546 -17.499   3.380  1.00  0.00     0.012 A 
ENDBRANCH  33  34
ENDBRANCH  30  33
ENDBRANCH  12  29
TORSDOF 6
ENDMDL
MODEL 4
REMARK VINA RESULT:      -9.1      2.375      5.447
REMARK  6 active torsions:
REMARK  status: ('A' for Active; 'I' for Inactive)
REMARK    1  A    between atoms: C_8  and  C_9 
REMARK    2  A    between atoms: N_10  and  N_11 
REMARK    3  A    between atoms: C_22  and  C_23 
REMARK       I    between atoms: C_23  and  N_24 
REMARK    4  A    between atoms: N_24  and  C_25 
REMARK    5  A    between atoms: C_25  and  C_26 
REMARK    6  A    between atoms: C_34  and  N_35 
ROOT
HETATM    1  N   UNL     1      39.099 -13.951   2.096  1.00  0.00    -0.197 N 
HETATM    2  C   UNL     1      39.633 -12.844   2.727  1.00  0.00     0.183 A 
HETATM    3  C   UNL     1      40.452 -13.304   3.752  1.00  0.00     0.125 A 
HETATM    4  N   UNL     1      41.088 -12.437   4.581  1.00  0.00    -0.242 NA
HETATM    5  C   UNL     1      40.869 -11.139   4.319  1.00  0.00     0.086 A 
HETATM    6  C   UNL     1      40.032 -10.698   3.260  1.00  0.00     0.088 A 
HETATM    7  N   UNL     1      39.391 -11.544   2.438  1.00  0.00    -0.225 NA
HETATM    8  C   UNL     1      41.492 -10.193   5.122  1.00  0.00     0.034 A 
HETATM    9  C   UNL     1      41.317  -8.824   4.911  1.00  0.00     0.002 A 
HETATM   10  C   UNL     1      40.501  -8.393   3.875  1.00  0.00     0.002 A 
HETATM   11  C   UNL     1      39.866  -9.333   3.062  1.00  0.00     0.034 A 
HETATM   12  C   UNL     1      40.472 -14.725   3.709  1.00  0.00     0.110 A 
HETATM   13  C   UNL     1      39.681 -15.097   2.630  1.00  0.00     0.143 A 
ENDROOT
BRANCH   1  14
HETATM   14  N   UNL     1      38.215 -13.978   1.059  1.00  0.00    -0.176 NA
HETATM   15  C   UNL     1      38.691 -14.055  -0.149  1.00  0.00     0.153 C 
BRANCH  15  16
HETATM   16  C   UNL     1      40.048 -13.866  -0.647  1.00  0.00     0.011 A 
HETATM   17  C   UNL     1      40.662 -12.591  -0.915  1.00  0.00     0.004 A 
HETATM   18  C   UNL     1      40.225 -11.251  -0.829  1.00  0.00     0.014 A 
HETATM   19  C   UNL     1      41.973 -12.827  -1.333  1.00  0.00     0.043 A 
HETATM   20  C   UNL     1      41.106 -10.211  -1.152  1.00  0.00     0.001 A 
HETATM   21  C   UNL     1      42.405 -10.485  -1.568  1.00  0.00     0.002 A 
HETATM   22  C   UNL     1      42.863 -11.801  -1.673  1.00  0.00     0.030 A 
HETATM   23  N   UNL     1      42.159 -14.187  -1.326  1.00  0.00    -0.364 N 
HETATM   24  H   UNL     1      43.018 -14.651  -1.589  1.00  0.00     0.165 HD
HETATM   25  C   UNL     1      41.035 -14.814  -0.856  1.00  0.00     0.102 A 
ENDBRANCH  15  16
ENDBRANCH   1  14
BRANCH  13  26
HETATM   26  N   UNL     1      39.354 -16.325   2.130  1.00  0.00    -0.383 N 
HETATM   27  H   UNL     1      40.102 -16.988   1.934  1.00  0.00     0.157 HD
HETATM   28  H   UNL     1      38.559 -16.790   2.581  1.00  0.00     0.157 HD
ENDBRANCH  13  26
BRANCH  12  29
HETATM   29  C   UNL     1      41.163 -15.618   4.622  1.00  0.00     0.258 C 
HETATM   30  N   UNL     1      42.439 -15.951   4.227  1.00  0.00    -0.352 N 
HETATM   31  H   UNL     1      42.775 -15.563   3.353  1.00  0.00     0.163 HD
HETATM   32  O   UNL     1      40.637 -16.075   5.631  1.00  0.00    -0.267 OA
BRANCH  30  33
HETATM   33  C   UNL     1      43.168 -17.021   4.861  1.00  0.00     0.161 C 
BRANCH  33  34
HETATM   34  C   UNL     1      43.409 -18.178   3.926  1.00  0.00    -0.040 A 
HETATM   35  C   UNL     1      44.254 -19.231   4.317  1.00  0.00     0.012 A 
HETATM   36  C   UNL     1      44.467 -20.319   3.472  1.00  0.00     0.043 A 
HETATM   37  C   UNL     1      43.842 -20.358   2.232  1.00  0.00     0.116 A 
HETATM   38  F   UNL     1      44.047 -21.403   1.421  1.00  0.00    -0.206 F 
HETATM   39  C   UNL     1      43.003 -19.328   1.823  1.00  0.00     0.043 A 
HETATM   40  C   UNL     1      42.782 -18.241   2.670  1.00  0.00     0.012 A 
ENDBRANCH  33  34
ENDBRANCH  30  33
ENDBRANCH  12  29
TORSDOF 6
ENDMDL
MODEL 5
REMARK VINA RESULT:      -9.0      2.715      5.624
REMARK  6 active torsions:
REMARK  status: ('A' for Active; 'I' for Inactive)
REMARK    1  A    between atoms: C_8  and  C_9 
REMARK    2  A    between atoms: N_10  and  N_11 
REMARK    3  A    between atoms: C_22  and  C_23 
REMARK       I    between atoms: C_23  and  N_24 
REMARK    4  A    between atoms: N_24  and  C_25 
REMARK    5  A    between atoms: C_25  and  C_26 
REMARK    6  A    between atoms: C_34  and  N_35 
ROOT
HETATM    1  N   UNL     1      39.194 -14.379   2.044  1.00  0.00    -0.197 N 
HETATM    2  C   UNL     1      39.550 -13.323   2.860  1.00  0.00     0.183 A 
HETATM    3  C   UNL     1      40.807 -13.605   3.381  1.00  0.00     0.125 A 
HETATM    4  N   UNL     1      41.406 -12.758   4.258  1.00  0.00    -0.242 NA
HETATM    5  C   UNL     1      40.698 -11.658   4.556  1.00  0.00     0.086 A 
HETATM    6  C   UNL     1      39.417 -11.393   4.003  1.00  0.00     0.088 A 
HETATM    7  N   UNL     1      38.810 -12.224   3.141  1.00  0.00    -0.225 NA
HETATM    8  C   UNL     1      41.250 -10.743   5.443  1.00  0.00     0.034 A 
HETATM    9  C   UNL     1      40.577  -9.572   5.799  1.00  0.00     0.002 A 
HETATM   10  C   UNL     1      39.327  -9.312   5.258  1.00  0.00     0.002 A 
HETATM   11  C   UNL     1      38.759 -10.225   4.367  1.00  0.00     0.034 A 
HETATM   12  C   UNL     1      41.262 -14.830   2.822  1.00  0.00     0.110 A 
HETATM   13  C   UNL     1      40.273 -15.253   1.943  1.00  0.00     0.143 A 
ENDROOT
BRANCH   1  14
HETATM   14  N   UNL     1      38.031 -14.549   1.354  1.00  0.00    -0.176 NA
HETATM   15  C   UNL     1      37.946 -14.035   0.162  1.00  0.00     0.153 C 
BRANCH  15  16
HETATM   16  C   UNL     1      38.797 -13.063  -0.514  1.00  0.00     0.011 A 
HETATM   17  C   UNL     1      39.808 -13.383  -1.489  1.00  0.00     0.004 A 
HETATM   18  C   UNL     1      40.293 -14.587  -2.044  1.00  0.00     0.014 A 
HETATM   19  C   UNL     1      40.369 -12.185  -1.932  1.00  0.00     0.043 A 
HETATM   20  C   UNL     1      41.300 -14.547  -3.016  1.00  0.00     0.001 A 
HETATM   21  C   UNL     1      41.838 -13.333  -3.432  1.00  0.00     0.002 A 
HETATM   22  C   UNL     1      41.386 -12.126  -2.893  1.00  0.00     0.030 A 
HETATM   23  N   UNL     1      39.734 -11.170  -1.261  1.00  0.00    -0.364 N 
HETATM   24  H   UNL     1      39.938 -10.187  -1.377  1.00  0.00     0.165 HD
HETATM   25  C   UNL     1      38.749 -11.681  -0.457  1.00  0.00     0.102 A 
ENDBRANCH  15  16
ENDBRANCH   1  14
BRANCH  13  26
HETATM   26  N   UNL     1      40.187 -16.356   1.143  1.00  0.00    -0.383 N 
HETATM   27  H   UNL     1      41.047 -16.776   0.795  1.00  0.00     0.157 HD
HETATM   28  H   UNL     1      39.524 -17.075   1.449  1.00  0.00     0.157 HD
ENDBRANCH  13  26
BRANCH  12  29
HETATM   29  C   UNL     1      42.504 -15.520   3.121  1.00  0.00     0.258 C 
HETATM   30  N   UNL     1      42.341 -16.699   3.812  1.00  0.00    -0.352 N 
HETATM   31  H   UNL     1      41.395 -16.974   4.054  1.00  0.00     0.163 HD
HETATM   32  O   UNL     1      43.605 -15.065   2.828  1.00  0.00    -0.267 OA
BRANCH  30  33
HETATM   33  C   UNL     1      43.459 -17.376   4.420  1.00  0.00     0.161 C 
BRANCH  33  34
HETATM   34  C   UNL     1      43.746 -18.703   3.766  1.00  0.00    -0.040 A 
HETATM   35  C   UNL     1      43.230 -18.982   2.490  1.00  0.00     0.012 A 
HETATM   36  C   UNL     1      43.507 -20.197   1.862  1.00  0.00     0.043 A 
HETATM   37  C   UNL     1      44.297 -21.138   2.510  1.00  0.00     0.116 A 
HETATM   38  F   UNL     1      44.562 -22.304   1.908  1.00  0.00    -0.206 F 
HETATM   39  C   UNL     1      44.817 -20.886   3.774  1.00  0.00     0.043 A 
HETATM   40  C   UNL     1      44.547 -19.668   4.401  1.00  0.00     0.012 A 
ENDBRANCH  33  34
ENDBRANCH  30  33
ENDBRANCH  12  29
TORSDOF 6
ENDMDL
MODEL 6
REMARK VINA RESULT:      -8.9      3.163      7.473
REMARK  6 active torsions:
REMARK  status: ('A' for Active; 'I' for Inactive)
REMARK    1  A    between atoms: C_8  and  C_9 
REMARK    2  A    between atoms: N_10  and  N_11 
REMARK    3  A    between atoms: C_22  and  C_23 
REMARK       I    between atoms: C_23  and  N_24 
REMARK    4  A    between atoms: N_24  and  C_25 
REMARK    5  A    between atoms: C_25  and  C_26 
REMARK    6  A    between atoms: C_34  and  N_35 
ROOT
HETATM    1  N   UNL     1      43.512 -15.693   3.586  1.00  0.00    -0.197 N 
HETATM    2  C   UNL     1      43.562 -17.032   3.250  1.00  0.00     0.183 A 
HETATM    3  C   UNL     1      42.750 -17.212   2.136  1.00  0.00     0.125 A 
HETATM    4  N   UNL     1      42.569 -18.445   1.596  1.00  0.00    -0.242 NA
HETATM    5  C   UNL     1      43.231 -19.436   2.211  1.00  0.00     0.086 A 
HETATM    6  C   UNL     1      44.059 -19.220   3.345  1.00  0.00     0.088 A 
HETATM    7  N   UNL     1      44.242 -18.010   3.894  1.00  0.00    -0.225 NA
HETATM    8  C   UNL     1      43.098 -20.724   1.710  1.00  0.00     0.034 A 
HETATM    9  C   UNL     1      43.759 -21.808   2.293  1.00  0.00     0.002 A 
HETATM   10  C   UNL     1      44.569 -21.598   3.400  1.00  0.00     0.002 A 
HETATM   11  C   UNL     1      44.709 -20.308   3.915  1.00  0.00     0.034 A 
HETATM   12  C   UNL     1      42.242 -15.945   1.739  1.00  0.00     0.110 A 
HETATM   13  C   UNL     1      42.785 -15.012   2.613  1.00  0.00     0.143 A 
ENDROOT
BRANCH   1  14
HETATM   14  N   UNL     1      44.123 -15.068   4.631  1.00  0.00    -0.176 NA
HETATM   15  C   UNL     1      43.387 -14.696   5.637  1.00  0.00     0.153 C 
BRANCH  15  16
HETATM   16  C   UNL     1      41.938 -14.593   5.766  1.00  0.00     0.011 A 
HETATM   17  C   UNL     1      41.189 -13.364   5.733  1.00  0.00     0.004 A 
HETATM   18  C   UNL     1      41.538 -12.002   5.610  1.00  0.00     0.014 A 
HETATM   19  C   UNL     1      39.835 -13.686   5.842  1.00  0.00     0.043 A 
HETATM   20  C   UNL     1      40.533 -11.026   5.592  1.00  0.00     0.001 A 
HETATM   21  C   UNL     1      39.193 -11.385   5.706  1.00  0.00     0.002 A 
HETATM   22  C   UNL     1      38.817 -12.723   5.840  1.00  0.00     0.030 A 
HETATM   23  N   UNL     1      39.752 -15.053   5.939  1.00  0.00    -0.364 N 
HETATM   24  H   UNL     1      38.890 -15.572   6.034  1.00  0.00     0.165 HD
HETATM   25  C   UNL     1      41.000 -15.609   5.831  1.00  0.00     0.102 A 
ENDBRANCH  15  16
ENDBRANCH   1  14
BRANCH  13  26
HETATM   26  N   UNL     1      42.639 -13.656   2.693  1.00  0.00    -0.383 N 
HETATM   27  H   UNL     1      41.924 -13.277   3.312  1.00  0.00     0.157 HD
HETATM   28  H   UNL     1      43.509 -13.120   2.765  1.00  0.00     0.157 HD
ENDBRANCH  13  26
BRANCH  12  29
HETATM   29  C   UNL     1      41.319 -15.675   0.651  1.00  0.00     0.258 C 
HETATM   30  N   UNL     1      41.931 -15.374  -0.545  1.00  0.00    -0.352 N 
HETATM   31  H   UNL     1      42.945 -15.359  -0.562  1.00  0.00     0.163 HD
HETATM   32  O   UNL     1      40.102 -15.665   0.798  1.00  0.00    -0.267 OA
BRANCH  30  33
HETATM   33  C   UNL     1      41.190 -14.825  -1.653  1.00  0.00     0.161 C 
BRANCH  33  34
HETATM   34  C   UNL     1      41.704 -13.471  -2.067  1.00  0.00    -0.040 A 
HETATM   35  C   UNL     1      42.209 -12.586  -1.100  1.00  0.00     0.012 A 
HETATM   36  C   UNL     1      42.709 -11.338  -1.472  1.00  0.00     0.043 A 
HETATM   37  C   UNL     1      42.701 -10.968  -2.811  1.00  0.00     0.116 A 
HETATM   38  F   UNL     1      43.181  -9.771  -3.168  1.00  0.00    -0.206 F 
HETATM   39  C   UNL     1      42.205 -11.825  -3.786  1.00  0.00     0.043 A 
HETATM   40  C   UNL     1      41.711 -13.078  -3.417  1.00  0.00     0.012 A 
ENDBRANCH  33  34
ENDBRANCH  30  33
ENDBRANCH  12  29
TORSDOF 6
ENDMDL
MODEL 7
REMARK VINA RESULT:      -8.9      3.479      6.736
REMARK  6 active torsions:
REMARK  status: ('A' for Active; 'I' for Inactive)
REMARK    1  A    between atoms: C_8  and  C_9 
REMARK    2  A    between atoms: N_10  and  N_11 
REMARK    3  A    between atoms: C_22  and  C_23 
REMARK       I    between atoms: C_23  and  N_24 
REMARK    4  A    between atoms: N_24  and  C_25 
REMARK    5  A    between atoms: C_25  and  C_26 
REMARK    6  A    between atoms: C_34  and  N_35 
ROOT
HETATM    1  N   UNL     1      41.410 -13.767  -0.522  1.00  0.00    -0.197 N 
HETATM    2  C   UNL     1      40.534 -12.888   0.085  1.00  0.00     0.183 A 
HETATM    3  C   UNL     1      39.990 -13.537   1.187  1.00  0.00     0.125 A 
HETATM    4  N   UNL     1      39.055 -12.929   1.964  1.00  0.00    -0.242 NA
HETATM    5  C   UNL     1      38.728 -11.685   1.587  1.00  0.00     0.086 A 
HETATM    6  C   UNL     1      39.307 -11.044   0.459  1.00  0.00     0.088 A 
HETATM    7  N   UNL     1      40.225 -11.634  -0.322  1.00  0.00    -0.225 NA
HETATM    8  C   UNL     1      37.783 -10.998   2.338  1.00  0.00     0.034 A 
HETATM    9  C   UNL     1      37.392  -9.698   2.012  1.00  0.00     0.002 A 
HETATM   10  C   UNL     1      37.958  -9.071   0.911  1.00  0.00     0.002 A 
HETATM   11  C   UNL     1      38.907  -9.751   0.146  1.00  0.00     0.034 A 
HETATM   12  C   UNL     1      40.592 -14.820   1.298  1.00  0.00     0.110 A 
HETATM   13  C   UNL     1      41.519 -14.909   0.267  1.00  0.00     0.143 A 
ENDROOT
BRANCH   1  14
HETATM   14  N   UNL     1      42.143 -13.572  -1.654  1.00  0.00    -0.176 NA
HETATM   15  C   UNL     1      41.585 -13.844  -2.798  1.00  0.00     0.153 C 
BRANCH  15  16
HETATM   16  C   UNL     1      40.363 -14.577  -3.106  1.00  0.00     0.011 A 
HETATM   17  C   UNL     1      39.089 -13.975  -3.404  1.00  0.00     0.004 A 
HETATM   18  C   UNL     1      38.621 -12.645  -3.470  1.00  0.00     0.014 A 
HETATM   19  C   UNL     1      38.187 -15.002  -3.688  1.00  0.00     0.043 A 
HETATM   20  C   UNL     1      37.288 -12.395  -3.820  1.00  0.00     0.001 A 
HETATM   21  C   UNL     1      36.416 -13.445  -4.093  1.00  0.00     0.002 A 
HETATM   22  C   UNL     1      36.848 -14.772  -4.026  1.00  0.00     0.030 A 
HETATM   23  N   UNL     1      38.873 -16.185  -3.568  1.00  0.00    -0.364 N 
HETATM   24  H   UNL     1      38.470 -17.101  -3.712  1.00  0.00     0.165 HD
HETATM   25  C   UNL     1      40.191 -15.939  -3.283  1.00  0.00     0.102 A 
ENDBRANCH  15  16
ENDBRANCH   1  14
BRANCH  13  26
HETATM   26  N   UNL     1      42.373 -15.911  -0.095  1.00  0.00    -0.383 N 
HETATM   27  H   UNL     1      43.079 -16.218   0.573  1.00  0.00     0.157 HD
HETATM   28  H   UNL     1      41.941 -16.712  -0.568  1.00  0.00     0.157 HD
ENDBRANCH  13  26
BRANCH  12  29
HETATM   29  C   UNL     1      40.288 -15.847   2.278  1.00  0.00     0.258 C 
HETATM   30  N   UNL     1      41.208 -15.944   3.296  1.00  0.00    -0.352 N 
HETATM   31  H   UNL     1      42.003 -15.314   3.272  1.00  0.00     0.163 HD
HETATM   32  O   UNL     1      39.321 -16.595   2.179  1.00  0.00    -0.267 OA
BRANCH  30  33
HETATM   33  C   UNL     1      41.215 -17.066   4.201  1.00  0.00     0.161 C 
BRANCH  33  34
HETATM   34  C   UNL     1      42.303 -18.056   3.875  1.00  0.00    -0.040 A 
HETATM   35  C   UNL     1      42.503 -18.466   2.546  1.00  0.00     0.012 A 
HETATM   36  C   UNL     1      43.522 -19.364   2.227  1.00  0.00     0.043 A 
HETATM   37  C   UNL     1      44.340 -19.859   3.234  1.00  0.00     0.116 A 
HETATM   38  F   UNL     1      45.317 -20.721   2.927  1.00  0.00    -0.206 F 
HETATM   39  C   UNL     1      44.160 -19.470   4.556  1.00  0.00     0.043 A 
HETATM   40  C   UNL     1      43.146 -18.566   4.878  1.00  0.00     0.012 A 
ENDBRANCH  33  34
ENDBRANCH  30  33
ENDBRANCH  12  29
TORSDOF 6
ENDMDL
MODEL 8
REMARK VINA RESULT:      -8.8      2.985      6.158
REMARK  6 active torsions:
REMARK  status: ('A' for Active; 'I' for Inactive)
REMARK    1  A    between atoms: C_8  and  C_9 
REMARK    2  A    between atoms: N_10  and  N_11 
REMARK    3  A    between atoms: C_22  and  C_23 
REMARK       I    between atoms: C_23  and  N_24 
REMARK    4  A    between atoms: N_24  and  C_25 
REMARK    5  A    between atoms: C_25  and  C_26 
REMARK    6  A    between atoms: C_34  and  N_35 
ROOT
HETATM    1  N   UNL     1      41.680 -13.196   0.631  1.00  0.00    -0.197 N 
HETATM    2  C   UNL     1      41.160 -12.522   1.719  1.00  0.00     0.183 A 
HETATM    3  C   UNL     1      40.661 -13.476   2.599  1.00  0.00     0.125 A 
HETATM    4  N   UNL     1      40.046 -13.107   3.753  1.00  0.00    -0.242 NA
HETATM    5  C   UNL     1      39.977 -11.784   3.960  1.00  0.00     0.086 A 
HETATM    6  C   UNL     1      40.502 -10.833   3.046  1.00  0.00     0.088 A 
HETATM    7  N   UNL     1      41.105 -11.181   1.899  1.00  0.00    -0.225 NA
HETATM    8  C   UNL     1      39.366 -11.333   5.123  1.00  0.00     0.034 A 
HETATM    9  C   UNL     1      39.259  -9.970   5.412  1.00  0.00     0.002 A 
HETATM   10  C   UNL     1      39.773  -9.041   4.520  1.00  0.00     0.002 A 
HETATM   11  C   UNL     1      40.387  -9.481   3.346  1.00  0.00     0.034 A 
HETATM   12  C   UNL     1      40.939 -14.766   2.071  1.00  0.00     0.110 A 
HETATM   13  C   UNL     1      41.633 -14.564   0.885  1.00  0.00     0.143 A 
ENDROOT
BRANCH   1  14
HETATM   14  N   UNL     1      42.241 -12.666  -0.492  1.00  0.00    -0.176 NA
HETATM   15  C   UNL     1      41.457 -12.370  -1.486  1.00  0.00     0.153 C 
BRANCH  15  16
HETATM   16  C   UNL     1      40.068 -12.733  -1.739  1.00  0.00     0.011 A 
HETATM   17  C   UNL     1      39.636 -13.849  -2.541  1.00  0.00     0.004 A 
HETATM   18  C   UNL     1      40.307 -14.840  -3.291  1.00  0.00     0.014 A 
HETATM   19  C   UNL     1      38.241 -13.888  -2.504  1.00  0.00     0.043 A 
HETATM   20  C   UNL     1      39.568 -15.825  -3.958  1.00  0.00     0.001 A 
HETATM   21  C   UNL     1      38.177 -15.830  -3.900  1.00  0.00     0.002 A 
HETATM   22  C   UNL     1      37.485 -14.856  -3.176  1.00  0.00     0.030 A 
HETATM   23  N   UNL     1      37.830 -12.841  -1.716  1.00  0.00    -0.364 N 
HETATM   24  H   UNL     1      36.865 -12.619  -1.512  1.00  0.00     0.165 HD
HETATM   25  C   UNL     1      38.917 -12.183  -1.202  1.00  0.00     0.102 A 
ENDBRANCH  15  16
ENDBRANCH   1  14
BRANCH  13  26
HETATM   26  N   UNL     1      42.143 -15.445  -0.025  1.00  0.00    -0.383 N 
HETATM   27  H   UNL     1      42.122 -15.196  -1.012  1.00  0.00     0.157 HD
HETATM   28  H   UNL     1      43.040 -15.873   0.228  1.00  0.00     0.157 HD
ENDBRANCH  13  26
BRANCH  12  29
HETATM   29  C   UNL     1      40.558 -16.045   2.642  1.00  0.00     0.258 C 
HETATM   30  N   UNL     1      40.975 -16.230   3.940  1.00  0.00    -0.352 N 
HETATM   31  H   UNL     1      41.506 -15.482   4.373  1.00  0.00     0.163 HD
HETATM   32  O   UNL     1      39.960 -16.905   2.005  1.00  0.00    -0.267 OA
BRANCH  30  33
HETATM   33  C   UNL     1      40.921 -17.524   4.572  1.00  0.00     0.161 C 
BRANCH  33  34
HETATM   34  C   UNL     1      42.240 -18.249   4.502  1.00  0.00    -0.040 A 
HETATM   35  C   UNL     1      42.928 -18.569   5.684  1.00  0.00     0.012 A 
HETATM   36  C   UNL     1      44.139 -19.260   5.635  1.00  0.00     0.043 A 
HETATM   37  C   UNL     1      44.668 -19.629   4.404  1.00  0.00     0.116 A 
HETATM   38  F   UNL     1      45.830 -20.292   4.358  1.00  0.00    -0.206 F 
HETATM   39  C   UNL     1      44.007 -19.322   3.221  1.00  0.00     0.043 A 
HETATM   40  C   UNL     1      42.791 -18.637   3.268  1.00  0.00     0.012 A 
ENDBRANCH  33  34
ENDBRANCH  30  33
ENDBRANCH  12  29
TORSDOF 6
ENDMDL
MODEL 9
REMARK VINA RESULT:      -8.7      2.559      5.985
REMARK  6 active torsions:
REMARK  status: ('A' for Active; 'I' for Inactive)
REMARK    1  A    between atoms: C_8  and  C_9 
REMARK    2  A    between atoms: N_10  and  N_11 
REMARK    3  A    between atoms: C_22  and  C_23 
REMARK       I    between atoms: C_23  and  N_24 
REMARK    4  A    between atoms: N_24  and  C_25 
REMARK    5  A    between atoms: C_25  and  C_26 
REMARK    6  A    between atoms: C_34  and  N_35 
ROOT
HETATM    1  N   UNL     1      39.894 -12.090   1.599  1.00  0.00    -0.197 N 
HETATM    2  C   UNL     1      39.992 -12.977   0.545  1.00  0.00     0.183 A 
HETATM    3  C   UNL     1      41.022 -13.863   0.842  1.00  0.00     0.125 A 
HETATM    4  N   UNL     1      41.382 -14.835  -0.036  1.00  0.00    -0.242 NA
HETATM    5  C   UNL     1      40.669 -14.864  -1.172  1.00  0.00     0.086 A 
HETATM    6  C   UNL     1      39.617 -13.950  -1.445  1.00  0.00     0.088 A 
HETATM    7  N   UNL     1      39.255 -12.980  -0.591  1.00  0.00    -0.225 NA
HETATM    8  C   UNL     1      40.977 -15.836  -2.115  1.00  0.00     0.034 A 
HETATM    9  C   UNL     1      40.277 -15.934  -3.320  1.00  0.00     0.002 A 
HETATM   10  C   UNL     1      39.249 -15.042  -3.587  1.00  0.00     0.002 A 
HETATM   11  C   UNL     1      38.931 -14.059  -2.648  1.00  0.00     0.034 A 
HETATM   12  C   UNL     1      41.524 -13.554   2.135  1.00  0.00     0.110 A 
HETATM   13  C   UNL     1      40.761 -12.495   2.610  1.00  0.00     0.143 A 
ENDROOT
BRANCH   1  14
HETATM   14  N   UNL     1      39.048 -11.029   1.725  1.00  0.00    -0.176 NA
HETATM   15  C   UNL     1      39.432  -9.880   1.251  1.00  0.00     0.153 C 
BRANCH  15  16
HETATM   16  C   UNL     1      40.745  -9.428   0.810  1.00  0.00     0.011 A 
HETATM   17  C   UNL     1      41.279  -9.602  -0.517  1.00  0.00     0.004 A 
HETATM   18  C   UNL     1      40.801 -10.212  -1.697  1.00  0.00     0.014 A 
HETATM   19  C   UNL     1      42.537  -8.998  -0.555  1.00  0.00     0.043 A 
HETATM   20  C   UNL     1      41.585 -10.186  -2.858  1.00  0.00     0.001 A 
HETATM   21  C   UNL     1      42.836  -9.576  -2.857  1.00  0.00     0.002 A 
HETATM   22  C   UNL     1      43.340  -8.974  -1.702  1.00  0.00     0.030 A 
HETATM   23  N   UNL     1      42.770  -8.475   0.693  1.00  0.00    -0.364 N 
HETATM   24  H   UNL     1      43.610  -7.981   0.962  1.00  0.00     0.165 HD
HETATM   25  C   UNL     1      41.679  -8.672   1.498  1.00  0.00     0.102 A 
ENDBRANCH  15  16
ENDBRANCH   1  14
BRANCH  13  26
HETATM   26  N   UNL     1      40.807 -11.805   3.788  1.00  0.00    -0.383 N 
HETATM   27  H   UNL     1      40.334 -10.905   3.846  1.00  0.00     0.157 HD
HETATM   28  H   UNL     1      40.646 -12.361   4.634  1.00  0.00     0.157 HD
ENDBRANCH  13  26
BRANCH  12  29
HETATM   29  C   UNL     1      42.630 -14.198   2.821  1.00  0.00     0.258 C 
HETATM   30  N   UNL     1      42.427 -15.533   3.088  1.00  0.00    -0.352 N 
HETATM   31  H   UNL     1      41.544 -15.940   2.799  1.00  0.00     0.163 HD
HETATM   32  O   UNL     1      43.636 -13.592   3.176  1.00  0.00    -0.267 OA
BRANCH  30  33
HETATM   33  C   UNL     1      43.289 -16.261   3.984  1.00  0.00     0.161 C 
BRANCH  33  34
HETATM   34  C   UNL     1      43.583 -17.653   3.488  1.00  0.00    -0.040 A 
HETATM   35  C   UNL     1      44.128 -18.609   4.361  1.00  0.00     0.012 A 
HETATM   36  C   UNL     1      44.383 -19.908   3.921  1.00  0.00     0.043 A 
HETATM   37  C   UNL     1      44.100 -20.254   2.606  1.00  0.00     0.116 A 
HETATM   38  F   UNL     1      44.345 -21.501   2.185  1.00  0.00    -0.206 F 
HETATM   39  C   UNL     1      43.562 -19.326   1.723  1.00  0.00     0.043 A 
HETATM   40  C   UNL     1      43.298 -18.027   2.163  1.00  0.00     0.012 A 
ENDBRANCH  33  34
ENDBRANCH  30  33
ENDBRANCH  12  29
TORSDOF 6
ENDMDL
MODEL 10
REMARK VINA RESULT:      -8.7      3.498      7.088
REMARK  6 active torsions:
REMARK  status: ('A' for Active; 'I' for Inactive)
REMARK    1  A    between atoms: C_8  and  C_9 
REMARK    2  A    between atoms: N_10  and  N_11 
REMARK    3  A    between atoms: C_22  and  C_23 
REMARK       I    between atoms: C_23  and  N_24 
REMARK    4  A    between atoms: N_24  and  C_25 
REMARK    5  A    between atoms: C_25  and  C_26 
REMARK    6  A    between atoms: C_34  and  N_35 
ROOT
HETATM    1  N   UNL     1      43.181 -14.280   2.703  1.00  0.00    -0.197 N 
HETATM    2  C   UNL     1      43.196 -15.646   2.493  1.00  0.00     0.183 A 
HETATM    3  C   UNL     1      42.219 -15.932   1.547  1.00  0.00     0.125 A 
HETATM    4  N   UNL     1      41.971 -17.212   1.164  1.00  0.00    -0.242 NA
HETATM    5  C   UNL     1      42.738 -18.139   1.757  1.00  0.00     0.086 A 
HETATM    6  C   UNL     1      43.734 -17.816   2.716  1.00  0.00     0.088 A 
HETATM    7  N   UNL     1      43.985 -16.557   3.109  1.00  0.00    -0.225 NA
HETATM    8  C   UNL     1      42.545 -19.470   1.410  1.00  0.00     0.034 A 
HETATM    9  C   UNL     1      43.307 -20.492   1.979  1.00  0.00     0.002 A 
HETATM   10  C   UNL     1      44.281 -20.177   2.915  1.00  0.00     0.002 A 
HETATM   11  C   UNL     1      44.483 -18.843   3.275  1.00  0.00     0.034 A 
HETATM   12  C   UNL     1      41.634 -14.709   1.118  1.00  0.00     0.110 A 
HETATM   13  C   UNL     1      42.298 -13.697   1.799  1.00  0.00     0.143 A 
ENDROOT
BRANCH   1  14
HETATM   14  N   UNL     1      43.943 -13.558   3.571  1.00  0.00    -0.176 NA
HETATM   15  C   UNL     1      43.951 -13.915   4.822  1.00  0.00     0.153 C 
BRANCH  15  16
HETATM   16  C   UNL     1      43.078 -14.826   5.553  1.00  0.00     0.011 A 
HETATM   17  C   UNL     1      43.507 -16.029   6.219  1.00  0.00     0.004 A 
HETATM   18  C   UNL     1      44.749 -16.685   6.362  1.00  0.00     0.014 A 
HETATM   19  C   UNL     1      42.392 -16.597   6.837  1.00  0.00     0.043 A 
HETATM   20  C   UNL     1      44.830 -17.863   7.115  1.00  0.00     0.001 A 
HETATM   21  C   UNL     1      43.695 -18.401   7.715  1.00  0.00     0.002 A 
HETATM   22  C   UNL     1      42.450 -17.781   7.583  1.00  0.00     0.030 A 
HETATM   23  N   UNL     1      41.321 -15.781   6.564  1.00  0.00    -0.364 N 
HETATM   24  H   UNL     1      40.376 -15.947   6.882  1.00  0.00     0.165 HD
HETATM   25  C   UNL     1      41.733 -14.686   5.851  1.00  0.00     0.102 A 
ENDBRANCH  15  16
ENDBRANCH   1  14
BRANCH  13  26
HETATM   26  N   UNL     1      42.146 -12.339   1.772  1.00  0.00    -0.383 N 
HETATM   27  H   UNL     1      41.529 -11.902   2.454  1.00  0.00     0.157 HD
HETATM   28  H   UNL     1      43.010 -11.800   1.658  1.00  0.00     0.157 HD
ENDBRANCH  13  26
BRANCH  12  29
HETATM   29  C   UNL     1      40.545 -14.545   0.172  1.00  0.00     0.258 C 
HETATM   30  N   UNL     1      40.802 -15.059  -1.079  1.00  0.00    -0.352 N 
HETATM   31  H   UNL     1      41.708 -15.489  -1.231  1.00  0.00     0.163 HD
HETATM   32  O   UNL     1      39.507 -13.954   0.450  1.00  0.00    -0.267 OA
BRANCH  30  33
HETATM   33  C   UNL     1      39.956 -14.757  -2.206  1.00  0.00     0.161 C 
BRANCH  33  34
HETATM   34  C   UNL     1      40.395 -13.511  -2.930  1.00  0.00    -0.040 A 
HETATM   35  C   UNL     1      41.763 -13.247  -3.107  1.00  0.00     0.012 A 
HETATM   36  C   UNL     1      42.183 -12.109  -3.796  1.00  0.00     0.043 A 
HETATM   37  C   UNL     1      41.237 -11.228  -4.305  1.00  0.00     0.116 A 
HETATM   38  F   UNL     1      41.641 -10.136  -4.966  1.00  0.00    -0.206 F 
HETATM   39  C   UNL     1      39.878 -11.466  -4.141  1.00  0.00     0.043 A 
HETATM   40  C   UNL     1      39.455 -12.608  -3.458  1.00  0.00     0.012 A 
ENDBRANCH  33  34
ENDBRANCH  30  33
ENDBRANCH  12  29
TORSDOF 6
ENDMDL
