MODEL 1
REMARK VINA RESULT:      -8.9      0.000      0.000
REMARK  6 active torsions:
REMARK  status: ('A' for Active; 'I' for Inactive)
REMARK    1  A    between atoms: C_5  and  C_6 
REMARK    2  A    between atoms: C_12  and  C_13 
REMARK       I    between atoms: C_13  and  N_14 
REMARK    3  A    between atoms: N_14  and  C_15 
REMARK    4  A    between atoms: C_18  and  C_19 
REMARK    5  A    between atoms: C_19  and  O_20 
REMARK    6  A    between atoms: C_25  and  C_26 
ROOT
HETATM    1  C   UNL     1      41.750 -17.454   2.567  1.00  0.00     0.118 C 
HETATM    2  N   UNL     1      41.877 -16.286   3.457  1.00  0.00    -0.365 N 
HETATM    3  C   UNL     1      41.124 -15.186   3.161  1.00  0.00     0.138 A 
HETATM    4  N   UNL     1      40.561 -15.033   1.912  1.00  0.00    -0.240 N 
HETATM    5  N   UNL     1      39.789 -13.945   1.799  1.00  0.00    -0.181 NA
HETATM    6  C   UNL     1      39.949 -13.330   2.973  1.00  0.00     0.160 A 
HETATM    7  C   UNL     1      40.771 -14.054   3.874  1.00  0.00     0.096 A 
HETATM    8  C   UNL     1      40.709 -15.974   0.816  1.00  0.00     0.221 C 
HETATM    9  C   UNL     1      41.844 -16.972   1.116  1.00  0.00     0.066 C 
HETATM   10  H   UNL     1      42.849 -16.122   3.736  1.00  0.00     0.161 HD
ENDROOT
BRANCH   7  11
HETATM   11  C   UNL     1      41.086 -13.651   5.236  1.00  0.00     0.261 C 
HETATM   12  N   UNL     1      42.391 -13.234   5.416  1.00  0.00    -0.323 N 
HETATM   13  H   UNL     1      42.984 -13.302   4.596  1.00  0.00     0.169 HD
HETATM   14  O   UNL     1      40.221 -13.703   6.104  1.00  0.00    -0.267 OA
BRANCH  12  15
HETATM   15  C   UNL     1      42.987 -12.754   6.600  1.00  0.00     0.035 A 
HETATM   16  C   UNL     1      42.527 -11.646   7.309  1.00  0.00     0.030 A 
HETATM   17  C   UNL     1      43.181 -11.223   8.472  1.00  0.00     0.012 A 
HETATM   18  C   UNL     1      44.320 -11.887   8.952  1.00  0.00    -0.030 A 
HETATM   19  C   UNL     1      44.766 -13.011   8.245  1.00  0.00     0.012 A 
HETATM   20  C   UNL     1      44.106 -13.439   7.083  1.00  0.00     0.030 A 
BRANCH  18  21
HETATM   21  C   UNL     1      44.980 -11.371  10.212  1.00  0.00     0.147 C 
HETATM   22  C   UNL     1      44.046 -10.887  11.314  1.00  0.00     0.044 C 
BRANCH  21  23
HETATM   23  O   UNL     1      45.845 -10.300   9.841  1.00  0.00    -0.391 OA
HETATM   24  H   UNL     1      45.395  -9.473  10.076  1.00  0.00     0.210 HD
ENDBRANCH  21  23
ENDBRANCH  18  21
ENDBRANCH  12  15
ENDBRANCH   7  11
BRANCH   1  25
HETATM   25  C   UNL     1      42.744 -18.523   2.986  1.00  0.00    -0.035 A 
HETATM   26  C   UNL     1      43.217 -18.517   4.310  1.00  0.00     0.010 A 
HETATM   27  C   UNL     1      44.088 -19.508   4.771  1.00  0.00     0.007 A 
HETATM   28  C   UNL     1      44.519 -20.524   3.914  1.00  0.00    -0.062 A 
HETATM   29  C   UNL     1      45.401 -21.628   4.418  1.00  0.00     0.048 C 
HETATM   30  C   UNL     1      44.059 -20.535   2.594  1.00  0.00     0.007 A 
HETATM   31  C   UNL     1      43.190 -19.541   2.131  1.00  0.00     0.010 A 
ENDBRANCH   1  25
BRANCH   8  32
HETATM   32  C   UNL     1      40.991 -15.275  -0.499  1.00  0.00     0.409 C 
HETATM   33  F   UNL     1      39.922 -14.643  -1.020  1.00  0.00    -0.169 F 
HETATM   34  F   UNL     1      42.010 -14.391  -0.402  1.00  0.00    -0.169 F 
HETATM   35  F   UNL     1      41.372 -16.198  -1.425  1.00  0.00    -0.169 F 
ENDBRANCH   8  32
TORSDOF 6
ENDMDL
MODEL 2
REMARK VINA RESULT:      -8.7      1.873      2.230
REMARK  6 active torsions:
REMARK  status: ('A' for Active; 'I' for Inactive)
REMARK    1  A    between atoms: C_5  and  C_6 
REMARK    2  A    between atoms: C_12  and  C_13 
REMARK       I    between atoms: C_13  and  N_14 
REMARK    3  A    between atoms: N_14  and  C_15 
REMARK    4  A    between atoms: C_18  and  C_19 
REMARK    5  A    between atoms: C_19  and  O_20 
REMARK    6  A    between atoms: C_25  and  C_26 
ROOT
HETATM    1  C   UNL     1      41.681 -17.140   2.574  1.00  0.00     0.118 C 
HETATM    2  N   UNL     1      41.848 -15.967   3.451  1.00  0.00    -0.365 N 
HETATM    3  C   UNL     1      41.116 -14.853   3.157  1.00  0.00     0.138 A 
HETATM    4  N   UNL     1      40.537 -14.698   1.915  1.00  0.00    -0.240 N 
HETATM    5  N   UNL     1      39.788 -13.594   1.805  1.00  0.00    -0.181 NA
HETATM    6  C   UNL     1      39.981 -12.972   2.970  1.00  0.00     0.160 A 
HETATM    7  C   UNL     1      40.800 -13.708   3.865  1.00  0.00     0.096 A 
HETATM    8  C   UNL     1      40.646 -15.652   0.826  1.00  0.00     0.221 C 
HETATM    9  C   UNL     1      41.763 -16.673   1.117  1.00  0.00     0.066 C 
HETATM   10  H   UNL     1      42.828 -15.824   3.714  1.00  0.00     0.161 HD
ENDROOT
BRANCH   7  11
HETATM   11  C   UNL     1      41.145 -13.299   5.218  1.00  0.00     0.261 C 
HETATM   12  N   UNL     1      40.491 -12.161   5.650  1.00  0.00    -0.323 N 
HETATM   13  H   UNL     1      39.887 -11.722   4.964  1.00  0.00     0.169 HD
HETATM   14  O   UNL     1      41.958 -13.951   5.864  1.00  0.00    -0.267 OA
BRANCH  12  15
HETATM   15  C   UNL     1      40.585 -11.540   6.912  1.00  0.00     0.035 A 
HETATM   16  C   UNL     1      41.715 -10.862   7.363  1.00  0.00     0.030 A 
HETATM   17  C   UNL     1      41.736 -10.279   8.636  1.00  0.00     0.012 A 
HETATM   18  C   UNL     1      40.634 -10.372   9.499  1.00  0.00    -0.030 A 
HETATM   19  C   UNL     1      39.495 -11.039   9.033  1.00  0.00     0.012 A 
HETATM   20  C   UNL     1      39.471 -11.616   7.755  1.00  0.00     0.030 A 
BRANCH  18  21
HETATM   21  C   UNL     1      40.728  -9.725  10.864  1.00  0.00     0.147 C 
HETATM   22  C   UNL     1      42.127  -9.344  11.335  1.00  0.00     0.044 C 
BRANCH  21  23
HETATM   23  O   UNL     1      40.155 -10.624  11.811  1.00  0.00    -0.391 OA
HETATM   24  H   UNL     1      40.334 -10.264  12.694  1.00  0.00     0.210 HD
ENDBRANCH  21  23
ENDBRANCH  18  21
ENDBRANCH  12  15
ENDBRANCH   7  11
BRANCH   1  25
HETATM   25  C   UNL     1      42.656 -18.228   2.987  1.00  0.00    -0.035 A 
HETATM   26  C   UNL     1      43.092 -18.266   4.323  1.00  0.00     0.010 A 
HETATM   27  C   UNL     1      43.945 -19.276   4.777  1.00  0.00     0.007 A 
HETATM   28  C   UNL     1      44.394 -20.268   3.902  1.00  0.00    -0.062 A 
HETATM   29  C   UNL     1      45.254 -21.393   4.396  1.00  0.00     0.048 C 
HETATM   30  C   UNL     1      43.971 -20.236   2.570  1.00  0.00     0.007 A 
HETATM   31  C   UNL     1      43.120 -19.222   2.114  1.00  0.00     0.010 A 
ENDBRANCH   1  25
BRANCH   8  32
HETATM   32  C   UNL     1      40.924 -14.971  -0.500  1.00  0.00     0.409 C 
HETATM   33  F   UNL     1      39.842 -14.385  -1.048  1.00  0.00    -0.169 F 
HETATM   34  F   UNL     1      41.912 -14.053  -0.408  1.00  0.00    -0.169 F 
HETATM   35  F   UNL     1      41.346 -15.900  -1.402  1.00  0.00    -0.169 F 
ENDBRANCH   8  32
TORSDOF 6
ENDMDL
MODEL 3
REMARK VINA RESULT:      -8.7      3.438      8.614
REMARK  6 active torsions:
REMARK  status: ('A' for Active; 'I' for Inactive)
REMARK    1  A    between atoms: C_5  and  C_6 
REMARK    2  A    between atoms: C_12  and  C_13 
REMARK       I    between atoms: C_13  and  N_14 
REMARK    3  A    between atoms: N_14  and  C_15 
REMARK    4  A    between atoms: C_18  and  C_19 
REMARK    5  A    between atoms: C_19  and  O_20 
REMARK    6  A    between atoms: C_25  and  C_26 
ROOT
HETATM    1  C   UNL     1      41.882 -10.740   7.272  1.00  0.00     0.118 C 
HETATM    2  N   UNL     1      42.044 -12.080   6.679  1.00  0.00    -0.365 N 
HETATM    3  C   UNL     1      41.784 -12.211   5.344  1.00  0.00     0.138 A 
HETATM    4  N   UNL     1      41.065 -11.249   4.668  1.00  0.00    -0.240 N 
HETATM    5  N   UNL     1      40.960 -11.480   3.354  1.00  0.00    -0.181 NA
HETATM    6  C   UNL     1      41.535 -12.676   3.204  1.00  0.00     0.160 A 
HETATM    7  C   UNL     1      42.075 -13.190   4.410  1.00  0.00     0.096 A 
HETATM    8  C   UNL     1      40.516 -10.049   5.273  1.00  0.00     0.221 C 
HETATM    9  C   UNL     1      40.540 -10.162   6.809  1.00  0.00     0.066 C 
HETATM   10  H   UNL     1      41.689 -12.816   7.296  1.00  0.00     0.161 HD
ENDROOT
BRANCH   7  11
HETATM   11  C   UNL     1      42.794 -14.448   4.541  1.00  0.00     0.261 C 
HETATM   12  N   UNL     1      42.431 -15.406   3.615  1.00  0.00    -0.323 N 
HETATM   13  H   UNL     1      41.680 -15.140   2.987  1.00  0.00     0.169 HD
HETATM   14  O   UNL     1      43.635 -14.581   5.423  1.00  0.00    -0.267 OA
BRANCH  12  15
HETATM   15  C   UNL     1      42.965 -16.702   3.462  1.00  0.00     0.035 A 
HETATM   16  C   UNL     1      43.001 -17.654   4.479  1.00  0.00     0.030 A 
HETATM   17  C   UNL     1      43.559 -18.918   4.253  1.00  0.00     0.012 A 
HETATM   18  C   UNL     1      44.108 -19.261   3.008  1.00  0.00    -0.030 A 
HETATM   19  C   UNL     1      44.052 -18.307   1.985  1.00  0.00     0.012 A 
HETATM   20  C   UNL     1      43.486 -17.043   2.210  1.00  0.00     0.030 A 
BRANCH  18  21
HETATM   21  C   UNL     1      44.700 -20.643   2.836  1.00  0.00     0.147 C 
HETATM   22  C   UNL     1      44.001 -21.558   1.837  1.00  0.00     0.044 C 
BRANCH  21  23
HETATM   23  O   UNL     1      44.702 -21.276   4.113  1.00  0.00    -0.391 OA
HETATM   24  H   UNL     1      44.466 -22.207   3.973  1.00  0.00     0.210 HD
ENDBRANCH  21  23
ENDBRANCH  18  21
ENDBRANCH  12  15
ENDBRANCH   7  11
BRANCH   1  25
HETATM   25  C   UNL     1      42.098 -10.819   8.772  1.00  0.00    -0.035 A 
HETATM   26  C   UNL     1      43.403 -11.034   9.252  1.00  0.00     0.010 A 
HETATM   27  C   UNL     1      43.674 -11.059  10.623  1.00  0.00     0.007 A 
HETATM   28  C   UNL     1      42.644 -10.882  11.550  1.00  0.00    -0.062 A 
HETATM   29  C   UNL     1      42.937 -10.841  13.021  1.00  0.00     0.048 C 
HETATM   30  C   UNL     1      41.343 -10.674  11.084  1.00  0.00     0.007 A 
HETATM   31  C   UNL     1      41.071 -10.652   9.711  1.00  0.00     0.010 A 
ENDBRANCH   1  25
BRANCH   8  32
HETATM   32  C   UNL     1      39.097  -9.779   4.814  1.00  0.00     0.409 C 
HETATM   33  F   UNL     1      39.020  -9.085   3.662  1.00  0.00    -0.169 F 
HETATM   34  F   UNL     1      38.376 -10.915   4.681  1.00  0.00    -0.169 F 
HETATM   35  F   UNL     1      38.457  -9.026   5.751  1.00  0.00    -0.169 F 
ENDBRANCH   8  32
TORSDOF 6
ENDMDL
MODEL 4
REMARK VINA RESULT:      -8.5      3.913      7.694
REMARK  6 active torsions:
REMARK  status: ('A' for Active; 'I' for Inactive)
REMARK    1  A    between atoms: C_5  and  C_6 
REMARK    2  A    between atoms: C_12  and  C_13 
REMARK       I    between atoms: C_13  and  N_14 
REMARK    3  A    between atoms: N_14  and  C_15 
REMARK    4  A    between atoms: C_18  and  C_19 
REMARK    5  A    between atoms: C_19  and  O_20 
REMARK    6  A    between atoms: C_25  and  C_26 
ROOT
HETATM    1  C   UNL     1      38.877 -13.370   1.701  1.00  0.00     0.118 C 
HETATM    2  N   UNL     1      39.791 -14.213   2.493  1.00  0.00    -0.365 N 
HETATM    3  C   UNL     1      39.885 -13.951   3.830  1.00  0.00     0.138 A 
HETATM    4  N   UNL     1      39.445 -12.751   4.346  1.00  0.00    -0.240 N 
HETATM    5  N   UNL     1      39.533 -12.674   5.680  1.00  0.00    -0.181 NA
HETATM    6  C   UNL     1      40.145 -13.813   6.015  1.00  0.00     0.160 A 
HETATM    7  C   UNL     1      40.392 -14.660   4.905  1.00  0.00     0.096 A 
HETATM    8  C   UNL     1      38.870 -11.674   3.562  1.00  0.00     0.221 C 
HETATM    9  C   UNL     1      39.134 -11.903   2.061  1.00  0.00     0.066 C 
HETATM   10  H   UNL     1      40.665 -14.403   1.994  1.00  0.00     0.161 HD
ENDROOT
BRANCH   7  11
HETATM   11  C   UNL     1      41.004 -15.978   4.973  1.00  0.00     0.261 C 
HETATM   12  N   UNL     1      41.792 -16.293   3.883  1.00  0.00    -0.323 N 
HETATM   13  H   UNL     1      41.814 -15.594   3.148  1.00  0.00     0.169 HD
HETATM   14  O   UNL     1      40.793 -16.700   5.941  1.00  0.00    -0.267 OA
BRANCH  12  15
HETATM   15  C   UNL     1      42.539 -17.470   3.671  1.00  0.00     0.035 A 
HETATM   16  C   UNL     1      43.446 -17.993   4.591  1.00  0.00     0.030 A 
HETATM   17  C   UNL     1      44.160 -19.162   4.303  1.00  0.00     0.012 A 
HETATM   18  C   UNL     1      43.998 -19.833   3.081  1.00  0.00    -0.030 A 
HETATM   19  C   UNL     1      43.072 -19.313   2.169  1.00  0.00     0.012 A 
HETATM   20  C   UNL     1      42.351 -18.145   2.461  1.00  0.00     0.030 A 
BRANCH  18  21
HETATM   21  C   UNL     1      44.807 -21.087   2.833  1.00  0.00     0.147 C 
HETATM   22  C   UNL     1      44.315 -21.998   1.714  1.00  0.00     0.044 C 
BRANCH  21  23
HETATM   23  O   UNL     1      44.838 -21.831   4.049  1.00  0.00    -0.391 OA
HETATM   24  H   UNL     1      44.081 -21.541   4.583  1.00  0.00     0.210 HD
ENDBRANCH  21  23
ENDBRANCH  18  21
ENDBRANCH  12  15
ENDBRANCH   7  11
BRANCH   1  25
HETATM   25  C   UNL     1      38.998 -13.732   0.232  1.00  0.00    -0.035 A 
HETATM   26  C   UNL     1      40.220 -14.250  -0.234  1.00  0.00     0.010 A 
HETATM   27  C   UNL     1      40.374 -14.655  -1.563  1.00  0.00     0.007 A 
HETATM   28  C   UNL     1      39.313 -14.540  -2.464  1.00  0.00    -0.062 A 
HETATM   29  C   UNL     1      39.449 -15.033  -3.875  1.00  0.00     0.048 C 
HETATM   30  C   UNL     1      38.096 -14.021  -2.013  1.00  0.00     0.007 A 
HETATM   31  C   UNL     1      37.942 -13.612  -0.683  1.00  0.00     0.010 A 
ENDBRANCH   1  25
BRANCH   8  32
HETATM   32  C   UNL     1      39.420 -10.320   3.965  1.00  0.00     0.409 C 
HETATM   33  F   UNL     1      38.844  -9.805   5.068  1.00  0.00    -0.169 F 
HETATM   34  F   UNL     1      40.759 -10.345   4.150  1.00  0.00    -0.169 F 
HETATM   35  F   UNL     1      39.187  -9.425   2.965  1.00  0.00    -0.169 F 
ENDBRANCH   8  32
TORSDOF 6
ENDMDL
MODEL 5
REMARK VINA RESULT:      -8.1      2.668      3.552
REMARK  6 active torsions:
REMARK  status: ('A' for Active; 'I' for Inactive)
REMARK    1  A    between atoms: C_5  and  C_6 
REMARK    2  A    between atoms: C_12  and  C_13 
REMARK       I    between atoms: C_13  and  N_14 
REMARK    3  A    between atoms: N_14  and  C_15 
REMARK    4  A    between atoms: C_18  and  C_19 
REMARK    5  A    between atoms: C_19  and  O_20 
REMARK    6  A    between atoms: C_25  and  C_26 
ROOT
HETATM    1  C   UNL     1      40.971 -16.180   0.629  1.00  0.00     0.118 C 
HETATM    2  N   UNL     1      40.631 -14.924   1.320  1.00  0.00    -0.365 N 
HETATM    3  C   UNL     1      39.954 -13.978   0.606  1.00  0.00     0.138 A 
HETATM    4  N   UNL     1      39.910 -14.031  -0.770  1.00  0.00    -0.240 N 
HETATM    5  N   UNL     1      39.145 -13.082  -1.322  1.00  0.00    -0.181 NA
HETATM    6  C   UNL     1      38.777 -12.336  -0.278  1.00  0.00     0.160 A 
HETATM    7  C   UNL     1      39.246 -12.843   0.961  1.00  0.00     0.096 A 
HETATM    8  C   UNL     1      40.561 -15.045  -1.581  1.00  0.00     0.221 C 
HETATM    9  C   UNL     1      41.578 -15.837  -0.735  1.00  0.00     0.066 C 
HETATM   10  H   UNL     1      41.397 -14.596   1.916  1.00  0.00     0.161 HD
ENDROOT
BRANCH   7  11
HETATM   11  C   UNL     1      38.966 -12.265   2.266  1.00  0.00     0.261 C 
HETATM   12  N   UNL     1      39.957 -12.481   3.205  1.00  0.00    -0.323 N 
HETATM   13  H   UNL     1      40.735 -13.050   2.891  1.00  0.00     0.169 HD
HETATM   14  O   UNL     1      37.919 -11.655   2.452  1.00  0.00    -0.267 OA
BRANCH  12  15
HETATM   15  C   UNL     1      39.995 -12.023   4.538  1.00  0.00     0.035 A 
HETATM   16  C   UNL     1      40.603 -10.833   4.935  1.00  0.00     0.030 A 
HETATM   17  C   UNL     1      40.610 -10.451   6.282  1.00  0.00     0.012 A 
HETATM   18  C   UNL     1      40.021 -11.254   7.271  1.00  0.00    -0.030 A 
HETATM   19  C   UNL     1      39.396 -12.439   6.863  1.00  0.00     0.012 A 
HETATM   20  C   UNL     1      39.383 -12.818   5.513  1.00  0.00     0.030 A 
BRANCH  18  21
HETATM   21  C   UNL     1      40.071 -10.783   8.708  1.00  0.00     0.147 C 
HETATM   22  C   UNL     1      41.455 -10.478   9.271  1.00  0.00     0.044 C 
BRANCH  21  23
HETATM   23  O   UNL     1      39.460 -11.787   9.515  1.00  0.00    -0.391 OA
HETATM   24  H   UNL     1      39.990 -12.595   9.420  1.00  0.00     0.210 HD
ENDBRANCH  21  23
ENDBRANCH  18  21
ENDBRANCH  12  15
ENDBRANCH   7  11
BRANCH   1  25
HETATM   25  C   UNL     1      41.818 -17.050   1.541  1.00  0.00    -0.035 A 
HETATM   26  C   UNL     1      43.026 -17.569   1.041  1.00  0.00     0.010 A 
HETATM   27  C   UNL     1      43.876 -18.328   1.849  1.00  0.00     0.007 A 
HETATM   28  C   UNL     1      43.534 -18.599   3.176  1.00  0.00    -0.062 A 
HETATM   29  C   UNL     1      44.472 -19.356   4.070  1.00  0.00     0.048 C 
HETATM   30  C   UNL     1      42.333 -18.093   3.681  1.00  0.00     0.007 A 
HETATM   31  C   UNL     1      41.479 -17.335   2.871  1.00  0.00     0.010 A 
ENDBRANCH   1  25
BRANCH   8  32
HETATM   32  C   UNL     1      41.266 -14.448  -2.781  1.00  0.00     0.409 C 
HETATM   33  F   UNL     1      40.430 -13.965  -3.720  1.00  0.00    -0.169 F 
HETATM   34  F   UNL     1      42.133 -13.470  -2.433  1.00  0.00    -0.169 F 
HETATM   35  F   UNL     1      42.004 -15.414  -3.396  1.00  0.00    -0.169 F 
ENDBRANCH   8  32
TORSDOF 6
ENDMDL
MODEL 6
REMARK VINA RESULT:      -8.1      4.250      8.128
REMARK  6 active torsions:
REMARK  status: ('A' for Active; 'I' for Inactive)
REMARK    1  A    between atoms: C_5  and  C_6 
REMARK    2  A    between atoms: C_12  and  C_13 
REMARK       I    between atoms: C_13  and  N_14 
REMARK    3  A    between atoms: N_14  and  C_15 
REMARK    4  A    between atoms: C_18  and  C_19 
REMARK    5  A    between atoms: C_19  and  O_20 
REMARK    6  A    between atoms: C_25  and  C_26 
ROOT
HETATM    1  C   UNL     1      42.529 -15.837   4.311  1.00  0.00     0.118 C 
HETATM    2  N   UNL     1      42.524 -15.054   3.063  1.00  0.00    -0.365 N 
HETATM    3  C   UNL     1      42.124 -15.692   1.923  1.00  0.00     0.138 A 
HETATM    4  N   UNL     1      42.081 -17.068   1.864  1.00  0.00    -0.240 N 
HETATM    5  N   UNL     1      41.597 -17.543   0.710  1.00  0.00    -0.181 NA
HETATM    6  C   UNL     1      41.427 -16.443  -0.029  1.00  0.00     0.160 A 
HETATM    7  C   UNL     1      41.736 -15.249   0.671  1.00  0.00     0.096 A 
HETATM    8  C   UNL     1      42.451 -17.956   2.952  1.00  0.00     0.221 C 
HETATM    9  C   UNL     1      43.217 -17.180   4.041  1.00  0.00     0.066 C 
HETATM   10  H   UNL     1      43.344 -14.444   2.991  1.00  0.00     0.161 HD
ENDROOT
BRANCH   7  11
HETATM   11  C   UNL     1      41.605 -13.903   0.136  1.00  0.00     0.261 C 
HETATM   12  N   UNL     1      42.152 -13.738  -1.122  1.00  0.00    -0.323 N 
HETATM   13  H   UNL     1      42.618 -14.555  -1.502  1.00  0.00     0.169 HD
HETATM   14  O   UNL     1      41.048 -13.034   0.798  1.00  0.00    -0.267 OA
BRANCH  12  15
HETATM   15  C   UNL     1      42.155 -12.572  -1.914  1.00  0.00     0.035 A 
HETATM   16  C   UNL     1      42.968 -11.467  -1.670  1.00  0.00     0.030 A 
HETATM   17  C   UNL     1      42.906 -10.339  -2.496  1.00  0.00     0.012 A 
HETATM   18  C   UNL     1      42.019 -10.278  -3.582  1.00  0.00    -0.030 A 
HETATM   19  C   UNL     1      41.218 -11.399  -3.834  1.00  0.00     0.012 A 
HETATM   20  C   UNL     1      41.286 -12.532  -3.009  1.00  0.00     0.030 A 
BRANCH  18  21
HETATM   21  C   UNL     1      41.999  -9.025  -4.430  1.00  0.00     0.147 C 
HETATM   22  C   UNL     1      42.651  -9.129  -5.804  1.00  0.00     0.044 C 
BRANCH  21  23
HETATM   23  O   UNL     1      42.649  -7.992  -3.692  1.00  0.00    -0.391 OA
HETATM   24  H   UNL     1      42.522  -8.188  -2.750  1.00  0.00     0.210 HD
ENDBRANCH  21  23
ENDBRANCH  18  21
ENDBRANCH  12  15
ENDBRANCH   7  11
BRANCH   1  25
HETATM   25  C   UNL     1      43.110 -14.999   5.435  1.00  0.00    -0.035 A 
HETATM   26  C   UNL     1      44.043 -15.595   6.303  1.00  0.00     0.010 A 
HETATM   27  C   UNL     1      44.656 -14.859   7.321  1.00  0.00     0.007 A 
HETATM   28  C   UNL     1      44.342 -13.511   7.506  1.00  0.00    -0.062 A 
HETATM   29  C   UNL     1      45.043 -12.697   8.553  1.00  0.00     0.048 C 
HETATM   30  C   UNL     1      43.411 -12.911   6.653  1.00  0.00     0.007 A 
HETATM   31  C   UNL     1      42.794 -13.648   5.635  1.00  0.00     0.010 A 
ENDBRANCH   1  25
BRANCH   8  32
HETATM   32  C   UNL     1      43.300 -19.117   2.475  1.00  0.00     0.409 C 
HETATM   33  F   UNL     1      44.262 -18.765   1.601  1.00  0.00    -0.169 F 
HETATM   34  F   UNL     1      43.872 -19.789   3.499  1.00  0.00    -0.169 F 
HETATM   35  F   UNL     1      42.508 -20.013   1.822  1.00  0.00    -0.169 F 
ENDBRANCH   8  32
TORSDOF 6
ENDMDL
MODEL 7
REMARK VINA RESULT:      -8.1      3.686      7.454
REMARK  6 active torsions:
REMARK  status: ('A' for Active; 'I' for Inactive)
REMARK    1  A    between atoms: C_5  and  C_6 
REMARK    2  A    between atoms: C_12  and  C_13 
REMARK       I    between atoms: C_13  and  N_14 
REMARK    3  A    between atoms: N_14  and  C_15 
REMARK    4  A    between atoms: C_18  and  C_19 
REMARK    5  A    between atoms: C_19  and  O_20 
REMARK    6  A    between atoms: C_25  and  C_26 
ROOT
HETATM    1  C   UNL     1      40.636 -12.545   2.443  1.00  0.00     0.118 C 
HETATM    2  N   UNL     1      40.661 -14.008   2.263  1.00  0.00    -0.365 N 
HETATM    3  C   UNL     1      40.863 -14.481   0.998  1.00  0.00     0.138 A 
HETATM    4  N   UNL     1      40.687 -13.662  -0.097  1.00  0.00    -0.240 N 
HETATM    5  N   UNL     1      40.996 -14.246  -1.261  1.00  0.00    -0.181 NA
HETATM    6  C   UNL     1      41.274 -15.504  -0.912  1.00  0.00     0.160 A 
HETATM    7  C   UNL     1      41.212 -15.719   0.489  1.00  0.00     0.096 A 
HETATM    8  C   UNL     1      40.274 -12.271  -0.033  1.00  0.00     0.221 C 
HETATM    9  C   UNL     1      39.728 -11.938   1.369  1.00  0.00     0.066 C 
HETATM   10  H   UNL     1      39.943 -14.474   2.824  1.00  0.00     0.161 HD
ENDROOT
BRANCH   7  11
HETATM   11  C   UNL     1      41.507 -16.975   1.161  1.00  0.00     0.261 C 
HETATM   12  N   UNL     1      42.699 -16.978   1.858  1.00  0.00    -0.323 N 
HETATM   13  H   UNL     1      43.247 -16.128   1.783  1.00  0.00     0.169 HD
HETATM   14  O   UNL     1      40.723 -17.914   1.072  1.00  0.00    -0.267 OA
BRANCH  12  15
HETATM   15  C   UNL     1      43.242 -18.024   2.632  1.00  0.00     0.035 A 
HETATM   16  C   UNL     1      43.867 -19.147   2.094  1.00  0.00     0.030 A 
HETATM   17  C   UNL     1      44.372 -20.151   2.930  1.00  0.00     0.012 A 
HETATM   18  C   UNL     1      44.254 -20.067   4.325  1.00  0.00    -0.030 A 
HETATM   19  C   UNL     1      43.641 -18.927   4.860  1.00  0.00     0.012 A 
HETATM   20  C   UNL     1      43.142 -17.918   4.023  1.00  0.00     0.030 A 
BRANCH  18  21
HETATM   21  C   UNL     1      44.816 -21.191   5.167  1.00  0.00     0.147 C 
HETATM   22  C   UNL     1      44.811 -22.577   4.533  1.00  0.00     0.044 C 
BRANCH  21  23
HETATM   23  O   UNL     1      44.068 -21.240   6.380  1.00  0.00    -0.391 OA
HETATM   24  H   UNL     1      44.301 -22.069   6.828  1.00  0.00     0.210 HD
ENDBRANCH  21  23
ENDBRANCH  18  21
ENDBRANCH  12  15
ENDBRANCH   7  11
BRANCH   1  25
HETATM   25  C   UNL     1      40.286 -12.217   3.883  1.00  0.00    -0.035 A 
HETATM   26  C   UNL     1      39.865 -13.261   4.727  1.00  0.00     0.010 A 
HETATM   27  C   UNL     1      39.583 -13.031   6.076  1.00  0.00     0.007 A 
HETATM   28  C   UNL     1      39.702 -11.748   6.614  1.00  0.00    -0.062 A 
HETATM   29  C   UNL     1      39.466 -11.505   8.076  1.00  0.00     0.048 C 
HETATM   30  C   UNL     1      40.113 -10.702   5.783  1.00  0.00     0.007 A 
HETATM   31  C   UNL     1      40.392 -10.931   4.431  1.00  0.00     0.010 A 
ENDBRANCH   1  25
BRANCH   8  32
HETATM   32  C   UNL     1      39.219 -11.943  -1.071  1.00  0.00     0.409 C 
HETATM   33  F   UNL     1      39.721 -11.682  -2.294  1.00  0.00    -0.169 F 
HETATM   34  F   UNL     1      38.291 -12.920  -1.186  1.00  0.00    -0.169 F 
HETATM   35  F   UNL     1      38.549 -10.820  -0.691  1.00  0.00    -0.169 F 
ENDBRANCH   8  32
TORSDOF 6
ENDMDL
MODEL 8
REMARK VINA RESULT:      -7.9      3.853      8.351
REMARK  6 active torsions:
REMARK  status: ('A' for Active; 'I' for Inactive)
REMARK    1  A    between atoms: C_5  and  C_6 
REMARK    2  A    between atoms: C_12  and  C_13 
REMARK       I    between atoms: C_13  and  N_14 
REMARK    3  A    between atoms: N_14  and  C_15 
REMARK    4  A    between atoms: C_18  and  C_19 
REMARK    5  A    between atoms: C_19  and  O_20 
REMARK    6  A    between atoms: C_25  and  C_26 
ROOT
HETATM    1  C   UNL     1      38.733 -12.648   2.355  1.00  0.00     0.118 C 
HETATM    2  N   UNL     1      40.062 -13.263   2.518  1.00  0.00    -0.365 N 
HETATM    3  C   UNL     1      40.627 -13.215   3.760  1.00  0.00     0.138 A 
HETATM    4  N   UNL     1      40.163 -12.332   4.712  1.00  0.00    -0.240 N 
HETATM    5  N   UNL     1      40.765 -12.457   5.901  1.00  0.00    -0.181 NA
HETATM    6  C   UNL     1      41.713 -13.369   5.673  1.00  0.00     0.160 A 
HETATM    7  C   UNL     1      41.681 -13.887   4.353  1.00  0.00     0.096 A 
HETATM    8  C   UNL     1      39.079 -11.388   4.507  1.00  0.00     0.221 C 
HETATM    9  C   UNL     1      38.755 -11.261   3.006  1.00  0.00     0.066 C 
HETATM   10  H   UNL     1      40.674 -13.068   1.721  1.00  0.00     0.161 HD
ENDROOT
BRANCH   7  11
HETATM   11  C   UNL     1      42.563 -14.921   3.834  1.00  0.00     0.261 C 
HETATM   12  N   UNL     1      42.133 -16.210   4.086  1.00  0.00    -0.323 N 
HETATM   13  H   UNL     1      41.286 -16.285   4.638  1.00  0.00     0.169 HD
HETATM   14  O   UNL     1      43.586 -14.608   3.237  1.00  0.00    -0.267 OA
BRANCH  12  15
HETATM   15  C   UNL     1      42.745 -17.416   3.686  1.00  0.00     0.035 A 
HETATM   16  C   UNL     1      42.571 -17.999   2.432  1.00  0.00     0.030 A 
HETATM   17  C   UNL     1      43.205 -19.205   2.113  1.00  0.00     0.012 A 
HETATM   18  C   UNL     1      44.018 -19.871   3.043  1.00  0.00    -0.030 A 
HETATM   19  C   UNL     1      44.203 -19.271   4.294  1.00  0.00     0.012 A 
HETATM   20  C   UNL     1      43.574 -18.058   4.611  1.00  0.00     0.030 A 
BRANCH  18  21
HETATM   21  C   UNL     1      44.666 -21.175   2.633  1.00  0.00     0.147 C 
HETATM   22  C   UNL     1      44.018 -21.915   1.468  1.00  0.00     0.044 C 
BRANCH  21  23
HETATM   23  O   UNL     1      44.674 -22.033   3.772  1.00  0.00    -0.391 OA
HETATM   24  H   UNL     1      44.218 -21.563   4.488  1.00  0.00     0.210 HD
ENDBRANCH  21  23
ENDBRANCH  18  21
ENDBRANCH  12  15
ENDBRANCH   7  11
BRANCH   1  25
HETATM   25  C   UNL     1      38.326 -12.696   0.893  1.00  0.00    -0.035 A 
HETATM   26  C   UNL     1      37.343 -11.799   0.439  1.00  0.00     0.010 A 
HETATM   27  C   UNL     1      36.967 -11.756  -0.906  1.00  0.00     0.007 A 
HETATM   28  C   UNL     1      37.557 -12.620  -1.832  1.00  0.00    -0.062 A 
HETATM   29  C   UNL     1      37.209 -12.535  -3.288  1.00  0.00     0.048 C 
HETATM   30  C   UNL     1      38.532 -13.520  -1.391  1.00  0.00     0.007 A 
HETATM   31  C   UNL     1      38.905 -13.565  -0.042  1.00  0.00     0.010 A 
ENDBRANCH   1  25
BRANCH   8  32
HETATM   32  C   UNL     1      39.405 -10.018   5.067  1.00  0.00     0.409 C 
HETATM   33  F   UNL     1      39.202  -9.909   6.394  1.00  0.00    -0.169 F 
HETATM   34  F   UNL     1      40.673  -9.640   4.792  1.00  0.00    -0.169 F 
HETATM   35  F   UNL     1      38.594  -9.091   4.485  1.00  0.00    -0.169 F 
ENDBRANCH   8  32
TORSDOF 6
ENDMDL
MODEL 9
REMARK VINA RESULT:      -7.9      2.442      2.931
REMARK  6 active torsions:
REMARK  status: ('A' for Active; 'I' for Inactive)
REMARK    1  A    between atoms: C_5  and  C_6 
REMARK    2  A    between atoms: C_12  and  C_13 
REMARK       I    between atoms: C_13  and  N_14 
REMARK    3  A    between atoms: N_14  and  C_15 
REMARK    4  A    between atoms: C_18  and  C_19 
REMARK    5  A    between atoms: C_19  and  O_20 
REMARK    6  A    between atoms: C_25  and  C_26 
ROOT
HETATM    1  C   UNL     1      40.974 -16.402   3.942  1.00  0.00     0.118 C 
HETATM    2  N   UNL     1      40.748 -15.013   4.380  1.00  0.00    -0.365 N 
HETATM    3  C   UNL     1      40.089 -14.183   3.519  1.00  0.00     0.138 A 
HETATM    4  N   UNL     1      39.966 -14.505   2.185  1.00  0.00    -0.240 N 
HETATM    5  N   UNL     1      39.229 -13.633   1.486  1.00  0.00    -0.181 NA
HETATM    6  C   UNL     1      38.964 -12.672   2.374  1.00  0.00     0.160 A 
HETATM    7  C   UNL     1      39.471 -12.954   3.668  1.00  0.00     0.096 A 
HETATM    8  C   UNL     1      40.509 -15.702   1.568  1.00  0.00     0.221 C 
HETATM    9  C   UNL     1      41.523 -16.378   2.512  1.00  0.00     0.066 C 
HETATM   10  H   UNL     1      41.565 -14.628   4.864  1.00  0.00     0.161 HD
ENDROOT
BRANCH   7  11
HETATM   11  C   UNL     1      39.298 -12.111   4.841  1.00  0.00     0.261 C 
HETATM   12  N   UNL     1      40.273 -12.279   5.807  1.00  0.00    -0.323 N 
HETATM   13  H   UNL     1      40.961 -12.997   5.608  1.00  0.00     0.169 HD
HETATM   14  O   UNL     1      38.346 -11.342   4.906  1.00  0.00    -0.267 OA
BRANCH  12  15
HETATM   15  C   UNL     1      40.401 -11.591   7.030  1.00  0.00     0.035 A 
HETATM   16  C   UNL     1      39.471 -11.664   8.066  1.00  0.00     0.030 A 
HETATM   17  C   UNL     1      39.663 -10.941   9.249  1.00  0.00     0.012 A 
HETATM   18  C   UNL     1      40.782 -10.112   9.424  1.00  0.00    -0.030 A 
HETATM   19  C   UNL     1      41.721 -10.057   8.388  1.00  0.00     0.012 A 
HETATM   20  C   UNL     1      41.532 -10.788   7.205  1.00  0.00     0.030 A 
BRANCH  18  21
HETATM   21  C   UNL     1      40.922  -9.353  10.726  1.00  0.00     0.147 C 
HETATM   22  C   UNL     1      42.278  -9.442  11.416  1.00  0.00     0.044 C 
BRANCH  21  23
HETATM   23  O   UNL     1      39.921  -9.835  11.619  1.00  0.00    -0.391 OA
HETATM   24  H   UNL     1      40.224 -10.696  11.952  1.00  0.00     0.210 HD
ENDBRANCH  21  23
ENDBRANCH  18  21
ENDBRANCH  12  15
ENDBRANCH   7  11
BRANCH   1  25
HETATM   25  C   UNL     1      41.818 -17.130   4.973  1.00  0.00    -0.035 A 
HETATM   26  C   UNL     1      41.762 -16.699   6.311  1.00  0.00     0.010 A 
HETATM   27  C   UNL     1      42.471 -17.364   7.315  1.00  0.00     0.007 A 
HETATM   28  C   UNL     1      43.265 -18.470   7.004  1.00  0.00    -0.062 A 
HETATM   29  C   UNL     1      43.976 -19.230   8.085  1.00  0.00     0.048 C 
HETATM   30  C   UNL     1      43.332 -18.903   5.677  1.00  0.00     0.007 A 
HETATM   31  C   UNL     1      42.625 -18.235   4.671  1.00  0.00     0.010 A 
ENDBRANCH   1  25
BRANCH   8  32
HETATM   32  C   UNL     1      41.181 -15.404   0.243  1.00  0.00     0.409 C 
HETATM   33  F   UNL     1      40.319 -15.151  -0.760  1.00  0.00    -0.169 F 
HETATM   34  F   UNL     1      42.055 -14.376   0.330  1.00  0.00    -0.169 F 
HETATM   35  F   UNL     1      41.905 -16.490  -0.148  1.00  0.00    -0.169 F 
ENDBRANCH   8  32
TORSDOF 6
ENDMDL
MODEL 10
REMARK VINA RESULT:      -7.8      3.996      8.611
REMARK  6 active torsions:
REMARK  status: ('A' for Active; 'I' for Inactive)
REMARK    1  A    between atoms: C_5  and  C_6 
REMARK    2  A    between atoms: C_12  and  C_13 
REMARK       I    between atoms: C_13  and  N_14 
REMARK    3  A    between atoms: N_14  and  C_15 
REMARK    4  A    between atoms: C_18  and  C_19 
REMARK    5  A    between atoms: C_19  and  O_20 
REMARK    6  A    between atoms: C_25  and  C_26 
ROOT
HETATM    1  C   UNL     1      42.247 -10.246   8.051  1.00  0.00     0.118 C 
HETATM    2  N   UNL     1      41.794 -11.577   7.608  1.00  0.00    -0.365 N 
HETATM    3  C   UNL     1      41.536 -11.741   6.278  1.00  0.00     0.138 A 
HETATM    4  N   UNL     1      41.351 -10.651   5.455  1.00  0.00    -0.240 N 
HETATM    5  N   UNL     1      41.184 -10.970   4.166  1.00  0.00    -0.181 NA
HETATM    6  C   UNL     1      41.153 -12.305   4.181  1.00  0.00     0.160 A 
HETATM    7  C   UNL     1      41.370 -12.853   5.471  1.00  0.00     0.096 A 
HETATM    8  C   UNL     1      41.395  -9.267   5.893  1.00  0.00     0.221 C 
HETATM    9  C   UNL     1      41.328  -9.188   7.431  1.00  0.00     0.066 C 
HETATM   10  H   UNL     1      41.128 -11.992   8.266  1.00  0.00     0.161 HD
ENDROOT
BRANCH   7  11
HETATM   11  C   UNL     1      41.434 -14.273   5.782  1.00  0.00     0.261 C 
HETATM   12  N   UNL     1      42.709 -14.803   5.748  1.00  0.00    -0.323 N 
HETATM   13  H   UNL     1      43.440 -14.158   5.467  1.00  0.00     0.169 HD
HETATM   14  O   UNL     1      40.405 -14.888   6.039  1.00  0.00    -0.267 OA
BRANCH  12  15
HETATM   15  C   UNL     1      43.099 -16.128   6.033  1.00  0.00     0.035 A 
HETATM   16  C   UNL     1      43.303 -17.106   5.061  1.00  0.00     0.030 A 
HETATM   17  C   UNL     1      43.679 -18.404   5.424  1.00  0.00     0.012 A 
HETATM   18  C   UNL     1      43.849 -18.765   6.770  1.00  0.00    -0.030 A 
HETATM   19  C   UNL     1      43.661 -17.774   7.740  1.00  0.00     0.012 A 
HETATM   20  C   UNL     1      43.291 -16.470   7.375  1.00  0.00     0.030 A 
BRANCH  18  21
HETATM   21  C   UNL     1      44.250 -20.189   7.091  1.00  0.00     0.147 C 
HETATM   22  C   UNL     1      44.134 -21.196   5.952  1.00  0.00     0.044 C 
BRANCH  21  23
HETATM   23  O   UNL     1      43.442 -20.632   8.178  1.00  0.00    -0.391 OA
HETATM   24  H   UNL     1      42.909 -19.874   8.468  1.00  0.00     0.210 HD
ENDBRANCH  21  23
ENDBRANCH  18  21
ENDBRANCH  12  15
ENDBRANCH   7  11
BRANCH   1  25
HETATM   25  C   UNL     1      42.367 -10.226   9.564  1.00  0.00    -0.035 A 
HETATM   26  C   UNL     1      43.455 -10.889  10.160  1.00  0.00     0.010 A 
HETATM   27  C   UNL     1      43.651 -10.859  11.543  1.00  0.00     0.007 A 
HETATM   28  C   UNL     1      42.756 -10.175  12.369  1.00  0.00    -0.062 A 
HETATM   29  C   UNL     1      42.996 -10.081  13.847  1.00  0.00     0.048 C 
HETATM   30  C   UNL     1      41.667  -9.518  11.788  1.00  0.00     0.007 A 
HETATM   31  C   UNL     1      41.469  -9.551  10.403  1.00  0.00     0.010 A 
ENDBRANCH   1  25
BRANCH   8  32
HETATM   32  C   UNL     1      40.267  -8.447   5.300  1.00  0.00     0.409 C 
HETATM   33  F   UNL     1      39.997  -7.317   5.983  1.00  0.00    -0.169 F 
HETATM   34  F   UNL     1      40.490  -8.126   4.006  1.00  0.00    -0.169 F 
HETATM   35  F   UNL     1      39.119  -9.181   5.321  1.00  0.00    -0.169 F 
ENDBRANCH   8  32
TORSDOF 6
ENDMDL
