MODEL 1
REMARK VINA RESULT:      -8.7      0.000      0.000
REMARK  7 active torsions:
REMARK  status: ('A' for Active; 'I' for Inactive)
REMARK    1  A    between atoms: C_2  and  N_3 
REMARK    2  A    between atoms: C_2  and  C_10 
REMARK    3  A    between atoms: N_11  and  C_12 
REMARK    4  A    between atoms: C_19  and  S_20 
REMARK    5  A    between atoms: S_20  and  C_21 
REMARK    6  A    between atoms: C_21  and  C_22 
REMARK    7  A    between atoms: C_21  and  C_28 
REMARK       I    between atoms: C_22  and  N_23 
REMARK       I    between atoms: N_23  and  C_24 
REMARK       I    between atoms: C_24  and  N_25 
ROOT
HETATM    1  C   UNL     1      41.712 -14.202   0.481  1.00  0.00     0.166 A 
HETATM    2  N   UNL     1      42.420 -14.900   1.455  1.00  0.00    -0.274 N 
HETATM    3  C   UNL     1      42.878 -13.914   2.310  1.00  0.00     0.197 A 
HETATM    4  N   UNL     1      42.532 -12.731   1.855  1.00  0.00    -0.122 NA
HETATM    5  N   UNL     1      41.815 -12.908   0.708  1.00  0.00    -0.131 NA
ENDROOT
BRANCH   3   6
HETATM    6  S   UNL     1      43.896 -14.203   3.675  1.00  0.00    -0.070 SA
BRANCH   6   7
HETATM    7  C   UNL     1      42.745 -14.851   4.953  1.00  0.00     0.180 C 
BRANCH   7   8
HETATM    8  C   UNL     1      42.399 -13.809   6.044  1.00  0.00     0.244 C 
HETATM    9  N   UNL     1      41.074 -13.638   6.396  1.00  0.00    -0.278 N 
HETATM   10  C   UNL     1      40.016 -13.670   5.526  1.00  0.00     0.320 C 
HETATM   11  H   UNL     1      40.963 -12.976   7.146  1.00  0.00     0.173 HD
HETATM   12  N   UNL     1      38.837 -13.314   6.102  1.00  0.00    -0.352 N 
HETATM   13  O   UNL     1      40.052 -14.025   4.359  1.00  0.00    -0.247 OA
HETATM   14  H   UNL     1      38.772 -12.744   6.931  1.00  0.00     0.160 HD
HETATM   15  H   UNL     1      38.037 -13.296   5.478  1.00  0.00     0.160 HD
HETATM   16  O   UNL     1      43.225 -13.067   6.594  1.00  0.00    -0.271 OA
ENDBRANCH   7   8
BRANCH   7  17
HETATM   17  C   UNL     1      43.193 -16.214   5.464  1.00  0.00    -0.035 A 
HETATM   18  C   UNL     1      42.438 -17.351   5.122  1.00  0.00     0.009 A 
HETATM   19  C   UNL     1      42.814 -18.623   5.557  1.00  0.00     0.001 A 
HETATM   20  C   UNL     1      43.954 -18.780   6.339  1.00  0.00     0.000 A 
HETATM   21  C   UNL     1      44.719 -17.668   6.682  1.00  0.00     0.001 A 
HETATM   22  C   UNL     1      44.345 -16.394   6.244  1.00  0.00     0.009 A 
ENDBRANCH   7  17
ENDBRANCH   6   7
ENDBRANCH   3   6
BRANCH   2  23
HETATM   23  C   UNL     1      42.552 -16.309   1.561  1.00  0.00     0.043 A 
HETATM   24  C   UNL     1      41.404 -17.110   1.666  1.00  0.00     0.033 A 
HETATM   25  C   UNL     1      41.536 -18.494   1.791  1.00  0.00     0.044 A 
HETATM   26  C   UNL     1      42.802 -19.069   1.808  1.00  0.00     0.116 A 
HETATM   27  F   UNL     1      42.921 -20.396   1.934  1.00  0.00    -0.206 F 
HETATM   28  C   UNL     1      43.944 -18.285   1.698  1.00  0.00     0.044 A 
HETATM   29  C   UNL     1      43.824 -16.900   1.573  1.00  0.00     0.033 A 
ENDBRANCH   2  23
BRANCH   1  30
HETATM   30  C   UNL     1      40.825 -14.805  -0.562  1.00  0.00     0.255 C 
HETATM   31  C   UNL     1      41.403 -14.601  -1.965  1.00  0.00     0.049 C 
BRANCH  30  32
HETATM   32  N   UNL     1      39.367 -14.300  -0.533  1.00  0.00    -0.060 N 
HETATM   33  H   UNL     1      38.831 -14.988  -1.074  1.00  0.00     0.280 HD
HETATM   34  C   UNL     1      38.801 -14.311   0.874  1.00  0.00     0.236 C 
HETATM   35  C   UNL     1      37.299 -14.069   0.810  1.00  0.00     0.028 C 
HETATM   36  C   UNL     1      36.964 -12.771   0.083  1.00  0.00     0.003 C 
HETATM   37  C   UNL     1      37.628 -12.713  -1.290  1.00  0.00     0.028 C 
HETATM   38  C   UNL     1      39.131 -12.953  -1.193  1.00  0.00     0.236 C 
ENDBRANCH  30  32
ENDBRANCH   1  30
TORSDOF 7
ENDMDL
MODEL 2
REMARK VINA RESULT:      -8.4      2.214      6.920
REMARK  7 active torsions:
REMARK  status: ('A' for Active; 'I' for Inactive)
REMARK    1  A    between atoms: C_2  and  N_3 
REMARK    2  A    between atoms: C_2  and  C_10 
REMARK    3  A    between atoms: N_11  and  C_12 
REMARK    4  A    between atoms: C_19  and  S_20 
REMARK    5  A    between atoms: S_20  and  C_21 
REMARK    6  A    between atoms: C_21  and  C_22 
REMARK    7  A    between atoms: C_21  and  C_28 
REMARK       I    between atoms: C_22  and  N_23 
REMARK       I    between atoms: N_23  and  C_24 
REMARK       I    between atoms: C_24  and  N_25 
ROOT
HETATM    1  C   UNL     1      41.555 -14.658   5.078  1.00  0.00     0.166 A 
HETATM    2  N   UNL     1      41.378 -15.315   3.864  1.00  0.00    -0.274 N 
HETATM    3  C   UNL     1      40.273 -14.696   3.306  1.00  0.00     0.197 A 
HETATM    4  N   UNL     1      39.795 -13.799   4.136  1.00  0.00    -0.122 NA
HETATM    5  N   UNL     1      40.586 -13.781   5.248  1.00  0.00    -0.131 NA
ENDROOT
BRANCH   3   6
HETATM    6  S   UNL     1      39.545 -15.166   1.812  1.00  0.00    -0.070 SA
BRANCH   6   7
HETATM    7  C   UNL     1      40.189 -13.940   0.603  1.00  0.00     0.180 C 
BRANCH   7   8
HETATM    8  C   UNL     1      39.647 -12.510   0.841  1.00  0.00     0.244 C 
HETATM    9  N   UNL     1      40.466 -11.437   0.544  1.00  0.00    -0.278 N 
HETATM   10  C   UNL     1      41.817 -11.392   0.762  1.00  0.00     0.320 C 
HETATM   11  H   UNL     1      40.002 -10.555   0.687  1.00  0.00     0.173 HD
HETATM   12  N   UNL     1      42.357 -10.166   0.532  1.00  0.00    -0.352 N 
HETATM   13  O   UNL     1      42.529 -12.332   1.076  1.00  0.00    -0.247 OA
HETATM   14  H   UNL     1      41.827  -9.309   0.566  1.00  0.00     0.160 HD
HETATM   15  H   UNL     1      43.352 -10.088   0.714  1.00  0.00     0.160 HD
HETATM   16  O   UNL     1      38.541 -12.251   1.335  1.00  0.00    -0.271 OA
ENDBRANCH   7   8
BRANCH   7  17
HETATM   17  C   UNL     1      40.077 -14.457  -0.825  1.00  0.00    -0.035 A 
HETATM   18  C   UNL     1      38.999 -14.030  -1.622  1.00  0.00     0.009 A 
HETATM   19  C   UNL     1      38.859 -14.468  -2.940  1.00  0.00     0.001 A 
HETATM   20  C   UNL     1      39.797 -15.339  -3.484  1.00  0.00     0.000 A 
HETATM   21  C   UNL     1      40.876 -15.768  -2.714  1.00  0.00     0.001 A 
HETATM   22  C   UNL     1      41.018 -15.328  -1.395  1.00  0.00     0.009 A 
ENDBRANCH   7  17
ENDBRANCH   6   7
ENDBRANCH   3   6
BRANCH   2  23
HETATM   23  C   UNL     1      42.208 -16.327   3.318  1.00  0.00     0.043 A 
HETATM   24  C   UNL     1      41.979 -17.671   3.651  1.00  0.00     0.033 A 
HETATM   25  C   UNL     1      42.810 -18.664   3.129  1.00  0.00     0.044 A 
HETATM   26  C   UNL     1      43.856 -18.315   2.282  1.00  0.00     0.116 A 
HETATM   27  F   UNL     1      44.652 -19.271   1.790  1.00  0.00    -0.206 F 
HETATM   28  C   UNL     1      44.087 -16.987   1.941  1.00  0.00     0.044 A 
HETATM   29  C   UNL     1      43.262 -15.986   2.457  1.00  0.00     0.033 A 
ENDBRANCH   2  23
BRANCH   1  30
HETATM   30  C   UNL     1      42.742 -14.784   5.981  1.00  0.00     0.255 C 
HETATM   31  C   UNL     1      43.917 -13.945   5.471  1.00  0.00     0.049 C 
BRANCH  30  32
HETATM   32  N   UNL     1      43.217 -16.234   6.215  1.00  0.00    -0.060 N 
HETATM   33  H   UNL     1      43.068 -16.716   5.321  1.00  0.00     0.280 HD
HETATM   34  C   UNL     1      44.705 -16.293   6.502  1.00  0.00     0.236 C 
HETATM   35  C   UNL     1      45.165 -17.744   6.454  1.00  0.00     0.028 C 
HETATM   36  C   UNL     1      44.374 -18.623   7.418  1.00  0.00     0.003 C 
HETATM   37  C   UNL     1      42.871 -18.475   7.201  1.00  0.00     0.028 C 
HETATM   38  C   UNL     1      42.440 -17.013   7.261  1.00  0.00     0.236 C 
ENDBRANCH  30  32
ENDBRANCH   1  30
TORSDOF 7
ENDMDL
MODEL 3
REMARK VINA RESULT:      -8.3      2.900      4.393
REMARK  7 active torsions:
REMARK  status: ('A' for Active; 'I' for Inactive)
REMARK    1  A    between atoms: C_2  and  N_3 
REMARK    2  A    between atoms: C_2  and  C_10 
REMARK    3  A    between atoms: N_11  and  C_12 
REMARK    4  A    between atoms: C_19  and  S_20 
REMARK    5  A    between atoms: S_20  and  C_21 
REMARK    6  A    between atoms: C_21  and  C_22 
REMARK    7  A    between atoms: C_21  and  C_28 
REMARK       I    between atoms: C_22  and  N_23 
REMARK       I    between atoms: N_23  and  C_24 
REMARK       I    between atoms: C_24  and  N_25 
ROOT
HETATM    1  C   UNL     1      39.666 -13.778   0.246  1.00  0.00     0.166 A 
HETATM    2  N   UNL     1      40.925 -13.336   0.641  1.00  0.00    -0.274 N 
HETATM    3  C   UNL     1      41.254 -14.165   1.699  1.00  0.00     0.197 A 
HETATM    4  N   UNL     1      40.259 -14.982   1.955  1.00  0.00    -0.122 NA
HETATM    5  N   UNL     1      39.262 -14.735   1.057  1.00  0.00    -0.131 NA
ENDROOT
BRANCH   3   6
HETATM    6  S   UNL     1      42.695 -14.018   2.640  1.00  0.00    -0.070 SA
BRANCH   6   7
HETATM    7  C   UNL     1      42.360 -15.050   4.123  1.00  0.00     0.180 C 
BRANCH   7   8
HETATM    8  C   UNL     1      42.705 -14.335   5.452  1.00  0.00     0.244 C 
HETATM    9  N   UNL     1      41.681 -14.062   6.338  1.00  0.00    -0.278 N 
HETATM   10  C   UNL     1      40.418 -13.664   5.987  1.00  0.00     0.320 C 
HETATM   11  H   UNL     1      42.017 -13.643   7.189  1.00  0.00     0.173 HD
HETATM   12  N   UNL     1      39.653 -13.307   7.052  1.00  0.00    -0.352 N 
HETATM   13  O   UNL     1      39.950 -13.659   4.860  1.00  0.00    -0.247 OA
HETATM   14  H   UNL     1      40.034 -13.004   7.935  1.00  0.00     0.160 HD
HETATM   15  H   UNL     1      38.721 -12.975   6.826  1.00  0.00     0.160 HD
HETATM   16  O   UNL     1      43.836 -13.934   5.761  1.00  0.00    -0.271 OA
ENDBRANCH   7   8
BRANCH   7  17
HETATM   17  C   UNL     1      42.932 -16.453   3.963  1.00  0.00    -0.035 A 
HETATM   18  C   UNL     1      43.459 -16.835   2.716  1.00  0.00     0.009 A 
HETATM   19  C   UNL     1      44.003 -18.106   2.523  1.00  0.00     0.001 A 
HETATM   20  C   UNL     1      44.031 -19.016   3.575  1.00  0.00     0.000 A 
HETATM   21  C   UNL     1      43.520 -18.654   4.820  1.00  0.00     0.001 A 
HETATM   22  C   UNL     1      42.978 -17.381   5.015  1.00  0.00     0.009 A 
ENDBRANCH   7  17
ENDBRANCH   6   7
ENDBRANCH   3   6
BRANCH   2  23
HETATM   23  C   UNL     1      41.700 -12.320   0.025  1.00  0.00     0.043 A 
HETATM   24  C   UNL     1      41.721 -11.029   0.576  1.00  0.00     0.033 A 
HETATM   25  C   UNL     1      42.468 -10.026  -0.043  1.00  0.00     0.044 A 
HETATM   26  C   UNL     1      43.186 -10.311  -1.198  1.00  0.00     0.116 A 
HETATM   27  F   UNL     1      43.895  -9.343  -1.789  1.00  0.00    -0.206 F 
HETATM   28  C   UNL     1      43.178 -11.588  -1.748  1.00  0.00     0.044 A 
HETATM   29  C   UNL     1      42.434 -12.600  -1.137  1.00  0.00     0.033 A 
ENDBRANCH   2  23
BRANCH   1  30
HETATM   30  C   UNL     1      38.943 -13.370  -1.000  1.00  0.00     0.255 C 
HETATM   31  C   UNL     1      37.566 -12.785  -0.674  1.00  0.00     0.049 C 
BRANCH  30  32
HETATM   32  N   UNL     1      38.784 -14.494  -2.045  1.00  0.00    -0.060 N 
HETATM   33  H   UNL     1      38.312 -15.260  -1.550  1.00  0.00     0.280 HD
HETATM   34  C   UNL     1      37.869 -14.075  -3.179  1.00  0.00     0.236 C 
HETATM   35  C   UNL     1      37.532 -15.295  -4.026  1.00  0.00     0.028 C 
HETATM   36  C   UNL     1      38.786 -15.987  -4.548  1.00  0.00     0.003 C 
HETATM   37  C   UNL     1      39.758 -16.308  -3.415  1.00  0.00     0.028 C 
HETATM   38  C   UNL     1      40.081 -15.066  -2.589  1.00  0.00     0.236 C 
ENDBRANCH  30  32
ENDBRANCH   1  30
TORSDOF 7
ENDMDL
MODEL 4
REMARK VINA RESULT:      -8.1      1.761      2.172
REMARK  7 active torsions:
REMARK  status: ('A' for Active; 'I' for Inactive)
REMARK    1  A    between atoms: C_2  and  N_3 
REMARK    2  A    between atoms: C_2  and  C_10 
REMARK    3  A    between atoms: N_11  and  C_12 
REMARK    4  A    between atoms: C_19  and  S_20 
REMARK    5  A    between atoms: S_20  and  C_21 
REMARK    6  A    between atoms: C_21  and  C_22 
REMARK    7  A    between atoms: C_21  and  C_28 
REMARK       I    between atoms: C_22  and  N_23 
REMARK       I    between atoms: N_23  and  C_24 
REMARK       I    between atoms: C_24  and  N_25 
ROOT
HETATM    1  C   UNL     1      41.162 -13.737   1.228  1.00  0.00     0.166 A 
HETATM    2  N   UNL     1      41.235 -14.769   2.160  1.00  0.00    -0.274 N 
HETATM    3  C   UNL     1      40.438 -14.336   3.204  1.00  0.00     0.197 A 
HETATM    4  N   UNL     1      39.983 -13.131   2.951  1.00  0.00    -0.122 NA
HETATM    5  N   UNL     1      40.443 -12.750   1.724  1.00  0.00    -0.131 NA
ENDROOT
BRANCH   3   6
HETATM    6  S   UNL     1      40.222 -15.196   4.686  1.00  0.00    -0.070 SA
BRANCH   6   7
HETATM    7  C   UNL     1      41.716 -14.766   5.666  1.00  0.00     0.180 C 
BRANCH   7   8
HETATM    8  C   UNL     1      42.392 -13.455   5.200  1.00  0.00     0.244 C 
HETATM    9  N   UNL     1      42.106 -12.287   5.883  1.00  0.00    -0.278 N 
HETATM   10  C   UNL     1      40.878 -11.946   6.384  1.00  0.00     0.320 C 
HETATM   11  H   UNL     1      42.633 -11.504   5.533  1.00  0.00     0.173 HD
HETATM   12  N   UNL     1      40.829 -10.677   6.869  1.00  0.00    -0.352 N 
HETATM   13  O   UNL     1      39.904 -12.677   6.466  1.00  0.00    -0.247 OA
HETATM   14  H   UNL     1      41.459  -9.946   6.578  1.00  0.00     0.160 HD
HETATM   15  H   UNL     1      39.925 -10.380   7.219  1.00  0.00     0.160 HD
HETATM   16  O   UNL     1      43.136 -13.359   4.214  1.00  0.00    -0.271 OA
ENDBRANCH   7   8
BRANCH   7  17
HETATM   17  C   UNL     1      42.642 -15.965   5.821  1.00  0.00    -0.035 A 
HETATM   18  C   UNL     1      42.209 -17.224   5.364  1.00  0.00     0.009 A 
HETATM   19  C   UNL     1      43.026 -18.350   5.474  1.00  0.00     0.001 A 
HETATM   20  C   UNL     1      44.291 -18.237   6.040  1.00  0.00     0.000 A 
HETATM   21  C   UNL     1      44.742 -16.998   6.491  1.00  0.00     0.001 A 
HETATM   22  C   UNL     1      43.926 -15.869   6.379  1.00  0.00     0.009 A 
ENDBRANCH   7  17
ENDBRANCH   6   7
ENDBRANCH   3   6
BRANCH   2  23
HETATM   23  C   UNL     1      41.915 -16.004   2.005  1.00  0.00     0.043 A 
HETATM   24  C   UNL     1      41.186 -17.169   1.717  1.00  0.00     0.033 A 
HETATM   25  C   UNL     1      41.855 -18.387   1.585  1.00  0.00     0.044 A 
HETATM   26  C   UNL     1      43.236 -18.438   1.737  1.00  0.00     0.116 A 
HETATM   27  F   UNL     1      43.869 -19.611   1.614  1.00  0.00    -0.206 F 
HETATM   28  C   UNL     1      43.967 -17.290   2.015  1.00  0.00     0.044 A 
HETATM   29  C   UNL     1      43.309 -16.065   2.149  1.00  0.00     0.033 A 
ENDBRANCH   2  23
BRANCH   1  30
HETATM   30  C   UNL     1      41.663 -13.788  -0.181  1.00  0.00     0.255 C 
HETATM   31  C   UNL     1      42.076 -12.397  -0.672  1.00  0.00     0.049 C 
BRANCH  30  32
HETATM   32  N   UNL     1      40.675 -14.411  -1.189  1.00  0.00    -0.060 N 
HETATM   33  H   UNL     1      40.211 -15.171  -0.679  1.00  0.00     0.280 HD
HETATM   34  C   UNL     1      39.594 -13.427  -1.591  1.00  0.00     0.236 C 
HETATM   35  C   UNL     1      38.507 -14.166  -2.360  1.00  0.00     0.028 C 
HETATM   36  C   UNL     1      39.070 -14.902  -3.571  1.00  0.00     0.003 C 
HETATM   37  C   UNL     1      40.234 -15.808  -3.181  1.00  0.00     0.028 C 
HETATM   38  C   UNL     1      41.308 -15.039  -2.418  1.00  0.00     0.236 C 
ENDBRANCH  30  32
ENDBRANCH   1  30
TORSDOF 7
ENDMDL
MODEL 5
REMARK VINA RESULT:      -8.1      3.103      7.882
REMARK  7 active torsions:
REMARK  status: ('A' for Active; 'I' for Inactive)
REMARK    1  A    between atoms: C_2  and  N_3 
REMARK    2  A    between atoms: C_2  and  C_10 
REMARK    3  A    between atoms: N_11  and  C_12 
REMARK    4  A    between atoms: C_19  and  S_20 
REMARK    5  A    between atoms: S_20  and  C_21 
REMARK    6  A    between atoms: C_21  and  C_22 
REMARK    7  A    between atoms: C_21  and  C_28 
REMARK       I    between atoms: C_22  and  N_23 
REMARK       I    between atoms: N_23  and  C_24 
REMARK       I    between atoms: C_24  and  N_25 
ROOT
HETATM    1  C   UNL     1      43.172 -13.739   4.618  1.00  0.00     0.166 A 
HETATM    2  N   UNL     1      42.086 -12.876   4.501  1.00  0.00    -0.274 N 
HETATM    3  C   UNL     1      41.994 -12.635   3.142  1.00  0.00     0.197 A 
HETATM    4  N   UNL     1      42.973 -13.242   2.512  1.00  0.00    -0.122 NA
HETATM    5  N   UNL     1      43.716 -13.922   3.432  1.00  0.00    -0.131 NA
ENDROOT
BRANCH   3   6
HETATM    6  S   UNL     1      40.857 -11.555   2.419  1.00  0.00    -0.070 SA
BRANCH   6   7
HETATM    7  C   UNL     1      39.488 -12.655   1.876  1.00  0.00     0.180 C 
BRANCH   7   8
HETATM    8  C   UNL     1      39.897 -13.617   0.734  1.00  0.00     0.244 C 
HETATM    9  N   UNL     1      39.679 -14.971   0.903  1.00  0.00    -0.278 N 
HETATM   10  C   UNL     1      39.839 -15.656   2.077  1.00  0.00     0.320 C 
HETATM   11  H   UNL     1      39.933 -15.501   0.085  1.00  0.00     0.173 HD
HETATM   12  N   UNL     1      39.714 -17.002   1.935  1.00  0.00    -0.352 N 
HETATM   13  O   UNL     1      40.022 -15.166   3.180  1.00  0.00    -0.247 OA
HETATM   14  H   UNL     1      39.862 -17.485   1.062  1.00  0.00     0.160 HD
HETATM   15  H   UNL     1      39.859 -17.544   2.780  1.00  0.00     0.160 HD
HETATM   16  O   UNL     1      40.466 -13.266  -0.310  1.00  0.00    -0.271 OA
ENDBRANCH   7   8
BRANCH   7  17
HETATM   17  C   UNL     1      38.203 -11.871   1.646  1.00  0.00    -0.035 A 
HETATM   18  C   UNL     1      37.259 -12.364   0.727  1.00  0.00     0.009 A 
HETATM   19  C   UNL     1      36.062 -11.687   0.490  1.00  0.00     0.001 A 
HETATM   20  C   UNL     1      35.787 -10.505   1.170  1.00  0.00     0.000 A 
HETATM   21  C   UNL     1      36.706 -10.003   2.089  1.00  0.00     0.001 A 
HETATM   22  C   UNL     1      37.904 -10.682   2.329  1.00  0.00     0.009 A 
ENDBRANCH   7  17
ENDBRANCH   6   7
ENDBRANCH   3   6
BRANCH   2  23
HETATM   23  C   UNL     1      41.237 -12.433   5.548  1.00  0.00     0.043 A 
HETATM   24  C   UNL     1      41.602 -11.314   6.313  1.00  0.00     0.033 A 
HETATM   25  C   UNL     1      40.776 -10.892   7.356  1.00  0.00     0.044 A 
HETATM   26  C   UNL     1      39.599 -11.580   7.629  1.00  0.00     0.116 A 
HETATM   27  F   UNL     1      38.815 -11.172   8.633  1.00  0.00    -0.206 F 
HETATM   28  C   UNL     1      39.226 -12.685   6.872  1.00  0.00     0.044 A 
HETATM   29  C   UNL     1      40.044 -13.116   5.826  1.00  0.00     0.033 A 
ENDBRANCH   2  23
BRANCH   1  30
HETATM   30  C   UNL     1      43.570 -14.487   5.851  1.00  0.00     0.255 C 
HETATM   31  C   UNL     1      44.861 -13.922   6.450  1.00  0.00     0.049 C 
BRANCH  30  32
HETATM   32  N   UNL     1      43.725 -16.010   5.654  1.00  0.00    -0.060 N 
HETATM   33  H   UNL     1      44.320 -16.117   4.824  1.00  0.00     0.280 HD
HETATM   34  C   UNL     1      44.468 -16.649   6.811  1.00  0.00     0.236 C 
HETATM   35  C   UNL     1      44.829 -18.082   6.442  1.00  0.00     0.028 C 
HETATM   36  C   UNL     1      43.600 -18.895   6.051  1.00  0.00     0.003 C 
HETATM   37  C   UNL     1      42.791 -18.193   4.963  1.00  0.00     0.028 C 
HETATM   38  C   UNL     1      42.439 -16.764   5.364  1.00  0.00     0.236 C 
ENDBRANCH  30  32
ENDBRANCH   1  30
TORSDOF 7
ENDMDL
MODEL 6
REMARK VINA RESULT:      -8.0      2.897      7.320
REMARK  7 active torsions:
REMARK  status: ('A' for Active; 'I' for Inactive)
REMARK    1  A    between atoms: C_2  and  N_3 
REMARK    2  A    between atoms: C_2  and  C_10 
REMARK    3  A    between atoms: N_11  and  C_12 
REMARK    4  A    between atoms: C_19  and  S_20 
REMARK    5  A    between atoms: S_20  and  C_21 
REMARK    6  A    between atoms: C_21  and  C_22 
REMARK    7  A    between atoms: C_21  and  C_28 
REMARK       I    between atoms: C_22  and  N_23 
REMARK       I    between atoms: N_23  and  C_24 
REMARK       I    between atoms: C_24  and  N_25 
ROOT
HETATM    1  C   UNL     1      42.601 -17.560   2.509  1.00  0.00     0.166 A 
HETATM    2  N   UNL     1      41.802 -16.454   2.784  1.00  0.00    -0.274 N 
HETATM    3  C   UNL     1      40.702 -16.622   1.962  1.00  0.00     0.197 A 
HETATM    4  N   UNL     1      40.858 -17.691   1.216  1.00  0.00    -0.122 NA
HETATM    5  N   UNL     1      42.048 -18.272   1.548  1.00  0.00    -0.131 NA
ENDROOT
BRANCH   3   6
HETATM    6  S   UNL     1      39.405 -15.489   1.827  1.00  0.00    -0.070 SA
BRANCH   6   7
HETATM    7  C   UNL     1      40.113 -14.127   0.816  1.00  0.00     0.180 C 
BRANCH   7   8
HETATM    8  C   UNL     1      39.633 -12.725   1.263  1.00  0.00     0.244 C 
HETATM    9  N   UNL     1      40.385 -11.624   0.900  1.00  0.00    -0.278 N 
HETATM   10  C   UNL     1      41.753 -11.582   0.858  1.00  0.00     0.320 C 
HETATM   11  H   UNL     1      39.961 -10.760   1.197  1.00  0.00     0.173 HD
HETATM   12  N   UNL     1      42.244 -10.336   0.625  1.00  0.00    -0.352 N 
HETATM   13  O   UNL     1      42.508 -12.536   0.956  1.00  0.00    -0.247 OA
HETATM   14  H   UNL     1      41.735  -9.490   0.827  1.00  0.00     0.160 HD
HETATM   15  H   UNL     1      43.256 -10.262   0.619  1.00  0.00     0.160 HD
HETATM   16  O   UNL     1      38.643 -12.517   1.980  1.00  0.00    -0.271 OA
ENDBRANCH   7   8
BRANCH   7  17
HETATM   17  C   UNL     1      39.990 -14.419  -0.674  1.00  0.00    -0.035 A 
HETATM   18  C   UNL     1      41.019 -15.134  -1.314  1.00  0.00     0.009 A 
HETATM   19  C   UNL     1      40.947 -15.436  -2.675  1.00  0.00     0.001 A 
HETATM   20  C   UNL     1      39.844 -15.030  -3.418  1.00  0.00     0.000 A 
HETATM   21  C   UNL     1      38.811 -14.327  -2.802  1.00  0.00     0.001 A 
HETATM   22  C   UNL     1      38.881 -14.028  -1.438  1.00  0.00     0.009 A 
ENDBRANCH   7  17
ENDBRANCH   6   7
ENDBRANCH   3   6
BRANCH   2  23
HETATM   23  C   UNL     1      42.050 -15.448   3.753  1.00  0.00     0.043 A 
HETATM   24  C   UNL     1      43.130 -14.568   3.581  1.00  0.00     0.033 A 
HETATM   25  C   UNL     1      43.386 -13.591   4.546  1.00  0.00     0.044 A 
HETATM   26  C   UNL     1      42.568 -13.496   5.667  1.00  0.00     0.116 A 
HETATM   27  F   UNL     1      42.822 -12.561   6.590  1.00  0.00    -0.206 F 
HETATM   28  C   UNL     1      41.492 -14.358   5.842  1.00  0.00     0.044 A 
HETATM   29  C   UNL     1      41.227 -15.339   4.883  1.00  0.00     0.033 A 
ENDBRANCH   2  23
BRANCH   1  30
HETATM   30  C   UNL     1      43.807 -17.987   3.284  1.00  0.00     0.255 C 
HETATM   31  C   UNL     1      44.526 -19.150   2.595  1.00  0.00     0.049 C 
BRANCH  30  32
HETATM   32  N   UNL     1      43.523 -18.364   4.754  1.00  0.00    -0.060 N 
HETATM   33  H   UNL     1      42.504 -18.466   4.815  1.00  0.00     0.280 HD
HETATM   34  C   UNL     1      44.121 -19.711   5.109  1.00  0.00     0.236 C 
HETATM   35  C   UNL     1      43.586 -20.153   6.465  1.00  0.00     0.028 C 
HETATM   36  C   UNL     1      43.862 -19.117   7.549  1.00  0.00     0.003 C 
HETATM   37  C   UNL     1      43.358 -17.736   7.140  1.00  0.00     0.028 C 
HETATM   38  C   UNL     1      43.915 -17.318   5.782  1.00  0.00     0.236 C 
ENDBRANCH  30  32
ENDBRANCH   1  30
TORSDOF 7
ENDMDL
MODEL 7
REMARK VINA RESULT:      -7.9      2.674      5.886
REMARK  7 active torsions:
REMARK  status: ('A' for Active; 'I' for Inactive)
REMARK    1  A    between atoms: C_2  and  N_3 
REMARK    2  A    between atoms: C_2  and  C_10 
REMARK    3  A    between atoms: N_11  and  C_12 
REMARK    4  A    between atoms: C_19  and  S_20 
REMARK    5  A    between atoms: S_20  and  C_21 
REMARK    6  A    between atoms: C_21  and  C_22 
REMARK    7  A    between atoms: C_21  and  C_28 
REMARK       I    between atoms: C_22  and  N_23 
REMARK       I    between atoms: N_23  and  C_24 
REMARK       I    between atoms: C_24  and  N_25 
ROOT
HETATM    1  C   UNL     1      40.817 -13.377   4.928  1.00  0.00     0.166 A 
HETATM    2  N   UNL     1      41.855 -14.293   4.789  1.00  0.00    -0.274 N 
HETATM    3  C   UNL     1      42.306 -14.097   3.496  1.00  0.00     0.197 A 
HETATM    4  N   UNL     1      41.565 -13.194   2.895  1.00  0.00    -0.122 NA
HETATM    5  N   UNL     1      40.628 -12.751   3.783  1.00  0.00    -0.131 NA
ENDROOT
BRANCH   3   6
HETATM    6  S   UNL     1      43.550 -15.031   2.745  1.00  0.00    -0.070 SA
BRANCH   6   7
HETATM    7  C   UNL     1      42.645 -16.437   1.981  1.00  0.00     0.180 C 
BRANCH   7   8
HETATM    8  C   UNL     1      41.107 -16.289   2.069  1.00  0.00     0.244 C 
HETATM    9  N   UNL     1      40.411 -15.953   0.923  1.00  0.00    -0.278 N 
HETATM   10  C   UNL     1      40.843 -15.072  -0.033  1.00  0.00     0.320 C 
HETATM   11  H   UNL     1      39.417 -15.932   1.076  1.00  0.00     0.173 HD
HETATM   12  N   UNL     1      39.901 -14.798  -0.974  1.00  0.00    -0.352 N 
HETATM   13  O   UNL     1      41.960 -14.589  -0.117  1.00  0.00    -0.247 OA
HETATM   14  H   UNL     1      38.911 -14.906  -0.819  1.00  0.00     0.160 HD
HETATM   15  H   UNL     1      40.176 -14.123  -1.680  1.00  0.00     0.160 HD
HETATM   16  O   UNL     1      40.449 -16.396   3.113  1.00  0.00    -0.271 OA
ENDBRANCH   7   8
BRANCH   7  17
HETATM   17  C   UNL     1      43.205 -17.775   2.446  1.00  0.00    -0.035 A 
HETATM   18  C   UNL     1      43.751 -17.872   3.739  1.00  0.00     0.009 A 
HETATM   19  C   UNL     1      44.267 -19.080   4.214  1.00  0.00     0.001 A 
HETATM   20  C   UNL     1      44.244 -20.210   3.404  1.00  0.00     0.000 A 
HETATM   21  C   UNL     1      43.702 -20.136   2.123  1.00  0.00     0.001 A 
HETATM   22  C   UNL     1      43.182 -18.929   1.648  1.00  0.00     0.009 A 
ENDBRANCH   7  17
ENDBRANCH   6   7
ENDBRANCH   3   6
BRANCH   2  23
HETATM   23  C   UNL     1      42.363 -15.158   5.792  1.00  0.00     0.043 A 
HETATM   24  C   UNL     1      43.600 -14.876   6.394  1.00  0.00     0.033 A 
HETATM   25  C   UNL     1      44.108 -15.740   7.366  1.00  0.00     0.044 A 
HETATM   26  C   UNL     1      43.385 -16.869   7.734  1.00  0.00     0.116 A 
HETATM   27  F   UNL     1      43.881 -17.694   8.663  1.00  0.00    -0.206 F 
HETATM   28  C   UNL     1      42.156 -17.152   7.150  1.00  0.00     0.044 A 
HETATM   29  C   UNL     1      41.639 -16.296   6.176  1.00  0.00     0.033 A 
ENDBRANCH   2  23
BRANCH   1  30
HETATM   30  C   UNL     1      40.129 -13.016   6.207  1.00  0.00     0.255 C 
HETATM   31  C   UNL     1      38.649 -13.407   6.168  1.00  0.00     0.049 C 
BRANCH  30  32
HETATM   32  N   UNL     1      40.252 -11.529   6.603  1.00  0.00    -0.060 N 
HETATM   33  H   UNL     1      39.856 -11.005   5.814  1.00  0.00     0.280 HD
HETATM   34  C   UNL     1      39.403 -11.204   7.817  1.00  0.00     0.236 C 
HETATM   35  C   UNL     1      39.346  -9.693   7.996  1.00  0.00     0.028 C 
HETATM   36  C   UNL     1      40.739  -9.082   8.108  1.00  0.00     0.003 C 
HETATM   37  C   UNL     1      41.628  -9.503   6.942  1.00  0.00     0.028 C 
HETATM   38  C   UNL     1      41.670 -11.020   6.791  1.00  0.00     0.236 C 
ENDBRANCH  30  32
ENDBRANCH   1  30
TORSDOF 7
ENDMDL
MODEL 8
REMARK VINA RESULT:      -7.8      2.747      4.218
REMARK  7 active torsions:
REMARK  status: ('A' for Active; 'I' for Inactive)
REMARK    1  A    between atoms: C_2  and  N_3 
REMARK    2  A    between atoms: C_2  and  C_10 
REMARK    3  A    between atoms: N_11  and  C_12 
REMARK    4  A    between atoms: C_19  and  S_20 
REMARK    5  A    between atoms: S_20  and  C_21 
REMARK    6  A    between atoms: C_21  and  C_22 
REMARK    7  A    between atoms: C_21  and  C_28 
REMARK       I    between atoms: C_22  and  N_23 
REMARK       I    between atoms: N_23  and  C_24 
REMARK       I    between atoms: C_24  and  N_25 
ROOT
HETATM    1  C   UNL     1      39.703 -12.893   2.476  1.00  0.00     0.166 A 
HETATM    2  N   UNL     1      40.257 -13.930   1.732  1.00  0.00    -0.274 N 
HETATM    3  C   UNL     1      40.282 -14.998   2.611  1.00  0.00     0.197 A 
HETATM    4  N   UNL     1      39.845 -14.618   3.790  1.00  0.00    -0.122 NA
HETATM    5  N   UNL     1      39.494 -13.302   3.711  1.00  0.00    -0.131 NA
ENDROOT
BRANCH   3   6
HETATM    6  S   UNL     1      40.951 -16.548   2.243  1.00  0.00    -0.070 SA
BRANCH   6   7
HETATM    7  C   UNL     1      42.254 -16.779   3.519  1.00  0.00     0.180 C 
BRANCH   7   8
HETATM    8  C   UNL     1      43.158 -15.536   3.697  1.00  0.00     0.244 C 
HETATM    9  N   UNL     1      43.601 -15.219   4.968  1.00  0.00    -0.278 N 
HETATM   10  C   UNL     1      42.863 -15.342   6.114  1.00  0.00     0.320 C 
HETATM   11  H   UNL     1      44.221 -14.426   4.966  1.00  0.00     0.173 HD
HETATM   12  N   UNL     1      43.475 -14.813   7.206  1.00  0.00    -0.352 N 
HETATM   13  O   UNL     1      41.785 -15.905   6.222  1.00  0.00    -0.247 OA
HETATM   14  H   UNL     1      44.184 -14.097   7.155  1.00  0.00     0.160 HD
HETATM   15  H   UNL     1      42.942 -14.857   8.068  1.00  0.00     0.160 HD
HETATM   16  O   UNL     1      43.473 -14.760   2.784  1.00  0.00    -0.271 OA
ENDBRANCH   7   8
BRANCH   7  17
HETATM   17  C   UNL     1      42.984 -18.102   3.333  1.00  0.00    -0.035 A 
HETATM   18  C   UNL     1      42.899 -18.758   2.091  1.00  0.00     0.009 A 
HETATM   19  C   UNL     1      43.559 -19.967   1.868  1.00  0.00     0.001 A 
HETATM   20  C   UNL     1      44.317 -20.541   2.884  1.00  0.00     0.000 A 
HETATM   21  C   UNL     1      44.419 -19.905   4.119  1.00  0.00     0.001 A 
HETATM   22  C   UNL     1      43.761 -18.692   4.341  1.00  0.00     0.009 A 
ENDBRANCH   7  17
ENDBRANCH   6   7
ENDBRANCH   3   6
BRANCH   2  23
HETATM   23  C   UNL     1      40.625 -13.889   0.362  1.00  0.00     0.043 A 
HETATM   24  C   UNL     1      41.798 -13.221  -0.024  1.00  0.00     0.033 A 
HETATM   25  C   UNL     1      42.147 -13.165  -1.375  1.00  0.00     0.044 A 
HETATM   26  C   UNL     1      41.334 -13.771  -2.325  1.00  0.00     0.116 A 
HETATM   27  F   UNL     1      41.673 -13.708  -3.618  1.00  0.00    -0.206 F 
HETATM   28  C   UNL     1      40.175 -14.441  -1.952  1.00  0.00     0.044 A 
HETATM   29  C   UNL     1      39.816 -14.505  -0.604  1.00  0.00     0.033 A 
ENDBRANCH   2  23
BRANCH   1  30
HETATM   30  C   UNL     1      39.246 -11.573   1.939  1.00  0.00     0.255 C 
HETATM   31  C   UNL     1      38.824 -10.631   3.070  1.00  0.00     0.049 C 
BRANCH  30  32
HETATM   32  N   UNL     1      38.108 -11.663   0.900  1.00  0.00    -0.060 N 
HETATM   33  H   UNL     1      37.912 -12.666   0.800  1.00  0.00     0.280 HD
HETATM   34  C   UNL     1      36.835 -11.017   1.412  1.00  0.00     0.236 C 
HETATM   35  C   UNL     1      35.686 -11.370   0.477  1.00  0.00     0.028 C 
HETATM   36  C   UNL     1      35.979 -10.964  -0.963  1.00  0.00     0.003 C 
HETATM   37  C   UNL     1      37.317 -11.524  -1.438  1.00  0.00     0.028 C 
HETATM   38  C   UNL     1      38.449 -11.148  -0.486  1.00  0.00     0.236 C 
ENDBRANCH  30  32
ENDBRANCH   1  30
TORSDOF 7
ENDMDL
MODEL 9
REMARK VINA RESULT:      -7.7      3.661      7.730
REMARK  7 active torsions:
REMARK  status: ('A' for Active; 'I' for Inactive)
REMARK    1  A    between atoms: C_2  and  N_3 
REMARK    2  A    between atoms: C_2  and  C_10 
REMARK    3  A    between atoms: N_11  and  C_12 
REMARK    4  A    between atoms: C_19  and  S_20 
REMARK    5  A    between atoms: S_20  and  C_21 
REMARK    6  A    between atoms: C_21  and  C_22 
REMARK    7  A    between atoms: C_21  and  C_28 
REMARK       I    between atoms: C_22  and  N_23 
REMARK       I    between atoms: N_23  and  C_24 
REMARK       I    between atoms: C_24  and  N_25 
ROOT
HETATM    1  C   UNL     1      43.923 -13.677   6.935  1.00  0.00     0.166 A 
HETATM    2  N   UNL     1      42.716 -13.696   6.242  1.00  0.00    -0.274 N 
HETATM    3  C   UNL     1      42.520 -15.032   5.945  1.00  0.00     0.197 A 
HETATM    4  N   UNL     1      43.544 -15.739   6.363  1.00  0.00    -0.122 NA
HETATM    5  N   UNL     1      44.426 -14.895   6.971  1.00  0.00    -0.131 NA
ENDROOT
BRANCH   3   6
HETATM    6  S   UNL     1      41.199 -15.640   5.012  1.00  0.00    -0.070 SA
BRANCH   6   7
HETATM    7  C   UNL     1      41.757 -15.435   3.273  1.00  0.00     0.180 C 
BRANCH   7   8
HETATM    8  C   UNL     1      40.637 -14.932   2.331  1.00  0.00     0.244 C 
HETATM    9  N   UNL     1      40.992 -14.173   1.231  1.00  0.00    -0.278 N 
HETATM   10  C   UNL     1      41.984 -13.230   1.210  1.00  0.00     0.320 C 
HETATM   11  H   UNL     1      40.198 -13.940   0.659  1.00  0.00     0.173 HD
HETATM   12  N   UNL     1      42.022 -12.516   0.054  1.00  0.00    -0.352 N 
HETATM   13  O   UNL     1      42.815 -13.036   2.084  1.00  0.00    -0.247 OA
HETATM   14  H   UNL     1      41.229 -12.406  -0.558  1.00  0.00     0.160 HD
HETATM   15  H   UNL     1      42.725 -11.786   0.017  1.00  0.00     0.160 HD
HETATM   16  O   UNL     1      39.426 -15.112   2.520  1.00  0.00    -0.271 OA
ENDBRANCH   7   8
BRANCH   7  17
HETATM   17  C   UNL     1      42.524 -16.658   2.789  1.00  0.00    -0.035 A 
HETATM   18  C   UNL     1      42.451 -17.848   3.537  1.00  0.00     0.009 A 
HETATM   19  C   UNL     1      43.128 -18.998   3.129  1.00  0.00     0.001 A 
HETATM   20  C   UNL     1      43.887 -18.980   1.963  1.00  0.00     0.000 A 
HETATM   21  C   UNL     1      43.967 -17.814   1.205  1.00  0.00     0.001 A 
HETATM   22  C   UNL     1      43.287 -16.662   1.611  1.00  0.00     0.009 A 
ENDBRANCH   7  17
ENDBRANCH   6   7
ENDBRANCH   3   6
BRANCH   2  23
HETATM   23  C   UNL     1      41.867 -12.588   5.988  1.00  0.00     0.043 A 
HETATM   24  C   UNL     1      40.848 -12.268   6.899  1.00  0.00     0.033 A 
HETATM   25  C   UNL     1      40.000 -11.190   6.637  1.00  0.00     0.044 A 
HETATM   26  C   UNL     1      40.172 -10.441   5.479  1.00  0.00     0.116 A 
HETATM   27  F   UNL     1      39.352  -9.412   5.233  1.00  0.00    -0.206 F 
HETATM   28  C   UNL     1      41.182 -10.745   4.574  1.00  0.00     0.044 A 
HETATM   29  C   UNL     1      42.036 -11.821   4.826  1.00  0.00     0.033 A 
ENDBRANCH   2  23
BRANCH   1  30
HETATM   30  C   UNL     1      44.491 -12.510   7.679  1.00  0.00     0.255 C 
HETATM   31  C   UNL     1      46.002 -12.658   7.873  1.00  0.00     0.049 C 
BRANCH  30  32
HETATM   32  N   UNL     1      43.827 -12.238   9.046  1.00  0.00    -0.060 N 
HETATM   33  H   UNL     1      43.107 -12.962   9.147  1.00  0.00     0.280 HD
HETATM   34  C   UNL     1      44.806 -12.431  10.189  1.00  0.00     0.236 C 
HETATM   35  C   UNL     1      44.043 -12.420  11.507  1.00  0.00     0.028 C 
HETATM   36  C   UNL     1      43.228 -11.143  11.680  1.00  0.00     0.003 C 
HETATM   37  C   UNL     1      42.325 -10.891  10.475  1.00  0.00     0.028 C 
HETATM   38  C   UNL     1      43.117 -10.902   9.172  1.00  0.00     0.236 C 
ENDBRANCH  30  32
ENDBRANCH   1  30
TORSDOF 7
ENDMDL
MODEL 10
REMARK VINA RESULT:      -7.7      3.947      7.625
REMARK  7 active torsions:
REMARK  status: ('A' for Active; 'I' for Inactive)
REMARK    1  A    between atoms: C_2  and  N_3 
REMARK    2  A    between atoms: C_2  and  C_10 
REMARK    3  A    between atoms: N_11  and  C_12 
REMARK    4  A    between atoms: C_19  and  S_20 
REMARK    5  A    between atoms: S_20  and  C_21 
REMARK    6  A    between atoms: C_21  and  C_22 
REMARK    7  A    between atoms: C_21  and  C_28 
REMARK       I    between atoms: C_22  and  N_23 
REMARK       I    between atoms: N_23  and  C_24 
REMARK       I    between atoms: C_24  and  N_25 
ROOT
HETATM    1  C   UNL     1      44.004 -14.815   7.191  1.00  0.00     0.166 A 
HETATM    2  N   UNL     1      43.130 -15.345   6.246  1.00  0.00    -0.274 N 
HETATM    3  C   UNL     1      42.795 -16.585   6.758  1.00  0.00     0.197 A 
HETATM    4  N   UNL     1      43.456 -16.806   7.870  1.00  0.00    -0.122 NA
HETATM    5  N   UNL     1      44.220 -15.707   8.137  1.00  0.00    -0.131 NA
ENDROOT
BRANCH   3   6
HETATM    6  S   UNL     1      41.785 -17.731   5.950  1.00  0.00    -0.070 SA
BRANCH   6   7
HETATM    7  C   UNL     1      42.898 -18.500   4.706  1.00  0.00     0.180 C 
BRANCH   7   8
HETATM    8  C   UNL     1      44.366 -18.601   5.185  1.00  0.00     0.244 C 
HETATM    9  N   UNL     1      44.957 -19.850   5.243  1.00  0.00    -0.278 N 
HETATM   10  C   UNL     1      44.329 -21.002   5.637  1.00  0.00     0.320 C 
HETATM   11  H   UNL     1      45.924 -19.800   5.518  1.00  0.00     0.173 HD
HETATM   12  N   UNL     1      45.175 -22.059   5.758  1.00  0.00    -0.352 N 
HETATM   13  O   UNL     1      43.131 -21.144   5.823  1.00  0.00    -0.247 OA
HETATM   14  H   UNL     1      46.166 -21.964   5.914  1.00  0.00     0.160 HD
HETATM   15  H   UNL     1      44.749 -22.922   6.079  1.00  0.00     0.160 HD
HETATM   16  O   UNL     1      45.045 -17.642   5.579  1.00  0.00    -0.271 OA
ENDBRANCH   7   8
BRANCH   7  17
HETATM   17  C   UNL     1      42.696 -17.888   3.327  1.00  0.00    -0.035 A 
HETATM   18  C   UNL     1      41.419 -17.416   2.972  1.00  0.00     0.009 A 
HETATM   19  C   UNL     1      41.187 -16.837   1.723  1.00  0.00     0.001 A 
HETATM   20  C   UNL     1      42.229 -16.717   0.809  1.00  0.00     0.000 A 
HETATM   21  C   UNL     1      43.502 -17.172   1.144  1.00  0.00     0.001 A 
HETATM   22  C   UNL     1      43.736 -17.749   2.395  1.00  0.00     0.009 A 
ENDBRANCH   7  17
ENDBRANCH   6   7
ENDBRANCH   3   6
BRANCH   2  23
HETATM   23  C   UNL     1      42.651 -14.698   5.078  1.00  0.00     0.043 A 
HETATM   24  C   UNL     1      43.531 -14.434   4.017  1.00  0.00     0.033 A 
HETATM   25  C   UNL     1      43.062 -13.779   2.877  1.00  0.00     0.044 A 
HETATM   26  C   UNL     1      41.728 -13.396   2.799  1.00  0.00     0.116 A 
HETATM   27  F   UNL     1      41.287 -12.764   1.705  1.00  0.00    -0.206 F 
HETATM   28  C   UNL     1      40.847 -13.660   3.841  1.00  0.00     0.044 A 
HETATM   29  C   UNL     1      41.305 -14.314   4.986  1.00  0.00     0.033 A 
ENDBRANCH   2  23
BRANCH   1  30
HETATM   30  C   UNL     1      44.494 -13.402   7.240  1.00  0.00     0.255 C 
HETATM   31  C   UNL     1      45.970 -13.314   6.839  1.00  0.00     0.049 C 
BRANCH  30  32
HETATM   32  N   UNL     1      44.294 -12.701   8.600  1.00  0.00    -0.060 N 
HETATM   33  H   UNL     1      43.850 -13.403   9.204  1.00  0.00     0.280 HD
HETATM   34  C   UNL     1      45.620 -12.345   9.244  1.00  0.00     0.236 C 
HETATM   35  C   UNL     1      45.376 -11.912  10.683  1.00  0.00     0.028 C 
HETATM   36  C   UNL     1      44.386 -10.756  10.768  1.00  0.00     0.003 C 
HETATM   37  C   UNL     1      43.093 -11.074  10.022  1.00  0.00     0.028 C 
HETATM   38  C   UNL     1      43.369 -11.498   8.583  1.00  0.00     0.236 C 
ENDBRANCH  30  32
ENDBRANCH   1  30
TORSDOF 7
ENDMDL
