MODEL 1
REMARK VINA RESULT:      -9.0      0.000      0.000
REMARK  7 active torsions:
REMARK  status: ('A' for Active; 'I' for Inactive)
REMARK    1  A    between atoms: C_3  and  C_4 
REMARK       I    between atoms: C_4  and  N_5 
REMARK    2  A    between atoms: N_5  and  C_6 
REMARK    3  A    between atoms: C_6  and  C_7 
REMARK    4  A    between atoms: C_7  and  O_8 
REMARK    5  A    between atoms: C_7  and  C_9 
REMARK    6  A    between atoms: C_18  and  N_19 
REMARK       I    between atoms: N_19  and  C_20 
REMARK    7  A    between atoms: C_20  and  C_21 
ROOT
HETATM    1  C   UNL     1      39.119 -12.869   5.766  1.00  0.00     0.050 C 
HETATM    2  C   UNL     1      40.506 -13.370   5.520  1.00  0.00    -0.037 A 
HETATM    3  C   UNL     1      41.672 -12.723   5.912  1.00  0.00     0.080 A 
HETATM    4  S   UNL     1      43.063 -13.602   5.422  1.00  0.00    -0.066 SA
HETATM    5  C   UNL     1      42.150 -14.862   4.767  1.00  0.00     0.078 A 
HETATM    6  C   UNL     1      40.800 -14.612   4.858  1.00  0.00     0.045 A 
ENDROOT
BRANCH   3   7
HETATM    7  C   UNL     1      41.806 -11.486   6.678  1.00  0.00     0.259 C 
HETATM    8  N   UNL     1      42.286 -11.634   7.960  1.00  0.00    -0.354 N 
HETATM    9  H   UNL     1      42.678 -12.532   8.218  1.00  0.00     0.162 HD
HETATM   10  O   UNL     1      41.516 -10.377   6.233  1.00  0.00    -0.267 OA
BRANCH   8  11
HETATM   11  C   UNL     1      42.452 -10.521   8.874  1.00  0.00     0.159 C 
BRANCH  11  12
HETATM   12  C   UNL     1      43.466 -10.810   9.999  1.00  0.00     0.169 C 
BRANCH  12  13
HETATM   13  O   UNL     1      44.013 -12.121   9.824  1.00  0.00    -0.389 OA
HETATM   14  H   UNL     1      43.623 -12.481   9.008  1.00  0.00     0.210 HD
ENDBRANCH  12  13
BRANCH  12  15
HETATM   15  C   UNL     1      42.887 -10.657  11.396  1.00  0.00    -0.028 A 
HETATM   16  C   UNL     1      43.623  -9.986  12.388  1.00  0.00     0.013 A 
HETATM   17  C   UNL     1      43.098  -9.823  13.672  1.00  0.00     0.043 A 
HETATM   18  C   UNL     1      41.836 -10.322  13.968  1.00  0.00     0.116 A 
HETATM   19  F   UNL     1      41.336 -10.164  15.200  1.00  0.00    -0.206 F 
HETATM   20  C   UNL     1      41.085 -10.980  13.003  1.00  0.00     0.043 A 
HETATM   21  C   UNL     1      41.608 -11.147  11.720  1.00  0.00     0.013 A 
ENDBRANCH  12  15
ENDBRANCH  11  12
ENDBRANCH   8  11
ENDBRANCH   3   7
BRANCH   5  22
HETATM   22  N   UNL     1      42.726 -16.010   4.252  1.00  0.00    -0.317 N 
HETATM   23  C   UNL     1      42.676 -17.279   4.794  1.00  0.00     0.258 C 
HETATM   24  O   UNL     1      42.206 -17.594   5.883  1.00  0.00    -0.267 OA
HETATM   25  H   UNL     1      43.234 -15.885   3.384  1.00  0.00     0.169 HD
BRANCH  23  26
HETATM   26  C   UNL     1      43.204 -18.384   3.932  1.00  0.00     0.054 A 
HETATM   27  C   UNL     1      42.792 -18.674   2.623  1.00  0.00     0.049 A 
HETATM   28 CL   UNL     1      41.632 -17.734   1.750  1.00  0.00    -0.083 Cl
HETATM   29  C   UNL     1      43.346 -19.765   1.937  1.00  0.00     0.025 A 
HETATM   30  C   UNL     1      44.317 -20.565   2.539  1.00  0.00     0.002 A 
HETATM   31  C   UNL     1      44.748 -20.278   3.829  1.00  0.00     0.001 A 
HETATM   32  C   UNL     1      44.197 -19.195   4.518  1.00  0.00     0.019 A 
ENDBRANCH  23  26
ENDBRANCH   5  22
TORSDOF 7
ENDMDL
MODEL 2
REMARK VINA RESULT:      -9.0      1.282      1.796
REMARK  7 active torsions:
REMARK  status: ('A' for Active; 'I' for Inactive)
REMARK    1  A    between atoms: C_3  and  C_4 
REMARK       I    between atoms: C_4  and  N_5 
REMARK    2  A    between atoms: N_5  and  C_6 
REMARK    3  A    between atoms: C_6  and  C_7 
REMARK    4  A    between atoms: C_7  and  O_8 
REMARK    5  A    between atoms: C_7  and  C_9 
REMARK    6  A    between atoms: C_18  and  N_19 
REMARK       I    between atoms: N_19  and  C_20 
REMARK    7  A    between atoms: C_20  and  C_21 
ROOT
HETATM    1  C   UNL     1      38.930 -12.775   5.811  1.00  0.00     0.050 C 
HETATM    2  C   UNL     1      40.254 -13.436   5.596  1.00  0.00    -0.037 A 
HETATM    3  C   UNL     1      41.487 -12.884   5.924  1.00  0.00     0.080 A 
HETATM    4  S   UNL     1      42.771 -13.940   5.497  1.00  0.00    -0.066 SA
HETATM    5  C   UNL     1      41.723 -15.148   4.956  1.00  0.00     0.078 A 
HETATM    6  C   UNL     1      40.408 -14.752   5.037  1.00  0.00     0.045 A 
ENDROOT
BRANCH   3   7
HETATM    7  C   UNL     1      41.761 -11.609   6.584  1.00  0.00     0.259 C 
HETATM    8  N   UNL     1      42.186 -11.699   7.889  1.00  0.00    -0.354 N 
HETATM    9  H   UNL     1      42.453 -12.612   8.238  1.00  0.00     0.162 HD
HETATM   10  O   UNL     1      41.626 -10.517   6.034  1.00  0.00    -0.267 OA
BRANCH   8  11
HETATM   11  C   UNL     1      42.472 -10.538   8.709  1.00  0.00     0.159 C 
BRANCH  11  12
HETATM   12  C   UNL     1      43.531 -10.810   9.795  1.00  0.00     0.169 C 
BRANCH  12  13
HETATM   13  O   UNL     1      44.073 -12.123   9.615  1.00  0.00    -0.389 OA
HETATM   14  H   UNL     1      44.909 -12.152  10.112  1.00  0.00     0.210 HD
ENDBRANCH  12  13
BRANCH  12  15
HETATM   15  C   UNL     1      43.009 -10.641  11.212  1.00  0.00    -0.028 A 
HETATM   16  C   UNL     1      41.807 -11.263  11.593  1.00  0.00     0.013 A 
HETATM   17  C   UNL     1      41.321 -11.130  12.896  1.00  0.00     0.043 A 
HETATM   18  C   UNL     1      42.035 -10.382  13.823  1.00  0.00     0.116 A 
HETATM   19  F   UNL     1      41.566 -10.256  15.072  1.00  0.00    -0.206 F 
HETATM   20  C   UNL     1      43.229  -9.765  13.475  1.00  0.00     0.043 A 
HETATM   21  C   UNL     1      43.715  -9.894  12.173  1.00  0.00     0.013 A 
ENDBRANCH  12  15
ENDBRANCH  11  12
ENDBRANCH   8  11
ENDBRANCH   3   7
BRANCH   5  22
HETATM   22  N   UNL     1      42.169 -16.387   4.534  1.00  0.00    -0.317 N 
HETATM   23  C   UNL     1      43.081 -16.643   3.529  1.00  0.00     0.258 C 
HETATM   24  O   UNL     1      43.574 -15.824   2.760  1.00  0.00    -0.267 OA
HETATM   25  H   UNL     1      41.773 -17.179   5.027  1.00  0.00     0.169 HD
BRANCH  23  26
HETATM   26  C   UNL     1      43.548 -18.060   3.409  1.00  0.00     0.054 A 
HETATM   27  C   UNL     1      44.314 -18.756   4.357  1.00  0.00     0.049 A 
HETATM   28 CL   UNL     1      44.789 -18.094   5.882  1.00  0.00    -0.083 Cl
HETATM   29  C   UNL     1      44.716 -20.076   4.104  1.00  0.00     0.025 A 
HETATM   30  C   UNL     1      44.354 -20.715   2.919  1.00  0.00     0.002 A 
HETATM   31  C   UNL     1      43.580 -20.043   1.979  1.00  0.00     0.001 A 
HETATM   32  C   UNL     1      43.179 -18.728   2.224  1.00  0.00     0.019 A 
ENDBRANCH  23  26
ENDBRANCH   5  22
TORSDOF 7
ENDMDL
MODEL 3
REMARK VINA RESULT:      -8.9      7.129      9.668
REMARK  7 active torsions:
REMARK  status: ('A' for Active; 'I' for Inactive)
REMARK    1  A    between atoms: C_3  and  C_4 
REMARK       I    between atoms: C_4  and  N_5 
REMARK    2  A    between atoms: N_5  and  C_6 
REMARK    3  A    between atoms: C_6  and  C_7 
REMARK    4  A    between atoms: C_7  and  O_8 
REMARK    5  A    between atoms: C_7  and  C_9 
REMARK    6  A    between atoms: C_18  and  N_19 
REMARK       I    between atoms: N_19  and  C_20 
REMARK    7  A    between atoms: C_20  and  C_21 
ROOT
HETATM    1  C   UNL     1      41.160 -13.605   2.820  1.00  0.00     0.050 C 
HETATM    2  C   UNL     1      41.250 -15.023   2.355  1.00  0.00    -0.037 A 
HETATM    3  C   UNL     1      40.803 -15.492   1.125  1.00  0.00     0.080 A 
HETATM    4  S   UNL     1      41.060 -17.182   0.976  1.00  0.00    -0.066 SA
HETATM    5  C   UNL     1      41.822 -17.293   2.478  1.00  0.00     0.078 A 
HETATM    6  C   UNL     1      41.842 -16.081   3.128  1.00  0.00     0.045 A 
ENDROOT
BRANCH   3   7
HETATM    7  C   UNL     1      40.221 -14.727   0.023  1.00  0.00     0.259 C 
HETATM    8  N   UNL     1      40.554 -15.164  -1.238  1.00  0.00    -0.354 N 
HETATM    9  H   UNL     1      41.010 -16.064  -1.323  1.00  0.00     0.162 HD
HETATM   10  O   UNL     1      39.484 -13.756   0.186  1.00  0.00    -0.267 OA
BRANCH   8  11
HETATM   11  C   UNL     1      40.096 -14.507  -2.447  1.00  0.00     0.159 C 
BRANCH  11  12
HETATM   12  C   UNL     1      41.248 -14.101  -3.388  1.00  0.00     0.169 C 
BRANCH  12  13
HETATM   13  O   UNL     1      42.221 -15.151  -3.431  1.00  0.00    -0.389 OA
HETATM   14  H   UNL     1      42.789 -14.975  -4.201  1.00  0.00     0.210 HD
ENDBRANCH  12  13
BRANCH  12  15
HETATM   15  C   UNL     1      41.904 -12.783  -3.014  1.00  0.00    -0.028 A 
HETATM   16  C   UNL     1      41.903 -11.717  -3.930  1.00  0.00     0.013 A 
HETATM   17  C   UNL     1      42.487 -10.493  -3.596  1.00  0.00     0.043 A 
HETATM   18  C   UNL     1      43.069 -10.327  -2.345  1.00  0.00     0.116 A 
HETATM   19  F   UNL     1      43.629  -9.152  -2.028  1.00  0.00    -0.206 F 
HETATM   20  C   UNL     1      43.076 -11.361  -1.419  1.00  0.00     0.043 A 
HETATM   21  C   UNL     1      42.495 -12.586  -1.752  1.00  0.00     0.013 A 
ENDBRANCH  12  15
ENDBRANCH  11  12
ENDBRANCH   8  11
ENDBRANCH   3   7
BRANCH   5  22
HETATM   22  N   UNL     1      42.385 -18.468   2.942  1.00  0.00    -0.317 N 
HETATM   23  C   UNL     1      43.611 -18.997   2.590  1.00  0.00     0.258 C 
HETATM   24  O   UNL     1      44.369 -18.578   1.721  1.00  0.00    -0.267 OA
HETATM   25  H   UNL     1      41.823 -18.980   3.613  1.00  0.00     0.169 HD
BRANCH  23  26
HETATM   26  C   UNL     1      44.076 -20.173   3.393  1.00  0.00     0.054 A 
HETATM   27  C   UNL     1      44.300 -21.467   2.899  1.00  0.00     0.049 A 
HETATM   28 CL   UNL     1      44.141 -21.902   1.233  1.00  0.00    -0.083 Cl
HETATM   29  C   UNL     1      44.703 -22.491   3.770  1.00  0.00     0.025 A 
HETATM   30  C   UNL     1      44.896 -22.236   5.127  1.00  0.00     0.002 A 
HETATM   31  C   UNL     1      44.695 -20.954   5.625  1.00  0.00     0.001 A 
HETATM   32  C   UNL     1      44.291 -19.931   4.764  1.00  0.00     0.019 A 
ENDBRANCH  23  26
ENDBRANCH   5  22
TORSDOF 7
ENDMDL
MODEL 4
REMARK VINA RESULT:      -8.9      7.364      9.676
REMARK  7 active torsions:
REMARK  status: ('A' for Active; 'I' for Inactive)
REMARK    1  A    between atoms: C_3  and  C_4 
REMARK       I    between atoms: C_4  and  N_5 
REMARK    2  A    between atoms: N_5  and  C_6 
REMARK    3  A    between atoms: C_6  and  C_7 
REMARK    4  A    between atoms: C_7  and  O_8 
REMARK    5  A    between atoms: C_7  and  C_9 
REMARK    6  A    between atoms: C_18  and  N_19 
REMARK       I    between atoms: N_19  and  C_20 
REMARK    7  A    between atoms: C_20  and  C_21 
ROOT
HETATM    1  C   UNL     1      39.541 -14.165   2.801  1.00  0.00     0.050 C 
HETATM    2  C   UNL     1      40.265 -15.273   2.105  1.00  0.00    -0.037 A 
HETATM    3  C   UNL     1      40.510 -15.334   0.738  1.00  0.00     0.080 A 
HETATM    4  S   UNL     1      41.345 -16.775   0.323  1.00  0.00    -0.066 SA
HETATM    5  C   UNL     1      41.455 -17.285   1.929  1.00  0.00     0.078 A 
HETATM    6  C   UNL     1      40.822 -16.412   2.783  1.00  0.00     0.045 A 
ENDROOT
BRANCH   3   7
HETATM    7  C   UNL     1      40.186 -14.342  -0.284  1.00  0.00     0.259 C 
HETATM    8  N   UNL     1      40.214 -14.800  -1.582  1.00  0.00    -0.354 N 
HETATM    9  H   UNL     1      40.271 -15.800  -1.730  1.00  0.00     0.162 HD
HETATM   10  O   UNL     1      39.905 -13.172  -0.029  1.00  0.00    -0.267 OA
BRANCH   8  11
HETATM   11  C   UNL     1      39.951 -13.948  -2.725  1.00  0.00     0.159 C 
BRANCH  11  12
HETATM   12  C   UNL     1      41.220 -13.616  -3.536  1.00  0.00     0.169 C 
BRANCH  12  13
HETATM   13  O   UNL     1      42.129 -14.721  -3.473  1.00  0.00    -0.389 OA
HETATM   14  H   UNL     1      42.545 -14.792  -4.350  1.00  0.00     0.210 HD
ENDBRANCH  12  13
BRANCH  12  15
HETATM   15  C   UNL     1      41.908 -12.336  -3.092  1.00  0.00    -0.028 A 
HETATM   16  C   UNL     1      42.637 -12.314  -1.891  1.00  0.00     0.013 A 
HETATM   17  C   UNL     1      43.289 -11.150  -1.477  1.00  0.00     0.043 A 
HETATM   18  C   UNL     1      43.221 -10.006  -2.263  1.00  0.00     0.116 A 
HETATM   19  F   UNL     1      43.846  -8.892  -1.864  1.00  0.00    -0.206 F 
HETATM   20  C   UNL     1      42.515 -10.005  -3.459  1.00  0.00     0.043 A 
HETATM   21  C   UNL     1      41.861 -11.165  -3.873  1.00  0.00     0.013 A 
ENDBRANCH  12  15
ENDBRANCH  11  12
ENDBRANCH   8  11
ENDBRANCH   3   7
BRANCH   5  22
HETATM   22  N   UNL     1      42.146 -18.423   2.303  1.00  0.00    -0.317 N 
HETATM   23  C   UNL     1      43.515 -18.605   2.293  1.00  0.00     0.258 C 
HETATM   24  O   UNL     1      44.355 -17.829   1.847  1.00  0.00    -0.267 OA
HETATM   25  H   UNL     1      41.568 -19.195   2.616  1.00  0.00     0.169 HD
BRANCH  23  26
HETATM   26  C   UNL     1      44.018 -19.856   2.943  1.00  0.00     0.054 A 
HETATM   27  C   UNL     1      44.563 -19.950   4.233  1.00  0.00     0.049 A 
HETATM   28 CL   UNL     1      44.675 -18.617   5.329  1.00  0.00    -0.083 Cl
HETATM   29  C   UNL     1      45.031 -21.184   4.710  1.00  0.00     0.025 A 
HETATM   30  C   UNL     1      44.952 -22.329   3.918  1.00  0.00     0.002 A 
HETATM   31  C   UNL     1      44.398 -22.253   2.645  1.00  0.00     0.001 A 
HETATM   32  C   UNL     1      43.933 -21.027   2.164  1.00  0.00     0.019 A 
ENDBRANCH  23  26
ENDBRANCH   5  22
TORSDOF 7
ENDMDL
MODEL 5
REMARK VINA RESULT:      -8.8      2.149      3.010
REMARK  7 active torsions:
REMARK  status: ('A' for Active; 'I' for Inactive)
REMARK    1  A    between atoms: C_3  and  C_4 
REMARK       I    between atoms: C_4  and  N_5 
REMARK    2  A    between atoms: N_5  and  C_6 
REMARK    3  A    between atoms: C_6  and  C_7 
REMARK    4  A    between atoms: C_7  and  O_8 
REMARK    5  A    between atoms: C_7  and  C_9 
REMARK    6  A    between atoms: C_18  and  N_19 
REMARK       I    between atoms: N_19  and  C_20 
REMARK    7  A    between atoms: C_20  and  C_21 
ROOT
HETATM    1  C   UNL     1      44.424 -13.299   7.296  1.00  0.00     0.050 C 
HETATM    2  C   UNL     1      43.595 -14.195   6.432  1.00  0.00    -0.037 A 
HETATM    3  C   UNL     1      42.398 -13.836   5.823  1.00  0.00     0.080 A 
HETATM    4  S   UNL     1      41.737 -15.149   4.936  1.00  0.00    -0.066 SA
HETATM    5  C   UNL     1      43.043 -16.161   5.281  1.00  0.00     0.078 A 
HETATM    6  C   UNL     1      43.957 -15.548   6.107  1.00  0.00     0.045 A 
ENDROOT
BRANCH   3   7
HETATM    7  C   UNL     1      41.733 -12.535   5.833  1.00  0.00     0.259 C 
HETATM    8  N   UNL     1      40.994 -12.259   6.962  1.00  0.00    -0.354 N 
HETATM    9  H   UNL     1      41.106 -12.870   7.762  1.00  0.00     0.162 HD
HETATM   10  O   UNL     1      41.809 -11.726   4.911  1.00  0.00    -0.267 OA
BRANCH   8  11
HETATM   11  C   UNL     1      40.241 -11.032   7.131  1.00  0.00     0.159 C 
BRANCH  11  12
HETATM   12  C   UNL     1      41.026  -9.940   7.885  1.00  0.00     0.169 C 
BRANCH  12  13
HETATM   13  O   UNL     1      42.032  -9.395   7.025  1.00  0.00    -0.389 OA
HETATM   14  H   UNL     1      41.718  -9.521   6.112  1.00  0.00     0.210 HD
ENDBRANCH  12  13
BRANCH  12  15
HETATM   15  C   UNL     1      41.643 -10.423   9.187  1.00  0.00    -0.028 A 
HETATM   16  C   UNL     1      40.819 -10.700  10.291  1.00  0.00     0.013 A 
HETATM   17  C   UNL     1      41.369 -11.160  11.490  1.00  0.00     0.043 A 
HETATM   18  C   UNL     1      42.742 -11.351  11.588  1.00  0.00     0.116 A 
HETATM   19  F   UNL     1      43.266 -11.792  12.739  1.00  0.00    -0.206 F 
HETATM   20  C   UNL     1      43.576 -11.094  10.510  1.00  0.00     0.043 A 
HETATM   21  C   UNL     1      43.030 -10.631   9.312  1.00  0.00     0.013 A 
ENDBRANCH  12  15
ENDBRANCH  11  12
ENDBRANCH   8  11
ENDBRANCH   3   7
BRANCH   5  22
HETATM   22  N   UNL     1      43.164 -17.430   4.744  1.00  0.00    -0.317 N 
HETATM   23  C   UNL     1      43.653 -17.759   3.495  1.00  0.00     0.258 C 
HETATM   24  O   UNL     1      43.963 -16.980   2.599  1.00  0.00    -0.267 OA
HETATM   25  H   UNL     1      42.857 -18.185   5.346  1.00  0.00     0.169 HD
BRANCH  23  26
HETATM   26  C   UNL     1      43.872 -19.218   3.237  1.00  0.00     0.054 A 
HETATM   27  C   UNL     1      44.501 -20.121   4.108  1.00  0.00     0.049 A 
HETATM   28 CL   UNL     1      45.071 -19.697   5.684  1.00  0.00    -0.083 Cl
HETATM   29  C   UNL     1      44.673 -21.460   3.727  1.00  0.00     0.025 A 
HETATM   30  C   UNL     1      44.216 -21.913   2.490  1.00  0.00     0.002 A 
HETATM   31  C   UNL     1      43.575 -21.033   1.625  1.00  0.00     0.001 A 
HETATM   32  C   UNL     1      43.403 -19.698   1.997  1.00  0.00     0.019 A 
ENDBRANCH  23  26
ENDBRANCH   5  22
TORSDOF 7
ENDMDL
MODEL 6
REMARK VINA RESULT:      -8.6      8.062     10.370
REMARK  7 active torsions:
REMARK  status: ('A' for Active; 'I' for Inactive)
REMARK    1  A    between atoms: C_3  and  C_4 
REMARK       I    between atoms: C_4  and  N_5 
REMARK    2  A    between atoms: N_5  and  C_6 
REMARK    3  A    between atoms: C_6  and  C_7 
REMARK    4  A    between atoms: C_7  and  O_8 
REMARK    5  A    between atoms: C_7  and  C_9 
REMARK    6  A    between atoms: C_18  and  N_19 
REMARK       I    between atoms: N_19  and  C_20 
REMARK    7  A    between atoms: C_20  and  C_21 
ROOT
HETATM    1  C   UNL     1      39.041 -14.919   2.206  1.00  0.00     0.050 C 
HETATM    2  C   UNL     1      40.235 -15.746   1.850  1.00  0.00    -0.037 A 
HETATM    3  C   UNL     1      41.168 -15.425   0.870  1.00  0.00     0.080 A 
HETATM    4  S   UNL     1      42.375 -16.639   0.744  1.00  0.00    -0.066 SA
HETATM    5  C   UNL     1      41.729 -17.545   2.013  1.00  0.00     0.078 A 
HETATM    6  C   UNL     1      40.576 -16.979   2.506  1.00  0.00     0.045 A 
ENDROOT
BRANCH   3   7
HETATM    7  C   UNL     1      41.230 -14.224   0.039  1.00  0.00     0.259 C 
HETATM    8  N   UNL     1      42.037 -14.316  -1.071  1.00  0.00    -0.354 N 
HETATM    9  H   UNL     1      42.376 -15.233  -1.336  1.00  0.00     0.162 HD
HETATM   10  O   UNL     1      40.614 -13.191   0.294  1.00  0.00    -0.267 OA
BRANCH   8  11
HETATM   11  C   UNL     1      42.244 -13.213  -1.990  1.00  0.00     0.159 C 
BRANCH  11  12
HETATM   12  C   UNL     1      41.787 -13.531  -3.428  1.00  0.00     0.169 C 
BRANCH  12  13
HETATM   13  O   UNL     1      42.015 -12.390  -4.263  1.00  0.00    -0.389 OA
HETATM   14  H   UNL     1      42.926 -12.464  -4.596  1.00  0.00     0.210 HD
ENDBRANCH  12  13
BRANCH  12  15
HETATM   15  C   UNL     1      40.337 -13.978  -3.522  1.00  0.00    -0.028 A 
HETATM   16  C   UNL     1      39.304 -13.044  -3.335  1.00  0.00     0.013 A 
HETATM   17  C   UNL     1      37.967 -13.435  -3.434  1.00  0.00     0.043 A 
HETATM   18  C   UNL     1      37.657 -14.758  -3.725  1.00  0.00     0.116 A 
HETATM   19  F   UNL     1      36.374 -15.130  -3.818  1.00  0.00    -0.206 F 
HETATM   20  C   UNL     1      38.659 -15.698  -3.923  1.00  0.00     0.043 A 
HETATM   21  C   UNL     1      39.996 -15.310  -3.822  1.00  0.00     0.013 A 
ENDBRANCH  12  15
ENDBRANCH  11  12
ENDBRANCH   8  11
ENDBRANCH   3   7
BRANCH   5  22
HETATM   22  N   UNL     1      42.339 -18.687   2.499  1.00  0.00    -0.317 N 
HETATM   23  C   UNL     1      43.691 -18.973   2.494  1.00  0.00     0.258 C 
HETATM   24  O   UNL     1      44.578 -18.314   1.960  1.00  0.00    -0.267 OA
HETATM   25  H   UNL     1      41.712 -19.376   2.897  1.00  0.00     0.169 HD
BRANCH  23  26
HETATM   26  C   UNL     1      44.111 -20.184   3.268  1.00  0.00     0.054 A 
HETATM   27  C   UNL     1      44.262 -21.479   2.748  1.00  0.00     0.049 A 
HETATM   28 CL   UNL     1      44.052 -21.875   1.078  1.00  0.00    -0.083 Cl
HETATM   29  C   UNL     1      44.629 -22.537   3.593  1.00  0.00     0.025 A 
HETATM   30  C   UNL     1      44.857 -22.316   4.951  1.00  0.00     0.002 A 
HETATM   31  C   UNL     1      44.728 -21.035   5.475  1.00  0.00     0.001 A 
HETATM   32  C   UNL     1      44.361 -19.978   4.639  1.00  0.00     0.019 A 
ENDBRANCH  23  26
ENDBRANCH   5  22
TORSDOF 7
ENDMDL
MODEL 7
REMARK VINA RESULT:      -8.5      1.978      2.484
REMARK  7 active torsions:
REMARK  status: ('A' for Active; 'I' for Inactive)
REMARK    1  A    between atoms: C_3  and  C_4 
REMARK       I    between atoms: C_4  and  N_5 
REMARK    2  A    between atoms: N_5  and  C_6 
REMARK    3  A    between atoms: C_6  and  C_7 
REMARK    4  A    between atoms: C_7  and  O_8 
REMARK    5  A    between atoms: C_7  and  C_9 
REMARK    6  A    between atoms: C_18  and  N_19 
REMARK       I    between atoms: N_19  and  C_20 
REMARK    7  A    between atoms: C_20  and  C_21 
ROOT
HETATM    1  C   UNL     1      39.122 -12.310   3.260  1.00  0.00     0.050 C 
HETATM    2  C   UNL     1      40.002 -13.299   3.954  1.00  0.00    -0.037 A 
HETATM    3  C   UNL     1      40.430 -13.202   5.274  1.00  0.00     0.080 A 
HETATM    4  S   UNL     1      41.448 -14.519   5.693  1.00  0.00    -0.066 SA
HETATM    5  C   UNL     1      41.273 -15.256   4.184  1.00  0.00     0.078 A 
HETATM    6  C   UNL     1      40.499 -14.498   3.336  1.00  0.00     0.045 A 
ENDROOT
BRANCH   3   7
HETATM    7  C   UNL     1      40.082 -12.186   6.265  1.00  0.00     0.259 C 
HETATM    8  N   UNL     1      41.146 -11.618   6.927  1.00  0.00    -0.354 N 
HETATM    9  H   UNL     1      42.077 -11.797   6.569  1.00  0.00     0.162 HD
HETATM   10  O   UNL     1      38.926 -11.845   6.510  1.00  0.00    -0.267 OA
BRANCH   8  11
HETATM   11  C   UNL     1      40.988 -10.619   7.965  1.00  0.00     0.159 C 
BRANCH  11  12
HETATM   12  C   UNL     1      40.532 -11.214   9.313  1.00  0.00     0.169 C 
BRANCH  12  13
HETATM   13  O   UNL     1      39.160 -10.877   9.543  1.00  0.00    -0.389 OA
HETATM   14  H   UNL     1      38.671 -11.716   9.603  1.00  0.00     0.210 HD
ENDBRANCH  12  13
BRANCH  12  15
HETATM   15  C   UNL     1      41.391 -10.784  10.490  1.00  0.00    -0.028 A 
HETATM   16  C   UNL     1      40.973 -11.071  11.801  1.00  0.00     0.013 A 
HETATM   17  C   UNL     1      41.758 -10.697  12.894  1.00  0.00     0.043 A 
HETATM   18  C   UNL     1      42.965 -10.042  12.682  1.00  0.00     0.116 A 
HETATM   19  F   UNL     1      43.715  -9.684  13.732  1.00  0.00    -0.206 F 
HETATM   20  C   UNL     1      43.404  -9.755  11.397  1.00  0.00     0.043 A 
HETATM   21  C   UNL     1      42.620 -10.125  10.304  1.00  0.00     0.013 A 
ENDBRANCH  12  15
ENDBRANCH  11  12
ENDBRANCH   8  11
ENDBRANCH   3   7
BRANCH   5  22
HETATM   22  N   UNL     1      41.819 -16.492   3.891  1.00  0.00    -0.317 N 
HETATM   23  C   UNL     1      42.979 -16.741   3.183  1.00  0.00     0.258 C 
HETATM   24  O   UNL     1      43.671 -15.915   2.596  1.00  0.00    -0.267 OA
HETATM   25  H   UNL     1      41.299 -17.288   4.241  1.00  0.00     0.169 HD
BRANCH  23  26
HETATM   26  C   UNL     1      43.460 -18.159   3.184  1.00  0.00     0.054 A 
HETATM   27  C   UNL     1      44.184 -18.780   4.213  1.00  0.00     0.049 A 
HETATM   28 CL   UNL     1      44.582 -18.010   5.709  1.00  0.00    -0.083 Cl
HETATM   29  C   UNL     1      44.605 -20.111   4.072  1.00  0.00     0.025 A 
HETATM   30  C   UNL     1      44.304 -20.833   2.918  1.00  0.00     0.002 A 
HETATM   31  C   UNL     1      43.572 -20.235   1.898  1.00  0.00     0.001 A 
HETATM   32  C   UNL     1      43.151 -18.910   2.033  1.00  0.00     0.019 A 
ENDBRANCH  23  26
ENDBRANCH   5  22
TORSDOF 7
ENDMDL
MODEL 8
REMARK VINA RESULT:      -8.5      6.216      9.029
REMARK  7 active torsions:
REMARK  status: ('A' for Active; 'I' for Inactive)
REMARK    1  A    between atoms: C_3  and  C_4 
REMARK       I    between atoms: C_4  and  N_5 
REMARK    2  A    between atoms: N_5  and  C_6 
REMARK    3  A    between atoms: C_6  and  C_7 
REMARK    4  A    between atoms: C_7  and  O_8 
REMARK    5  A    between atoms: C_7  and  C_9 
REMARK    6  A    between atoms: C_18  and  N_19 
REMARK       I    between atoms: N_19  and  C_20 
REMARK    7  A    between atoms: C_20  and  C_21 
ROOT
HETATM    1  C   UNL     1      42.990 -19.043   2.053  1.00  0.00     0.050 C 
HETATM    2  C   UNL     1      42.417 -17.673   1.880  1.00  0.00    -0.037 A 
HETATM    3  C   UNL     1      41.838 -16.913   2.890  1.00  0.00     0.080 A 
HETATM    4  S   UNL     1      41.275 -15.408   2.288  1.00  0.00    -0.066 SA
HETATM    5  C   UNL     1      41.852 -15.709   0.730  1.00  0.00     0.078 A 
HETATM    6  C   UNL     1      42.419 -16.959   0.632  1.00  0.00     0.045 A 
ENDROOT
BRANCH   3   7
HETATM    7  C   UNL     1      41.716 -17.240   4.310  1.00  0.00     0.259 C 
HETATM    8  N   UNL     1      42.535 -16.523   5.153  1.00  0.00    -0.354 N 
HETATM    9  H   UNL     1      43.015 -15.716   4.773  1.00  0.00     0.162 HD
HETATM   10  O   UNL     1      40.945 -18.092   4.746  1.00  0.00    -0.267 OA
BRANCH   8  11
HETATM   11  C   UNL     1      42.572 -16.737   6.586  1.00  0.00     0.159 C 
BRANCH  11  12
HETATM   12  C   UNL     1      43.897 -17.360   7.070  1.00  0.00     0.169 C 
BRANCH  12  13
HETATM   13  O   UNL     1      44.987 -16.507   6.704  1.00  0.00    -0.389 OA
HETATM   14  H   UNL     1      45.647 -17.070   6.263  1.00  0.00     0.210 HD
ENDBRANCH  12  13
BRANCH  12  15
HETATM   15  C   UNL     1      44.129 -18.771   6.555  1.00  0.00    -0.028 A 
HETATM   16  C   UNL     1      43.605 -19.868   7.261  1.00  0.00     0.013 A 
HETATM   17  C   UNL     1      43.796 -21.170   6.793  1.00  0.00     0.043 A 
HETATM   18  C   UNL     1      44.505 -21.381   5.618  1.00  0.00     0.116 A 
HETATM   19  F   UNL     1      44.686 -22.632   5.172  1.00  0.00    -0.206 F 
HETATM   20  C   UNL     1      45.025 -20.315   4.897  1.00  0.00     0.043 A 
HETATM   21  C   UNL     1      44.838 -19.013   5.363  1.00  0.00     0.013 A 
ENDBRANCH  12  15
ENDBRANCH  11  12
ENDBRANCH   8  11
ENDBRANCH   3   7
BRANCH   5  22
HETATM   22  N   UNL     1      41.783 -14.771  -0.284  1.00  0.00    -0.317 N 
HETATM   23  C   UNL     1      41.257 -14.952  -1.548  1.00  0.00     0.258 C 
HETATM   24  O   UNL     1      40.858 -16.006  -2.032  1.00  0.00    -0.267 OA
HETATM   25  H   UNL     1      42.164 -13.860  -0.055  1.00  0.00     0.169 HD
BRANCH  23  26
HETATM   26  C   UNL     1      41.116 -13.718  -2.385  1.00  0.00     0.054 A 
HETATM   27  C   UNL     1      39.907 -13.109  -2.753  1.00  0.00     0.049 A 
HETATM   28 CL   UNL     1      38.354 -13.658  -2.225  1.00  0.00    -0.083 Cl
HETATM   29  C   UNL     1      39.914 -11.971  -3.573  1.00  0.00     0.025 A 
HETATM   30  C   UNL     1      41.117 -11.427  -4.024  1.00  0.00     0.002 A 
HETATM   31  C   UNL     1      42.322 -12.010  -3.651  1.00  0.00     0.001 A 
HETATM   32  C   UNL     1      42.321 -13.144  -2.837  1.00  0.00     0.019 A 
ENDBRANCH  23  26
ENDBRANCH   5  22
TORSDOF 7
ENDMDL
MODEL 9
REMARK VINA RESULT:      -8.4      6.860      9.680
REMARK  7 active torsions:
REMARK  status: ('A' for Active; 'I' for Inactive)
REMARK    1  A    between atoms: C_3  and  C_4 
REMARK       I    between atoms: C_4  and  N_5 
REMARK    2  A    between atoms: N_5  and  C_6 
REMARK    3  A    between atoms: C_6  and  C_7 
REMARK    4  A    between atoms: C_7  and  O_8 
REMARK    5  A    between atoms: C_7  and  C_9 
REMARK    6  A    between atoms: C_18  and  N_19 
REMARK       I    between atoms: N_19  and  C_20 
REMARK    7  A    between atoms: C_20  and  C_21 
ROOT
HETATM    1  C   UNL     1      44.272 -17.581   1.703  1.00  0.00     0.050 C 
HETATM    2  C   UNL     1      42.953 -16.880   1.782  1.00  0.00    -0.037 A 
HETATM    3  C   UNL     1      42.319 -16.499   2.959  1.00  0.00     0.080 A 
HETATM    4  S   UNL     1      40.812 -15.745   2.633  1.00  0.00    -0.066 SA
HETATM    5  C   UNL     1      41.017 -15.844   0.960  1.00  0.00     0.078 A 
HETATM    6  C   UNL     1      42.186 -16.491   0.630  1.00  0.00     0.045 A 
ENDROOT
BRANCH   3   7
HETATM    7  C   UNL     1      42.802 -16.633   4.331  1.00  0.00     0.259 C 
HETATM    8  N   UNL     1      42.460 -17.806   4.965  1.00  0.00    -0.354 N 
HETATM    9  H   UNL     1      42.071 -18.553   4.402  1.00  0.00     0.162 HD
HETATM   10  O   UNL     1      43.468 -15.773   4.903  1.00  0.00    -0.267 OA
BRANCH   8  11
HETATM   11  C   UNL     1      42.825 -18.096   6.338  1.00  0.00     0.159 C 
BRANCH  11  12
HETATM   12  C   UNL     1      44.202 -18.778   6.467  1.00  0.00     0.169 C 
BRANCH  12  13
HETATM   13  O   UNL     1      45.235 -17.823   6.201  1.00  0.00    -0.389 OA
HETATM   14  H   UNL     1      45.656 -18.089   5.365  1.00  0.00     0.210 HD
ENDBRANCH  12  13
BRANCH  12  15
HETATM   15  C   UNL     1      44.363 -19.998   5.574  1.00  0.00    -0.028 A 
HETATM   16  C   UNL     1      44.641 -19.831   4.207  1.00  0.00     0.013 A 
HETATM   17  C   UNL     1      44.808 -20.941   3.376  1.00  0.00     0.043 A 
HETATM   18  C   UNL     1      44.704 -22.220   3.908  1.00  0.00     0.116 A 
HETATM   19  F   UNL     1      44.864 -23.283   3.108  1.00  0.00    -0.206 F 
HETATM   20  C   UNL     1      44.439 -22.412   5.257  1.00  0.00     0.043 A 
HETATM   21  C   UNL     1      44.269 -21.304   6.088  1.00  0.00     0.013 A 
ENDBRANCH  12  15
ENDBRANCH  11  12
ENDBRANCH   8  11
ENDBRANCH   3   7
BRANCH   5  22
HETATM   22  N   UNL     1      40.120 -15.291   0.065  1.00  0.00    -0.317 N 
HETATM   23  C   UNL     1      40.400 -14.387  -0.940  1.00  0.00     0.258 C 
HETATM   24  O   UNL     1      41.474 -13.830  -1.148  1.00  0.00    -0.267 OA
HETATM   25  H   UNL     1      39.159 -15.594   0.175  1.00  0.00     0.169 HD
BRANCH  23  26
HETATM   26  C   UNL     1      39.287 -14.104  -1.901  1.00  0.00     0.054 A 
HETATM   27  C   UNL     1      38.989 -14.845  -3.054  1.00  0.00     0.049 A 
HETATM   28 CL   UNL     1      39.834 -16.280  -3.520  1.00  0.00    -0.083 Cl
HETATM   29  C   UNL     1      37.934 -14.450  -3.891  1.00  0.00     0.025 A 
HETATM   30  C   UNL     1      37.166 -13.327  -3.585  1.00  0.00     0.002 A 
HETATM   31  C   UNL     1      37.440 -12.594  -2.436  1.00  0.00     0.001 A 
HETATM   32  C   UNL     1      38.490 -12.981  -1.600  1.00  0.00     0.019 A 
ENDBRANCH  23  26
ENDBRANCH   5  22
TORSDOF 7
ENDMDL
MODEL 10
REMARK VINA RESULT:      -8.4      4.045      9.804
REMARK  7 active torsions:
REMARK  status: ('A' for Active; 'I' for Inactive)
REMARK    1  A    between atoms: C_3  and  C_4 
REMARK       I    between atoms: C_4  and  N_5 
REMARK    2  A    between atoms: N_5  and  C_6 
REMARK    3  A    between atoms: C_6  and  C_7 
REMARK    4  A    between atoms: C_7  and  O_8 
REMARK    5  A    between atoms: C_7  and  C_9 
REMARK    6  A    between atoms: C_18  and  N_19 
REMARK       I    between atoms: N_19  and  C_20 
REMARK    7  A    between atoms: C_20  and  C_21 
ROOT
HETATM    1  C   UNL     1      39.639 -11.334   3.340  1.00  0.00     0.050 C 
HETATM    2  C   UNL     1      40.657 -11.868   4.297  1.00  0.00    -0.037 A 
HETATM    3  C   UNL     1      41.620 -12.822   3.991  1.00  0.00     0.080 A 
HETATM    4  S   UNL     1      42.584 -13.192   5.362  1.00  0.00    -0.066 SA
HETATM    5  C   UNL     1      41.800 -12.056   6.335  1.00  0.00     0.078 A 
HETATM    6  C   UNL     1      40.776 -11.431   5.661  1.00  0.00     0.045 A 
ENDROOT
BRANCH   3   7
HETATM    7  C   UNL     1      41.890 -13.454   2.701  1.00  0.00     0.259 C 
HETATM    8  N   UNL     1      41.113 -14.552   2.407  1.00  0.00    -0.354 N 
HETATM    9  H   UNL     1      40.309 -14.734   2.996  1.00  0.00     0.162 HD
HETATM   10  O   UNL     1      42.746 -13.053   1.914  1.00  0.00    -0.267 OA
BRANCH   8  11
HETATM   11  C   UNL     1      41.265 -15.323   1.188  1.00  0.00     0.159 C 
BRANCH  11  12
HETATM   12  C   UNL     1      40.949 -16.820   1.377  1.00  0.00     0.169 C 
BRANCH  12  13
HETATM   13  O   UNL     1      39.680 -16.962   2.025  1.00  0.00    -0.389 OA
HETATM   14  H   UNL     1      39.807 -17.590   2.757  1.00  0.00     0.210 HD
ENDBRANCH  12  13
BRANCH  12  15
HETATM   15  C   UNL     1      42.023 -17.578   2.139  1.00  0.00    -0.028 A 
HETATM   16  C   UNL     1      41.922 -17.722   3.533  1.00  0.00     0.013 A 
HETATM   17  C   UNL     1      42.892 -18.430   4.246  1.00  0.00     0.043 A 
HETATM   18  C   UNL     1      43.963 -19.001   3.569  1.00  0.00     0.116 A 
HETATM   19  F   UNL     1      44.892 -19.679   4.256  1.00  0.00    -0.206 F 
HETATM   20  C   UNL     1      44.081 -18.882   2.191  1.00  0.00     0.043 A 
HETATM   21  C   UNL     1      43.114 -18.173   1.477  1.00  0.00     0.013 A 
ENDBRANCH  12  15
ENDBRANCH  11  12
ENDBRANCH   8  11
ENDBRANCH   3   7
BRANCH   5  22
HETATM   22  N   UNL     1      42.198 -11.784   7.631  1.00  0.00    -0.317 N 
HETATM   23  C   UNL     1      42.268 -10.544   8.236  1.00  0.00     0.258 C 
HETATM   24  O   UNL     1      42.096  -9.455   7.698  1.00  0.00    -0.267 OA
HETATM   25  H   UNL     1      42.462 -12.594   8.180  1.00  0.00     0.169 HD
BRANCH  23  26
HETATM   26  C   UNL     1      42.530 -10.544   9.710  1.00  0.00     0.054 A 
HETATM   27  C   UNL     1      41.555 -10.523  10.718  1.00  0.00     0.049 A 
HETATM   28 CL   UNL     1      39.853 -10.568  10.410  1.00  0.00    -0.083 Cl
HETATM   29  C   UNL     1      41.938 -10.490  12.067  1.00  0.00     0.025 A 
HETATM   30  C   UNL     1      43.287 -10.488  12.423  1.00  0.00     0.002 A 
HETATM   31  C   UNL     1      44.263 -10.527  11.435  1.00  0.00     0.001 A 
HETATM   32  C   UNL     1      43.887 -10.558  10.090  1.00  0.00     0.019 A 
ENDBRANCH  23  26
ENDBRANCH   5  22
TORSDOF 7
ENDMDL
