MODEL 1
REMARK VINA RESULT:      -7.9      0.000      0.000
REMARK  5 active torsions:
REMARK  status: ('A' for Active; 'I' for Inactive)
REMARK    1  A    between atoms: C_2  and  O_3 
REMARK    2  A    between atoms: O_3  and  C_4 
REMARK    3  A    between atoms: C_5  and  C_6 
REMARK    4  A    between atoms: N_7  and  N_8 
REMARK       I    between atoms: N_8  and  C_9 
REMARK    5  A    between atoms: C_9  and  C_10 
ROOT
HETATM    1  N   UNL     1      41.628 -17.100   2.949  1.00  0.00    -0.243 N 
HETATM    2  C   UNL     1      42.953 -16.896   3.319  1.00  0.00     0.274 C 
HETATM    3  O   UNL     1      43.535 -15.815   3.298  1.00  0.00    -0.266 OA
HETATM    4  H   UNL     1      41.183 -17.934   3.314  1.00  0.00     0.192 HD
ENDROOT
BRANCH   1   5
HETATM    5  N   UNL     1      40.726 -16.153   2.530  1.00  0.00    -0.183 NA
HETATM    6  C   UNL     1      40.642 -15.879   1.266  1.00  0.00     0.153 C 
BRANCH   6   7
HETATM    7  C   UNL     1      39.732 -14.826   0.774  1.00  0.00     0.016 A 
HETATM    8  C   UNL     1      40.084 -14.035  -0.325  1.00  0.00     0.080 A 
HETATM    9  C   UNL     1      39.172 -13.108  -0.837  1.00  0.00     0.037 A 
HETATM   10  C   UNL     1      37.928 -12.938  -0.226  1.00  0.00     0.003 A 
HETATM   11  C   UNL     1      37.591 -13.698   0.893  1.00  0.00     0.001 A 
HETATM   12  C   UNL     1      38.489 -14.643   1.394  1.00  0.00     0.016 A 
BRANCH   8  13
HETATM   13  O   UNL     1      41.287 -14.120  -0.974  1.00  0.00    -0.351 OA
BRANCH  13  14
HETATM   14  C   UNL     1      41.127 -14.206  -2.399  1.00  0.00     0.171 C 
HETATM   15  C   UNL     1      40.930 -15.664  -2.771  1.00  0.00     0.034 C 
ENDBRANCH  13  14
ENDBRANCH   8  13
ENDBRANCH   6   7
ENDBRANCH   1   5
BRANCH   2  16
HETATM   16  C   UNL     1      43.622 -18.098   3.830  1.00  0.00     0.061 A 
HETATM   17  C   UNL     1      43.805 -19.404   3.248  1.00  0.00     0.008 A 
HETATM   18  C   UNL     1      44.477 -20.187   4.192  1.00  0.00     0.043 A 
HETATM   19  C   UNL     1      43.481 -20.007   2.010  1.00  0.00     0.015 A 
HETATM   20  C   UNL     1      44.798 -21.534   3.980  1.00  0.00     0.030 A 
HETATM   21  N   UNL     1      44.741 -19.388   5.277  1.00  0.00    -0.364 N 
HETATM   22  C   UNL     1      44.433 -22.107   2.760  1.00  0.00     0.002 A 
HETATM   23  C   UNL     1      43.791 -21.353   1.784  1.00  0.00     0.001 A 
HETATM   24  H   UNL     1      45.238 -19.688   6.104  1.00  0.00     0.165 HD
HETATM   25  C   UNL     1      44.248 -18.134   5.066  1.00  0.00     0.106 A 
ENDBRANCH   2  16
TORSDOF 5
ENDMDL
MODEL 2
REMARK VINA RESULT:      -7.9      2.362      8.205
REMARK  5 active torsions:
REMARK  status: ('A' for Active; 'I' for Inactive)
REMARK    1  A    between atoms: C_2  and  O_3 
REMARK    2  A    between atoms: O_3  and  C_4 
REMARK    3  A    between atoms: C_5  and  C_6 
REMARK    4  A    between atoms: N_7  and  N_8 
REMARK       I    between atoms: N_8  and  C_9 
REMARK    5  A    between atoms: C_9  and  C_10 
ROOT
HETATM    1  N   UNL     1      42.521 -17.303   1.083  1.00  0.00    -0.243 N 
HETATM    2  C   UNL     1      41.385 -16.505   1.162  1.00  0.00     0.274 C 
HETATM    3  O   UNL     1      40.390 -16.755   1.838  1.00  0.00    -0.266 OA
HETATM    4  H   UNL     1      43.371 -16.845   0.773  1.00  0.00     0.192 HD
ENDROOT
BRANCH   1   5
HETATM    5  N   UNL     1      42.760 -18.479   1.751  1.00  0.00    -0.183 NA
HETATM    6  C   UNL     1      43.953 -18.719   2.196  1.00  0.00     0.153 C 
BRANCH   6   7
HETATM    7  C   UNL     1      44.275 -19.994   2.865  1.00  0.00     0.016 A 
HETATM    8  C   UNL     1      44.622 -20.023   4.220  1.00  0.00     0.080 A 
HETATM    9  C   UNL     1      44.830 -21.247   4.861  1.00  0.00     0.037 A 
HETATM   10  C   UNL     1      44.739 -22.439   4.140  1.00  0.00     0.003 A 
HETATM   11  C   UNL     1      44.432 -22.411   2.780  1.00  0.00     0.001 A 
HETATM   12  C   UNL     1      44.198 -21.191   2.141  1.00  0.00     0.016 A 
BRANCH   8  13
HETATM   13  O   UNL     1      44.753 -18.903   4.999  1.00  0.00    -0.351 OA
BRANCH  13  14
HETATM   14  C   UNL     1      43.808 -18.884   6.080  1.00  0.00     0.171 C 
HETATM   15  C   UNL     1      42.536 -18.215   5.593  1.00  0.00     0.034 C 
ENDBRANCH  13  14
ENDBRANCH   8  13
ENDBRANCH   6   7
ENDBRANCH   1   5
BRANCH   2  16
HETATM   16  C   UNL     1      41.484 -15.249   0.410  1.00  0.00     0.061 A 
HETATM   17  C   UNL     1      41.295 -14.962  -0.990  1.00  0.00     0.008 A 
HETATM   18  C   UNL     1      41.561 -13.601  -1.173  1.00  0.00     0.043 A 
HETATM   19  C   UNL     1      40.914 -15.713  -2.127  1.00  0.00     0.015 A 
HETATM   20  C   UNL     1      41.507 -12.973  -2.424  1.00  0.00     0.030 A 
HETATM   21  N   UNL     1      41.847 -13.068   0.060  1.00  0.00    -0.364 N 
HETATM   22  C   UNL     1      41.160 -13.751  -3.530  1.00  0.00     0.002 A 
HETATM   23  C   UNL     1      40.860 -15.100  -3.384  1.00  0.00     0.001 A 
HETATM   24  H   UNL     1      42.057 -12.094   0.230  1.00  0.00     0.165 HD
HETATM   25  C   UNL     1      41.789 -14.040   1.015  1.00  0.00     0.106 A 
ENDBRANCH   2  16
TORSDOF 5
ENDMDL
MODEL 3
REMARK VINA RESULT:      -7.7      1.969      2.928
REMARK  5 active torsions:
REMARK  status: ('A' for Active; 'I' for Inactive)
REMARK    1  A    between atoms: C_2  and  O_3 
REMARK    2  A    between atoms: O_3  and  C_4 
REMARK    3  A    between atoms: C_5  and  C_6 
REMARK    4  A    between atoms: N_7  and  N_8 
REMARK       I    between atoms: N_8  and  C_9 
REMARK    5  A    between atoms: C_9  and  C_10 
ROOT
HETATM    1  N   UNL     1      41.703 -17.172   2.551  1.00  0.00    -0.243 N 
HETATM    2  C   UNL     1      43.039 -16.984   2.891  1.00  0.00     0.274 C 
HETATM    3  O   UNL     1      43.668 -15.941   2.735  1.00  0.00    -0.266 OA
HETATM    4  H   UNL     1      41.224 -17.934   3.017  1.00  0.00     0.192 HD
ENDROOT
BRANCH   1   5
HETATM    5  N   UNL     1      40.841 -16.245   2.019  1.00  0.00    -0.183 NA
HETATM    6  C   UNL     1      40.314 -15.355   2.800  1.00  0.00     0.153 C 
BRANCH   6   7
HETATM    7  C   UNL     1      39.335 -14.376   2.288  1.00  0.00     0.016 A 
HETATM    8  C   UNL     1      39.364 -13.045   2.718  1.00  0.00     0.080 A 
HETATM    9  C   UNL     1      38.492 -12.111   2.152  1.00  0.00     0.037 A 
HETATM   10  C   UNL     1      37.560 -12.513   1.194  1.00  0.00     0.003 A 
HETATM   11  C   UNL     1      37.503 -13.848   0.793  1.00  0.00     0.001 A 
HETATM   12  C   UNL     1      38.389 -14.780   1.336  1.00  0.00     0.016 A 
BRANCH   8  13
HETATM   13  O   UNL     1      40.230 -12.567   3.665  1.00  0.00    -0.351 OA
BRANCH  13  14
HETATM   14  C   UNL     1      39.552 -12.183   4.872  1.00  0.00     0.171 C 
HETATM   15  C   UNL     1      39.751 -13.278   5.903  1.00  0.00     0.034 C 
ENDBRANCH  13  14
ENDBRANCH   8  13
ENDBRANCH   6   7
ENDBRANCH   1   5
BRANCH   2  16
HETATM   16  C   UNL     1      43.657 -18.143   3.546  1.00  0.00     0.061 A 
HETATM   17  C   UNL     1      43.839 -19.501   3.101  1.00  0.00     0.008 A 
HETATM   18  C   UNL     1      44.449 -20.202   4.146  1.00  0.00     0.043 A 
HETATM   19  C   UNL     1      43.561 -20.214   1.910  1.00  0.00     0.015 A 
HETATM   20  C   UNL     1      44.751 -21.568   4.078  1.00  0.00     0.030 A 
HETATM   21  N   UNL     1      44.678 -19.307   5.162  1.00  0.00    -0.364 N 
HETATM   22  C   UNL     1      44.432 -22.249   2.902  1.00  0.00     0.002 A 
HETATM   23  C   UNL     1      43.853 -21.581   1.829  1.00  0.00     0.001 A 
HETATM   24  H   UNL     1      45.129 -19.534   6.037  1.00  0.00     0.165 HD
HETATM   25  C   UNL     1      44.222 -18.070   4.809  1.00  0.00     0.106 A 
ENDBRANCH   2  16
TORSDOF 5
ENDMDL
MODEL 4
REMARK VINA RESULT:      -7.6      1.296      2.443
REMARK  5 active torsions:
REMARK  status: ('A' for Active; 'I' for Inactive)
REMARK    1  A    between atoms: C_2  and  O_3 
REMARK    2  A    between atoms: O_3  and  C_4 
REMARK    3  A    between atoms: C_5  and  C_6 
REMARK    4  A    between atoms: N_7  and  N_8 
REMARK       I    between atoms: N_8  and  C_9 
REMARK    5  A    between atoms: C_9  and  C_10 
ROOT
HETATM    1  N   UNL     1      42.024 -17.392   1.189  1.00  0.00    -0.243 N 
HETATM    2  C   UNL     1      42.050 -17.247   2.572  1.00  0.00     0.274 C 
HETATM    3  O   UNL     1      41.321 -16.500   3.219  1.00  0.00    -0.266 OA
HETATM    4  H   UNL     1      42.421 -18.248   0.819  1.00  0.00     0.192 HD
ENDROOT
BRANCH   1   5
HETATM    5  N   UNL     1      41.180 -16.769   0.303  1.00  0.00    -0.183 NA
HETATM    6  C   UNL     1      41.664 -15.888  -0.515  1.00  0.00     0.153 C 
BRANCH   6   7
HETATM    7  C   UNL     1      40.788 -15.147  -1.444  1.00  0.00     0.016 A 
HETATM    8  C   UNL     1      40.130 -13.984  -1.029  1.00  0.00     0.080 A 
HETATM    9  C   UNL     1      39.382 -13.242  -1.947  1.00  0.00     0.037 A 
HETATM   10  C   UNL     1      39.251 -13.685  -3.265  1.00  0.00     0.003 A 
HETATM   11  C   UNL     1      39.874 -14.865  -3.670  1.00  0.00     0.001 A 
HETATM   12  C   UNL     1      40.644 -15.596  -2.763  1.00  0.00     0.016 A 
BRANCH   8  13
HETATM   13  O   UNL     1      40.186 -13.487   0.246  1.00  0.00    -0.351 OA
BRANCH  13  14
HETATM   14  C   UNL     1      38.879 -13.299   0.810  1.00  0.00     0.171 C 
HETATM   15  C   UNL     1      38.435 -14.606   1.438  1.00  0.00     0.034 C 
ENDBRANCH  13  14
ENDBRANCH   8  13
ENDBRANCH   6   7
ENDBRANCH   1   5
BRANCH   2  16
HETATM   16  C   UNL     1      42.997 -18.141   3.248  1.00  0.00     0.061 A 
HETATM   17  C   UNL     1      43.443 -19.473   2.927  1.00  0.00     0.008 A 
HETATM   18  C   UNL     1      44.319 -19.873   3.940  1.00  0.00     0.043 A 
HETATM   19  C   UNL     1      43.205 -20.384   1.871  1.00  0.00     0.015 A 
HETATM   20  C   UNL     1      44.926 -21.135   3.974  1.00  0.00     0.030 A 
HETATM   21  N   UNL     1      44.446 -18.820   4.813  1.00  0.00    -0.364 N 
HETATM   22  C   UNL     1      44.643 -22.022   2.934  1.00  0.00     0.002 A 
HETATM   23  C   UNL     1      43.800 -21.651   1.892  1.00  0.00     0.001 A 
HETATM   24  H   UNL     1      45.037 -18.821   5.632  1.00  0.00     0.165 HD
HETATM   25  C   UNL     1      43.673 -17.774   4.402  1.00  0.00     0.106 A 
ENDBRANCH   2  16
TORSDOF 5
ENDMDL
MODEL 5
REMARK VINA RESULT:      -7.4      1.696      8.031
REMARK  5 active torsions:
REMARK  status: ('A' for Active; 'I' for Inactive)
REMARK    1  A    between atoms: C_2  and  O_3 
REMARK    2  A    between atoms: O_3  and  C_4 
REMARK    3  A    between atoms: C_5  and  C_6 
REMARK    4  A    between atoms: N_7  and  N_8 
REMARK       I    between atoms: N_8  and  C_9 
REMARK    5  A    between atoms: C_9  and  C_10 
ROOT
HETATM    1  N   UNL     1      40.712 -16.898   1.041  1.00  0.00    -0.243 N 
HETATM    2  C   UNL     1      40.474 -15.590   1.449  1.00  0.00     0.274 C 
HETATM    3  O   UNL     1      40.800 -15.116   2.534  1.00  0.00    -0.266 OA
HETATM    4  H   UNL     1      40.699 -17.067   0.043  1.00  0.00     0.192 HD
ENDROOT
BRANCH   1   5
HETATM    5  N   UNL     1      41.369 -17.881   1.741  1.00  0.00    -0.183 NA
HETATM    6  C   UNL     1      42.662 -17.942   1.678  1.00  0.00     0.153 C 
BRANCH   6   7
HETATM    7  C   UNL     1      43.408 -19.016   2.361  1.00  0.00     0.016 A 
HETATM    8  C   UNL     1      43.922 -18.822   3.648  1.00  0.00     0.080 A 
HETATM    9  C   UNL     1      44.542 -19.880   4.318  1.00  0.00     0.037 A 
HETATM   10  C   UNL     1      44.693 -21.117   3.687  1.00  0.00     0.003 A 
HETATM   11  C   UNL     1      44.216 -21.301   2.389  1.00  0.00     0.001 A 
HETATM   12  C   UNL     1      43.573 -20.254   1.726  1.00  0.00     0.016 A 
BRANCH   8  13
HETATM   13  O   UNL     1      43.838 -17.640   4.335  1.00  0.00    -0.351 OA
BRANCH  13  14
HETATM   14  C   UNL     1      43.142 -17.788   5.582  1.00  0.00     0.171 C 
HETATM   15  C   UNL     1      41.654 -17.648   5.322  1.00  0.00     0.034 C 
ENDBRANCH  13  14
ENDBRANCH   8  13
ENDBRANCH   6   7
ENDBRANCH   1   5
BRANCH   2  16
HETATM   16  C   UNL     1      39.844 -14.750   0.423  1.00  0.00     0.061 A 
HETATM   17  C   UNL     1      40.188 -14.517  -0.957  1.00  0.00     0.008 A 
HETATM   18  C   UNL     1      39.274 -13.586  -1.460  1.00  0.00     0.043 A 
HETATM   19  C   UNL     1      41.177 -15.007  -1.843  1.00  0.00     0.015 A 
HETATM   20  C   UNL     1      39.323 -13.096  -2.771  1.00  0.00     0.030 A 
HETATM   21  N   UNL     1      38.381 -13.303  -0.456  1.00  0.00    -0.364 N 
HETATM   22  C   UNL     1      40.332 -13.576  -3.609  1.00  0.00     0.002 A 
HETATM   23  C   UNL     1      41.242 -14.523  -3.155  1.00  0.00     0.001 A 
HETATM   24  H   UNL     1      37.595 -12.674  -0.546  1.00  0.00     0.165 HD
HETATM   25  C   UNL     1      38.703 -14.003   0.670  1.00  0.00     0.106 A 
ENDBRANCH   2  16
TORSDOF 5
ENDMDL
MODEL 6
REMARK VINA RESULT:      -7.3      2.319      8.215
REMARK  5 active torsions:
REMARK  status: ('A' for Active; 'I' for Inactive)
REMARK    1  A    between atoms: C_2  and  O_3 
REMARK    2  A    between atoms: O_3  and  C_4 
REMARK    3  A    between atoms: C_5  and  C_6 
REMARK    4  A    between atoms: N_7  and  N_8 
REMARK       I    between atoms: N_8  and  C_9 
REMARK    5  A    between atoms: C_9  and  C_10 
ROOT
HETATM    1  N   UNL     1      42.582 -15.991   0.709  1.00  0.00    -0.243 N 
HETATM    2  C   UNL     1      41.527 -15.123   0.449  1.00  0.00     0.274 C 
HETATM    3  O   UNL     1      40.749 -14.681   1.291  1.00  0.00    -0.266 OA
HETATM    4  H   UNL     1      43.324 -16.015   0.020  1.00  0.00     0.192 HD
ENDROOT
BRANCH   1   5
HETATM    5  N   UNL     1      42.970 -16.486   1.930  1.00  0.00    -0.183 NA
HETATM    6  C   UNL     1      42.639 -17.696   2.253  1.00  0.00     0.153 C 
BRANCH   6   7
HETATM    7  C   UNL     1      42.979 -18.252   3.578  1.00  0.00     0.016 A 
HETATM    8  C   UNL     1      43.904 -19.294   3.699  1.00  0.00     0.080 A 
HETATM    9  C   UNL     1      44.286 -19.743   4.966  1.00  0.00     0.037 A 
HETATM   10  C   UNL     1      43.711 -19.186   6.110  1.00  0.00     0.003 A 
HETATM   11  C   UNL     1      42.759 -18.173   5.990  1.00  0.00     0.001 A 
HETATM   12  C   UNL     1      42.393 -17.704   4.726  1.00  0.00     0.016 A 
BRANCH   8  13
HETATM   13  O   UNL     1      44.503 -19.912   2.633  1.00  0.00    -0.351 OA
BRANCH  13  14
HETATM   14  C   UNL     1      44.521 -21.341   2.778  1.00  0.00     0.171 C 
HETATM   15  C   UNL     1      44.070 -21.961   1.468  1.00  0.00     0.034 C 
ENDBRANCH  13  14
ENDBRANCH   8  13
ENDBRANCH   6   7
ENDBRANCH   1   5
BRANCH   2  16
HETATM   16  C   UNL     1      41.442 -14.689  -0.950  1.00  0.00     0.061 A 
HETATM   17  C   UNL     1      41.852 -13.466  -1.593  1.00  0.00     0.008 A 
HETATM   18  C   UNL     1      41.490 -13.564  -2.940  1.00  0.00     0.043 A 
HETATM   19  C   UNL     1      42.506 -12.283  -1.176  1.00  0.00     0.015 A 
HETATM   20  C   UNL     1      41.708 -12.537  -3.868  1.00  0.00     0.030 A 
HETATM   21  N   UNL     1      40.934 -14.806  -3.127  1.00  0.00    -0.364 N 
HETATM   22  C   UNL     1      42.325 -11.369  -3.415  1.00  0.00     0.002 A 
HETATM   23  C   UNL     1      42.726 -11.245  -2.090  1.00  0.00     0.001 A 
HETATM   24  H   UNL     1      40.601 -15.158  -4.014  1.00  0.00     0.165 HD
HETATM   25  C   UNL     1      40.913 -15.492  -1.949  1.00  0.00     0.106 A 
ENDBRANCH   2  16
TORSDOF 5
ENDMDL
MODEL 7
REMARK VINA RESULT:      -7.3      2.517      8.217
REMARK  5 active torsions:
REMARK  status: ('A' for Active; 'I' for Inactive)
REMARK    1  A    between atoms: C_2  and  O_3 
REMARK    2  A    between atoms: O_3  and  C_4 
REMARK    3  A    between atoms: C_5  and  C_6 
REMARK    4  A    between atoms: N_7  and  N_8 
REMARK       I    between atoms: N_8  and  C_9 
REMARK    5  A    between atoms: C_9  and  C_10 
ROOT
HETATM    1  N   UNL     1      41.277 -16.829   2.731  1.00  0.00    -0.243 N 
HETATM    2  C   UNL     1      40.966 -16.056   3.844  1.00  0.00     0.274 C 
HETATM    3  O   UNL     1      41.093 -16.413   5.013  1.00  0.00    -0.266 OA
HETATM    4  H   UNL     1      41.441 -16.326   1.867  1.00  0.00     0.192 HD
ENDROOT
BRANCH   1   5
HETATM    5  N   UNL     1      41.803 -18.098   2.720  1.00  0.00    -0.183 NA
HETATM    6  C   UNL     1      43.036 -18.271   3.078  1.00  0.00     0.153 C 
BRANCH   6   7
HETATM    7  C   UNL     1      43.665 -19.606   3.024  1.00  0.00     0.016 A 
HETATM    8  C   UNL     1      44.424 -20.082   4.098  1.00  0.00     0.080 A 
HETATM    9  C   UNL     1      44.932 -21.383   4.070  1.00  0.00     0.037 A 
HETATM   10  C   UNL     1      44.723 -22.193   2.952  1.00  0.00     0.003 A 
HETATM   11  C   UNL     1      43.999 -21.706   1.863  1.00  0.00     0.001 A 
HETATM   12  C   UNL     1      43.468 -20.415   1.897  1.00  0.00     0.016 A 
BRANCH   8  13
HETATM   13  O   UNL     1      44.696 -19.352   5.225  1.00  0.00    -0.351 OA
BRANCH  13  14
HETATM   14  C   UNL     1      43.964 -19.827   6.365  1.00  0.00     0.171 C 
HETATM   15  C   UNL     1      43.601 -18.636   7.232  1.00  0.00     0.034 C 
ENDBRANCH  13  14
ENDBRANCH   8  13
ENDBRANCH   6   7
ENDBRANCH   1   5
BRANCH   2  16
HETATM   16  C   UNL     1      40.525 -14.694   3.521  1.00  0.00     0.061 A 
HETATM   17  C   UNL     1      39.537 -14.211   2.589  1.00  0.00     0.008 A 
HETATM   18  C   UNL     1      39.556 -12.814   2.653  1.00  0.00     0.043 A 
HETATM   19  C   UNL     1      38.614 -14.812   1.702  1.00  0.00     0.015 A 
HETATM   20  C   UNL     1      38.742 -12.000   1.854  1.00  0.00     0.030 A 
HETATM   21  N   UNL     1      40.471 -12.458   3.613  1.00  0.00    -0.364 N 
HETATM   22  C   UNL     1      37.867 -12.626   0.965  1.00  0.00     0.002 A 
HETATM   23  C   UNL     1      37.797 -14.013   0.894  1.00  0.00     0.001 A 
HETATM   24  H   UNL     1      40.677 -11.507   3.886  1.00  0.00     0.165 HD
HETATM   25  C   UNL     1      41.046 -13.573   4.149  1.00  0.00     0.106 A 
ENDBRANCH   2  16
TORSDOF 5
ENDMDL
MODEL 8
REMARK VINA RESULT:      -7.3      1.977      2.254
REMARK  5 active torsions:
REMARK  status: ('A' for Active; 'I' for Inactive)
REMARK    1  A    between atoms: C_2  and  O_3 
REMARK    2  A    between atoms: O_3  and  C_4 
REMARK    3  A    between atoms: C_5  and  C_6 
REMARK    4  A    between atoms: N_7  and  N_8 
REMARK       I    between atoms: N_8  and  C_9 
REMARK    5  A    between atoms: C_9  and  C_10 
ROOT
HETATM    1  N   UNL     1      42.473 -16.376   4.074  1.00  0.00    -0.243 N 
HETATM    2  C   UNL     1      43.364 -17.041   3.239  1.00  0.00     0.274 C 
HETATM    3  O   UNL     1      43.744 -16.635   2.143  1.00  0.00    -0.266 OA
HETATM    4  H   UNL     1      42.497 -16.634   5.054  1.00  0.00     0.192 HD
ENDROOT
BRANCH   1   5
HETATM    5  N   UNL     1      41.885 -15.153   3.859  1.00  0.00    -0.183 NA
HETATM    6  C   UNL     1      40.600 -15.042   3.981  1.00  0.00     0.153 C 
BRANCH   6   7
HETATM    7  C   UNL     1      39.914 -13.766   3.700  1.00  0.00     0.016 A 
HETATM    8  C   UNL     1      39.421 -13.486   2.421  1.00  0.00     0.080 A 
HETATM    9  C   UNL     1      38.692 -12.316   2.196  1.00  0.00     0.037 A 
HETATM   10  C   UNL     1      38.495 -11.402   3.233  1.00  0.00     0.003 A 
HETATM   11  C   UNL     1      39.019 -11.660   4.500  1.00  0.00     0.001 A 
HETATM   12  C   UNL     1      39.727 -12.841   4.736  1.00  0.00     0.016 A 
BRANCH   8  13
HETATM   13  O   UNL     1      39.584 -14.313   1.342  1.00  0.00    -0.351 OA
BRANCH  13  14
HETATM   14  C   UNL     1      40.217 -13.645   0.239  1.00  0.00     0.171 C 
HETATM   15  C   UNL     1      40.554 -14.679  -0.818  1.00  0.00     0.034 C 
ENDBRANCH  13  14
ENDBRANCH   8  13
ENDBRANCH   6   7
ENDBRANCH   1   5
BRANCH   2  16
HETATM   16  C   UNL     1      43.903 -18.281   3.808  1.00  0.00     0.061 A 
HETATM   17  C   UNL     1      44.026 -19.606   3.254  1.00  0.00     0.008 A 
HETATM   18  C   UNL     1      44.570 -20.423   4.251  1.00  0.00     0.043 A 
HETATM   19  C   UNL     1      43.744 -20.202   2.002  1.00  0.00     0.015 A 
HETATM   20  C   UNL     1      44.802 -21.793   4.075  1.00  0.00     0.030 A 
HETATM   21  N   UNL     1      44.817 -19.629   5.344  1.00  0.00    -0.364 N 
HETATM   22  C   UNL     1      44.481 -22.356   2.839  1.00  0.00     0.002 A 
HETATM   23  C   UNL     1      43.967 -21.571   1.813  1.00  0.00     0.001 A 
HETATM   24  H   UNL     1      45.231 -19.952   6.207  1.00  0.00     0.165 HD
HETATM   25  C   UNL     1      44.436 -18.344   5.086  1.00  0.00     0.106 A 
ENDBRANCH   2  16
TORSDOF 5
ENDMDL
MODEL 9
REMARK VINA RESULT:      -7.3      3.533      8.462
REMARK  5 active torsions:
REMARK  status: ('A' for Active; 'I' for Inactive)
REMARK    1  A    between atoms: C_2  and  O_3 
REMARK    2  A    between atoms: O_3  and  C_4 
REMARK    3  A    between atoms: C_5  and  C_6 
REMARK    4  A    between atoms: N_7  and  N_8 
REMARK       I    between atoms: N_8  and  C_9 
REMARK    5  A    between atoms: C_9  and  C_10 
ROOT
HETATM    1  N   UNL     1      42.364 -16.392   3.445  1.00  0.00    -0.243 N 
HETATM    2  C   UNL     1      41.530 -15.670   4.291  1.00  0.00     0.274 C 
HETATM    3  O   UNL     1      40.858 -16.150   5.202  1.00  0.00    -0.266 OA
HETATM    4  H   UNL     1      43.091 -15.866   2.974  1.00  0.00     0.192 HD
ENDROOT
BRANCH   1   5
HETATM    5  N   UNL     1      42.618 -17.742   3.479  1.00  0.00    -0.183 NA
HETATM    6  C   UNL     1      43.744 -18.183   3.013  1.00  0.00     0.153 C 
BRANCH   6   7
HETATM    7  C   UNL     1      44.038 -19.628   2.971  1.00  0.00     0.016 A 
HETATM    8  C   UNL     1      44.600 -20.276   4.077  1.00  0.00     0.080 A 
HETATM    9  C   UNL     1      44.782 -21.661   4.056  1.00  0.00     0.037 A 
HETATM   10  C   UNL     1      44.450 -22.394   2.915  1.00  0.00     0.003 A 
HETATM   11  C   UNL     1      43.926 -21.745   1.796  1.00  0.00     0.001 A 
HETATM   12  C   UNL     1      43.718 -20.364   1.823  1.00  0.00     0.016 A 
BRANCH   8  13
HETATM   13  O   UNL     1      44.973 -19.635   5.229  1.00  0.00    -0.351 OA
BRANCH  13  14
HETATM   14  C   UNL     1      44.049 -19.872   6.303  1.00  0.00     0.171 C 
HETATM   15  C   UNL     1      43.624 -18.533   6.874  1.00  0.00     0.034 C 
ENDBRANCH  13  14
ENDBRANCH   8  13
ENDBRANCH   6   7
ENDBRANCH   1   5
BRANCH   2  16
HETATM   16  C   UNL     1      41.560 -14.221   4.066  1.00  0.00     0.061 A 
HETATM   17  C   UNL     1      40.898 -13.138   4.748  1.00  0.00     0.008 A 
HETATM   18  C   UNL     1      41.245 -11.957   4.086  1.00  0.00     0.043 A 
HETATM   19  C   UNL     1      40.044 -13.032   5.871  1.00  0.00     0.015 A 
HETATM   20  C   UNL     1      40.755 -10.698   4.459  1.00  0.00     0.030 A 
HETATM   21  N   UNL     1      42.119 -12.290   3.081  1.00  0.00    -0.364 N 
HETATM   22  C   UNL     1      39.887 -10.633   5.551  1.00  0.00     0.002 A 
HETATM   23  C   UNL     1      39.542 -11.782   6.253  1.00  0.00     0.001 A 
HETATM   24  H   UNL     1      42.551 -11.628   2.452  1.00  0.00     0.165 HD
HETATM   25  C   UNL     1      42.326 -13.638   3.068  1.00  0.00     0.106 A 
ENDBRANCH   2  16
TORSDOF 5
ENDMDL
MODEL 10
REMARK VINA RESULT:      -7.1      1.782      8.510
REMARK  5 active torsions:
REMARK  status: ('A' for Active; 'I' for Inactive)
REMARK    1  A    between atoms: C_2  and  O_3 
REMARK    2  A    between atoms: O_3  and  C_4 
REMARK    3  A    between atoms: C_5  and  C_6 
REMARK    4  A    between atoms: N_7  and  N_8 
REMARK       I    between atoms: N_8  and  C_9 
REMARK    5  A    between atoms: C_9  and  C_10 
ROOT
HETATM    1  N   UNL     1      41.160 -16.932   0.733  1.00  0.00    -0.243 N 
HETATM    2  C   UNL     1      40.552 -15.800   1.263  1.00  0.00     0.274 C 
HETATM    3  O   UNL     1      40.377 -15.585   2.460  1.00  0.00    -0.266 OA
HETATM    4  H   UNL     1      41.534 -16.844  -0.205  1.00  0.00     0.192 HD
ENDROOT
BRANCH   1   5
HETATM    5  N   UNL     1      41.699 -17.989   1.426  1.00  0.00    -0.183 NA
HETATM    6  C   UNL     1      42.949 -17.947   1.767  1.00  0.00     0.153 C 
BRANCH   6   7
HETATM    7  C   UNL     1      43.589 -19.083   2.457  1.00  0.00     0.016 A 
HETATM    8  C   UNL     1      44.007 -18.967   3.788  1.00  0.00     0.080 A 
HETATM    9  C   UNL     1      44.523 -20.081   4.456  1.00  0.00     0.037 A 
HETATM   10  C   UNL     1      44.668 -21.296   3.783  1.00  0.00     0.003 A 
HETATM   11  C   UNL     1      44.289 -21.403   2.445  1.00  0.00     0.001 A 
HETATM   12  C   UNL     1      43.748 -20.300   1.781  1.00  0.00     0.016 A 
BRANCH   8  13
HETATM   13  O   UNL     1      43.921 -17.812   4.518  1.00  0.00    -0.351 OA
BRANCH  13  14
HETATM   14  C   UNL     1      44.287 -18.012   5.892  1.00  0.00     0.171 C 
HETATM   15  C   UNL     1      44.473 -16.654   6.542  1.00  0.00     0.034 C 
ENDBRANCH  13  14
ENDBRANCH   8  13
ENDBRANCH   6   7
ENDBRANCH   1   5
BRANCH   2  16
HETATM   16  C   UNL     1      40.180 -14.797   0.259  1.00  0.00     0.061 A 
HETATM   17  C   UNL     1      39.063 -13.889   0.191  1.00  0.00     0.008 A 
HETATM   18  C   UNL     1      39.174 -13.185  -1.012  1.00  0.00     0.043 A 
HETATM   19  C   UNL     1      37.968 -13.578   1.032  1.00  0.00     0.015 A 
HETATM   20  C   UNL     1      38.237 -12.232  -1.431  1.00  0.00     0.030 A 
HETATM   21  N   UNL     1      40.329 -13.601  -1.627  1.00  0.00    -0.364 N 
HETATM   22  C   UNL     1      37.150 -11.974  -0.592  1.00  0.00     0.002 A 
HETATM   23  C   UNL     1      37.020 -12.631   0.625  1.00  0.00     0.001 A 
HETATM   24  H   UNL     1      40.673 -13.243  -2.507  1.00  0.00     0.165 HD
HETATM   25  C   UNL     1      40.946 -14.554  -0.870  1.00  0.00     0.106 A 
ENDBRANCH   2  16
TORSDOF 5
ENDMDL
