MODEL 1
REMARK VINA RESULT:      -7.5      0.000      0.000
REMARK  7 active torsions:
REMARK  status: ('A' for Active; 'I' for Inactive)
REMARK    1  A    between atoms: O_2  and  C_3 
REMARK    2  A    between atoms: C_5  and  C_6 
REMARK    3  A    between atoms: C_10  and  N_11 
REMARK    4  A    between atoms: N_11  and  C_12 
REMARK    5  A    between atoms: C_12  and  S_13 
REMARK    6  A    between atoms: N_15  and  C_17 
REMARK    7  A    between atoms: C_17  and  C_18 
ROOT
HETATM    1  C   UNL     1      42.602 -17.703   1.909  1.00  0.00     0.064 A 
HETATM    2  N   UNL     1      41.358 -17.763   1.329  1.00  0.00    -0.276 N 
HETATM    3  H   UNL     1      40.740 -18.566   1.271  1.00  0.00     0.189 HD
HETATM    4  N   UNL     1      40.943 -16.606   0.775  1.00  0.00    -0.156 NA
HETATM    5  C   UNL     1      41.936 -15.756   1.036  1.00  0.00     0.151 A 
HETATM    6  C   UNL     1      42.980 -16.382   1.747  1.00  0.00     0.084 A 
ENDROOT
BRANCH   5   7
HETATM    7  N   UNL     1      41.987 -14.463   0.669  1.00  0.00    -0.320 N 
HETATM    8  H   UNL     1      42.270 -13.760   1.340  1.00  0.00     0.169 HD
BRANCH   7   9
HETATM    9  C   UNL     1      41.672 -13.896  -0.584  1.00  0.00     0.141 C 
HETATM   10  N   UNL     1      41.720 -14.648  -1.658  1.00  0.00    -0.365 N 
HETATM   11  H   UNL     1      41.995 -15.619  -1.480  1.00  0.00     0.162 HD
BRANCH   9  12
HETATM   12  S   UNL     1      41.235 -12.231  -0.588  1.00  0.00    -0.099 SA
HETATM   13  C   UNL     1      42.811 -11.504  -1.091  1.00  0.00     0.099 C 
ENDBRANCH   9  12
BRANCH  10  14
HETATM   14  C   UNL     1      41.397 -14.223  -3.016  1.00  0.00     0.186 C 
BRANCH  14  15
HETATM   15  C   UNL     1      40.052 -14.720  -3.413  1.00  0.00     0.070 A 
HETATM   16  O   UNL     1      39.990 -15.876  -4.139  1.00  0.00    -0.325 OA
HETATM   17  C   UNL     1      38.677 -16.128  -4.372  1.00  0.00     0.142 A 
HETATM   18  C   UNL     1      37.890 -15.152  -3.809  1.00  0.00     0.027 A 
HETATM   19  C   UNL     1      38.777 -14.239  -3.188  1.00  0.00     0.036 A 
ENDBRANCH  14  15
ENDBRANCH  10  14
ENDBRANCH   7   9
ENDBRANCH   5   7
BRANCH   1  20
HETATM   20  C   UNL     1      43.297 -18.835   2.531  1.00  0.00    -0.005 A 
HETATM   21  C   UNL     1      43.729 -18.749   3.864  1.00  0.00     0.050 A 
HETATM   22  C   UNL     1      44.438 -19.788   4.478  1.00  0.00     0.069 A 
HETATM   23  C   UNL     1      44.704 -20.950   3.759  1.00  0.00     0.037 A 
HETATM   24  C   UNL     1      44.277 -21.059   2.435  1.00  0.00     0.004 A 
HETATM   25  C   UNL     1      43.582 -20.010   1.824  1.00  0.00     0.014 A 
BRANCH  22  26
HETATM   26  O   UNL     1      44.802 -19.541   5.773  1.00  0.00    -0.356 OA
HETATM   27  C   UNL     1      45.019 -18.181   6.129  1.00  0.00     0.210 C 
ENDBRANCH  22  26
ENDBRANCH   1  20
TORSDOF 7
ENDMDL
MODEL 2
REMARK VINA RESULT:      -7.5      2.096      2.327
REMARK  7 active torsions:
REMARK  status: ('A' for Active; 'I' for Inactive)
REMARK    1  A    between atoms: O_2  and  C_3 
REMARK    2  A    between atoms: C_5  and  C_6 
REMARK    3  A    between atoms: C_10  and  N_11 
REMARK    4  A    between atoms: N_11  and  C_12 
REMARK    5  A    between atoms: C_12  and  S_13 
REMARK    6  A    between atoms: N_15  and  C_17 
REMARK    7  A    between atoms: C_17  and  C_18 
ROOT
HETATM    1  C   UNL     1      41.788 -17.262   2.937  1.00  0.00     0.064 A 
HETATM    2  N   UNL     1      41.835 -16.090   3.651  1.00  0.00    -0.276 N 
HETATM    3  H   UNL     1      42.527 -15.812   4.339  1.00  0.00     0.189 HD
HETATM    4  N   UNL     1      40.827 -15.234   3.389  1.00  0.00    -0.156 NA
HETATM    5  C   UNL     1      40.121 -15.857   2.445  1.00  0.00     0.151 A 
HETATM    6  C   UNL     1      40.680 -17.109   2.122  1.00  0.00     0.084 A 
ENDROOT
BRANCH   5   7
HETATM    7  N   UNL     1      38.998 -15.396   1.865  1.00  0.00    -0.320 N 
HETATM    8  H   UNL     1      38.094 -15.670   2.230  1.00  0.00     0.169 HD
BRANCH   7   9
HETATM    9  C   UNL     1      38.877 -14.547   0.745  1.00  0.00     0.141 C 
HETATM   10  N   UNL     1      39.782 -14.604  -0.204  1.00  0.00    -0.365 N 
HETATM   11  H   UNL     1      40.527 -15.288  -0.034  1.00  0.00     0.162 HD
BRANCH   9  12
HETATM   12  S   UNL     1      37.515 -13.495   0.720  1.00  0.00    -0.099 SA
HETATM   13  C   UNL     1      38.122 -12.185   1.807  1.00  0.00     0.099 C 
ENDBRANCH   9  12
BRANCH  10  14
HETATM   14  C   UNL     1      39.784 -13.818  -1.432  1.00  0.00     0.186 C 
BRANCH  14  15
HETATM   15  C   UNL     1      39.256 -14.621  -2.567  1.00  0.00     0.070 A 
HETATM   16  O   UNL     1      37.926 -14.508  -2.863  1.00  0.00    -0.325 OA
HETATM   17  C   UNL     1      37.685 -15.317  -3.925  1.00  0.00     0.142 A 
HETATM   18  C   UNL     1      38.838 -15.953  -4.319  1.00  0.00     0.027 A 
HETATM   19  C   UNL     1      39.856 -15.505  -3.443  1.00  0.00     0.036 A 
ENDBRANCH  14  15
ENDBRANCH  10  14
ENDBRANCH   7   9
ENDBRANCH   5   7
BRANCH   1  20
HETATM   20  C   UNL     1      42.735 -18.373   3.076  1.00  0.00    -0.005 A 
HETATM   21  C   UNL     1      43.494 -18.507   4.249  1.00  0.00     0.050 A 
HETATM   22  C   UNL     1      44.443 -19.525   4.401  1.00  0.00     0.069 A 
HETATM   23  C   UNL     1      44.625 -20.447   3.375  1.00  0.00     0.037 A 
HETATM   24  C   UNL     1      43.873 -20.338   2.203  1.00  0.00     0.004 A 
HETATM   25  C   UNL     1      42.939 -19.308   2.053  1.00  0.00     0.014 A 
BRANCH  22  26
HETATM   26  O   UNL     1      45.111 -19.506   5.595  1.00  0.00    -0.356 OA
HETATM   27  C   UNL     1      44.775 -18.463   6.501  1.00  0.00     0.210 C 
ENDBRANCH  22  26
ENDBRANCH   1  20
TORSDOF 7
ENDMDL
MODEL 3
REMARK VINA RESULT:      -7.4      1.514      1.822
REMARK  7 active torsions:
REMARK  status: ('A' for Active; 'I' for Inactive)
REMARK    1  A    between atoms: O_2  and  C_3 
REMARK    2  A    between atoms: C_5  and  C_6 
REMARK    3  A    between atoms: C_10  and  N_11 
REMARK    4  A    between atoms: N_11  and  C_12 
REMARK    5  A    between atoms: C_12  and  S_13 
REMARK    6  A    between atoms: N_15  and  C_17 
REMARK    7  A    between atoms: C_17  and  C_18 
ROOT
HETATM    1  C   UNL     1      42.634 -17.961   2.021  1.00  0.00     0.064 A 
HETATM    2  N   UNL     1      41.442 -17.393   2.400  1.00  0.00    -0.276 N 
HETATM    3  H   UNL     1      40.932 -17.544   3.264  1.00  0.00     0.189 HD
HETATM    4  N   UNL     1      40.913 -16.547   1.494  1.00  0.00    -0.156 NA
HETATM    5  C   UNL     1      41.810 -16.537   0.508  1.00  0.00     0.151 A 
HETATM    6  C   UNL     1      42.899 -17.386   0.791  1.00  0.00     0.084 A 
ENDROOT
BRANCH   5   7
HETATM    7  N   UNL     1      41.718 -15.839  -0.638  1.00  0.00    -0.320 N 
HETATM    8  H   UNL     1      42.259 -16.123  -1.445  1.00  0.00     0.169 HD
BRANCH   7   9
HETATM    9  C   UNL     1      40.944 -14.689  -0.903  1.00  0.00     0.141 C 
HETATM   10  N   UNL     1      39.637 -14.760  -0.804  1.00  0.00    -0.365 N 
HETATM   11  H   UNL     1      39.284 -15.683  -0.534  1.00  0.00     0.162 HD
BRANCH   9  12
HETATM   12  S   UNL     1      41.806 -13.263  -1.334  1.00  0.00    -0.099 SA
HETATM   13  C   UNL     1      41.771 -13.419  -3.134  1.00  0.00     0.099 C 
ENDBRANCH   9  12
BRANCH  10  14
HETATM   14  C   UNL     1      38.703 -13.660  -1.016  1.00  0.00     0.186 C 
BRANCH  14  15
HETATM   15  C   UNL     1      37.964 -13.841  -2.294  1.00  0.00     0.070 A 
HETATM   16  O   UNL     1      37.360 -12.744  -2.842  1.00  0.00    -0.325 OA
HETATM   17  C   UNL     1      36.765 -13.151  -3.992  1.00  0.00     0.142 A 
HETATM   18  C   UNL     1      36.974 -14.494  -4.195  1.00  0.00     0.027 A 
HETATM   19  C   UNL     1      37.749 -14.944  -3.099  1.00  0.00     0.036 A 
ENDBRANCH  14  15
ENDBRANCH  10  14
ENDBRANCH   7   9
ENDBRANCH   5   7
BRANCH   1  20
HETATM   20  C   UNL     1      43.383 -18.950   2.804  1.00  0.00    -0.005 A 
HETATM   21  C   UNL     1      43.642 -18.721   4.164  1.00  0.00     0.050 A 
HETATM   22  C   UNL     1      44.394 -19.617   4.933  1.00  0.00     0.069 A 
HETATM   23  C   UNL     1      44.880 -20.780   4.343  1.00  0.00     0.037 A 
HETATM   24  C   UNL     1      44.627 -21.032   2.993  1.00  0.00     0.004 A 
HETATM   25  C   UNL     1      43.888 -20.123   2.228  1.00  0.00     0.014 A 
BRANCH  22  26
HETATM   26  O   UNL     1      44.571 -19.240   6.235  1.00  0.00    -0.356 OA
HETATM   27  C   UNL     1      45.230 -17.999   6.459  1.00  0.00     0.210 C 
ENDBRANCH  22  26
ENDBRANCH   1  20
TORSDOF 7
ENDMDL
MODEL 4
REMARK VINA RESULT:      -7.4      1.133      2.025
REMARK  7 active torsions:
REMARK  status: ('A' for Active; 'I' for Inactive)
REMARK    1  A    between atoms: O_2  and  C_3 
REMARK    2  A    between atoms: C_5  and  C_6 
REMARK    3  A    between atoms: C_10  and  N_11 
REMARK    4  A    between atoms: N_11  and  C_12 
REMARK    5  A    between atoms: C_12  and  S_13 
REMARK    6  A    between atoms: N_15  and  C_17 
REMARK    7  A    between atoms: C_17  and  C_18 
ROOT
HETATM    1  C   UNL     1      42.784 -17.265   2.139  1.00  0.00     0.064 A 
HETATM    2  N   UNL     1      41.805 -17.588   1.232  1.00  0.00    -0.276 N 
HETATM    3  H   UNL     1      41.424 -18.508   1.035  1.00  0.00     0.189 HD
HETATM    4  N   UNL     1      41.320 -16.541   0.535  1.00  0.00    -0.156 NA
HETATM    5  C   UNL     1      41.981 -15.497   1.033  1.00  0.00     0.151 A 
HETATM    6  C   UNL     1      42.890 -15.889   2.036  1.00  0.00     0.084 A 
ENDROOT
BRANCH   5   7
HETATM    7  N   UNL     1      41.846 -14.217   0.641  1.00  0.00    -0.320 N 
HETATM    8  H   UNL     1      42.001 -13.469   1.305  1.00  0.00     0.169 HD
BRANCH   7   9
HETATM    9  C   UNL     1      41.485 -13.724  -0.631  1.00  0.00     0.141 C 
HETATM   10  N   UNL     1      41.772 -14.432  -1.698  1.00  0.00    -0.365 N 
HETATM   11  H   UNL     1      42.254 -15.314  -1.501  1.00  0.00     0.162 HD
BRANCH   9  12
HETATM   12  S   UNL     1      40.673 -12.206  -0.666  1.00  0.00    -0.099 SA
HETATM   13  C   UNL     1      39.094 -12.690   0.066  1.00  0.00     0.099 C 
ENDBRANCH   9  12
BRANCH  10  14
HETATM   14  C   UNL     1      41.442 -14.077  -3.074  1.00  0.00     0.186 C 
BRANCH  14  15
HETATM   15  C   UNL     1      40.132 -14.664  -3.465  1.00  0.00     0.070 A 
HETATM   16  O   UNL     1      40.128 -15.936  -3.966  1.00  0.00    -0.325 OA
HETATM   17  C   UNL     1      38.837 -16.251  -4.240  1.00  0.00     0.142 A 
HETATM   18  C   UNL     1      38.007 -15.202  -3.924  1.00  0.00     0.027 A 
HETATM   19  C   UNL     1      38.841 -14.174  -3.423  1.00  0.00     0.036 A 
ENDBRANCH  14  15
ENDBRANCH  10  14
ENDBRANCH   7   9
ENDBRANCH   5   7
BRANCH   1  20
HETATM   20  C   UNL     1      43.507 -18.226   2.979  1.00  0.00    -0.005 A 
HETATM   21  C   UNL     1      43.852 -19.486   2.468  1.00  0.00     0.050 A 
HETATM   22  C   UNL     1      44.498 -20.449   3.254  1.00  0.00     0.069 A 
HETATM   23  C   UNL     1      44.832 -20.143   4.569  1.00  0.00     0.037 A 
HETATM   24  C   UNL     1      44.505 -18.892   5.095  1.00  0.00     0.004 A 
HETATM   25  C   UNL     1      43.845 -17.942   4.309  1.00  0.00     0.014 A 
BRANCH  22  26
HETATM   26  O   UNL     1      44.748 -21.631   2.613  1.00  0.00    -0.356 OA
HETATM   27  C   UNL     1      43.985 -21.900   1.443  1.00  0.00     0.210 C 
ENDBRANCH  22  26
ENDBRANCH   1  20
TORSDOF 7
ENDMDL
MODEL 5
REMARK VINA RESULT:      -7.4      2.053      3.890
REMARK  7 active torsions:
REMARK  status: ('A' for Active; 'I' for Inactive)
REMARK    1  A    between atoms: O_2  and  C_3 
REMARK    2  A    between atoms: C_5  and  C_6 
REMARK    3  A    between atoms: C_10  and  N_11 
REMARK    4  A    between atoms: N_11  and  C_12 
REMARK    5  A    between atoms: C_12  and  S_13 
REMARK    6  A    between atoms: N_15  and  C_17 
REMARK    7  A    between atoms: C_17  and  C_18 
ROOT
HETATM    1  C   UNL     1      42.696 -16.869   2.076  1.00  0.00     0.064 A 
HETATM    2  N   UNL     1      42.846 -15.514   2.243  1.00  0.00    -0.276 N 
HETATM    3  H   UNL     1      43.420 -15.035   2.929  1.00  0.00     0.189 HD
HETATM    4  N   UNL     1      42.129 -14.763   1.384  1.00  0.00    -0.156 NA
HETATM    5  C   UNL     1      41.521 -15.661   0.610  1.00  0.00     0.151 A 
HETATM    6  C   UNL     1      41.848 -16.978   0.988  1.00  0.00     0.084 A 
ENDROOT
BRANCH   5   7
HETATM    7  N   UNL     1      40.676 -15.389  -0.401  1.00  0.00    -0.320 N 
HETATM    8  H   UNL     1      39.761 -15.823  -0.423  1.00  0.00     0.169 HD
BRANCH   7   9
HETATM    9  C   UNL     1      40.886 -14.552  -1.517  1.00  0.00     0.141 C 
HETATM   10  N   UNL     1      42.068 -14.011  -1.699  1.00  0.00    -0.365 N 
HETATM   11  H   UNL     1      42.758 -14.255  -0.981  1.00  0.00     0.162 HD
BRANCH   9  12
HETATM   12  S   UNL     1      39.544 -14.317  -2.569  1.00  0.00    -0.099 SA
HETATM   13  C   UNL     1      39.714 -15.784  -3.610  1.00  0.00     0.099 C 
ENDBRANCH   9  12
BRANCH  10  14
HETATM   14  C   UNL     1      42.453 -13.150  -2.811  1.00  0.00     0.186 C 
BRANCH  14  15
HETATM   15  C   UNL     1      42.728 -11.769  -2.332  1.00  0.00     0.070 A 
HETATM   16  O   UNL     1      43.176 -11.617  -1.049  1.00  0.00    -0.325 OA
HETATM   17  C   UNL     1      43.361 -10.288  -0.848  1.00  0.00     0.142 A 
HETATM   18  C   UNL     1      43.039  -9.578  -1.980  1.00  0.00     0.027 A 
HETATM   19  C   UNL     1      42.629 -10.533  -2.942  1.00  0.00     0.036 A 
ENDBRANCH  14  15
ENDBRANCH  10  14
ENDBRANCH   7   9
ENDBRANCH   5   7
BRANCH   1  20
HETATM   20  C   UNL     1      43.325 -17.897   2.913  1.00  0.00    -0.005 A 
HETATM   21  C   UNL     1      43.865 -19.051   2.324  1.00  0.00     0.050 A 
HETATM   22  C   UNL     1      44.430 -20.075   3.092  1.00  0.00     0.069 A 
HETATM   23  C   UNL     1      44.483 -19.941   4.476  1.00  0.00     0.037 A 
HETATM   24  C   UNL     1      43.959 -18.797   5.082  1.00  0.00     0.004 A 
HETATM   25  C   UNL     1      43.382 -17.785   4.309  1.00  0.00     0.014 A 
BRANCH  22  26
HETATM   26  O   UNL     1      44.895 -21.139   2.368  1.00  0.00    -0.356 OA
HETATM   27  C   UNL     1      43.935 -21.866   1.610  1.00  0.00     0.210 C 
ENDBRANCH  22  26
ENDBRANCH   1  20
TORSDOF 7
ENDMDL
MODEL 6
REMARK VINA RESULT:      -7.3      1.855      2.413
REMARK  7 active torsions:
REMARK  status: ('A' for Active; 'I' for Inactive)
REMARK    1  A    between atoms: O_2  and  C_3 
REMARK    2  A    between atoms: C_5  and  C_6 
REMARK    3  A    between atoms: C_10  and  N_11 
REMARK    4  A    between atoms: N_11  and  C_12 
REMARK    5  A    between atoms: C_12  and  S_13 
REMARK    6  A    between atoms: N_15  and  C_17 
REMARK    7  A    between atoms: C_17  and  C_18 
ROOT
HETATM    1  C   UNL     1      42.461 -17.925   1.819  1.00  0.00     0.064 A 
HETATM    2  N   UNL     1      42.883 -17.196   0.735  1.00  0.00    -0.276 N 
HETATM    3  H   UNL     1      43.747 -17.307   0.214  1.00  0.00     0.189 HD
HETATM    4  N   UNL     1      42.032 -16.225   0.348  1.00  0.00    -0.156 NA
HETATM    5  C   UNL     1      41.005 -16.351   1.188  1.00  0.00     0.151 A 
HETATM    6  C   UNL     1      41.215 -17.397   2.109  1.00  0.00     0.084 A 
ENDROOT
BRANCH   5   7
HETATM    7  N   UNL     1      39.899 -15.586   1.204  1.00  0.00    -0.320 N 
HETATM    8  H   UNL     1      39.132 -15.824   1.821  1.00  0.00     0.169 HD
BRANCH   7   9
HETATM    9  C   UNL     1      39.617 -14.438   0.435  1.00  0.00     0.141 C 
HETATM   10  N   UNL     1      39.670 -14.514  -0.874  1.00  0.00    -0.365 N 
HETATM   11  H   UNL     1      39.925 -15.440  -1.232  1.00  0.00     0.162 HD
BRANCH   9  12
HETATM   12  S   UNL     1      39.209 -13.009   1.304  1.00  0.00    -0.099 SA
HETATM   13  C   UNL     1      40.856 -12.288   1.492  1.00  0.00     0.099 C 
ENDBRANCH   9  12
BRANCH  10  14
HETATM   14  C   UNL     1      39.380 -13.432  -1.807  1.00  0.00     0.186 C 
BRANCH  14  15
HETATM   15  C   UNL     1      40.630 -12.949  -2.452  1.00  0.00     0.070 A 
HETATM   16  O   UNL     1      41.821 -13.372  -1.931  1.00  0.00    -0.325 OA
HETATM   17  C   UNL     1      42.804 -12.814  -2.681  1.00  0.00     0.142 A 
HETATM   18  C   UNL     1      42.268 -12.035  -3.679  1.00  0.00     0.027 A 
HETATM   19  C   UNL     1      40.862 -12.120  -3.533  1.00  0.00     0.036 A 
ENDBRANCH  14  15
ENDBRANCH  10  14
ENDBRANCH   7   9
ENDBRANCH   5   7
BRANCH   1  20
HETATM   20  C   UNL     1      43.225 -18.999   2.464  1.00  0.00    -0.005 A 
HETATM   21  C   UNL     1      43.666 -18.851   3.788  1.00  0.00     0.050 A 
HETATM   22  C   UNL     1      44.439 -19.832   4.422  1.00  0.00     0.069 A 
HETATM   23  C   UNL     1      44.761 -20.997   3.733  1.00  0.00     0.037 A 
HETATM   24  C   UNL     1      44.325 -21.168   2.417  1.00  0.00     0.004 A 
HETATM   25  C   UNL     1      43.567 -20.176   1.786  1.00  0.00     0.014 A 
BRANCH  22  26
HETATM   26  O   UNL     1      44.803 -19.527   5.705  1.00  0.00    -0.356 OA
HETATM   27  C   UNL     1      44.891 -18.147   6.035  1.00  0.00     0.210 C 
ENDBRANCH  22  26
ENDBRANCH   1  20
TORSDOF 7
ENDMDL
MODEL 7
REMARK VINA RESULT:      -7.3      2.327      8.105
REMARK  7 active torsions:
REMARK  status: ('A' for Active; 'I' for Inactive)
REMARK    1  A    between atoms: O_2  and  C_3 
REMARK    2  A    between atoms: C_5  and  C_6 
REMARK    3  A    between atoms: C_10  and  N_11 
REMARK    4  A    between atoms: N_11  and  C_12 
REMARK    5  A    between atoms: C_12  and  S_13 
REMARK    6  A    between atoms: N_15  and  C_17 
REMARK    7  A    between atoms: C_17  and  C_18 
ROOT
HETATM    1  C   UNL     1      41.247 -15.270   0.420  1.00  0.00     0.064 A 
HETATM    2  N   UNL     1      40.401 -16.288   0.787  1.00  0.00    -0.276 N 
HETATM    3  H   UNL     1      39.717 -16.763   0.208  1.00  0.00     0.189 HD
HETATM    4  N   UNL     1      40.514 -16.671   2.075  1.00  0.00    -0.156 NA
HETATM    5  C   UNL     1      41.492 -15.900   2.550  1.00  0.00     0.151 A 
HETATM    6  C   UNL     1      41.987 -15.025   1.562  1.00  0.00     0.084 A 
ENDROOT
BRANCH   5   7
HETATM    7  N   UNL     1      41.962 -15.907   3.810  1.00  0.00    -0.320 N 
HETATM    8  H   UNL     1      41.656 -15.199   4.465  1.00  0.00     0.169 HD
BRANCH   7   9
HETATM    9  C   UNL     1      42.887 -16.798   4.394  1.00  0.00     0.141 C 
HETATM   10  N   UNL     1      43.158 -17.930   3.787  1.00  0.00    -0.365 N 
HETATM   11  H   UNL     1      42.649 -18.069   2.909  1.00  0.00     0.162 HD
BRANCH   9  12
HETATM   12  S   UNL     1      43.600 -16.303   5.881  1.00  0.00    -0.099 SA
HETATM   13  C   UNL     1      43.606 -14.513   5.634  1.00  0.00     0.099 C 
ENDBRANCH   9  12
BRANCH  10  14
HETATM   14  C   UNL     1      44.107 -18.939   4.243  1.00  0.00     0.186 C 
BRANCH  14  15
HETATM   15  C   UNL     1      44.092 -20.118   3.336  1.00  0.00     0.070 A 
HETATM   16  O   UNL     1      44.624 -21.287   3.802  1.00  0.00    -0.325 OA
HETATM   17  C   UNL     1      44.491 -22.207   2.812  1.00  0.00     0.142 A 
HETATM   18  C   UNL     1      43.883 -21.649   1.713  1.00  0.00     0.027 A 
HETATM   19  C   UNL     1      43.624 -20.297   2.048  1.00  0.00     0.036 A 
ENDBRANCH  14  15
ENDBRANCH  10  14
ENDBRANCH   7   9
ENDBRANCH   5   7
BRANCH   1  20
HETATM   20  C   UNL     1      41.283 -14.640  -0.905  1.00  0.00    -0.005 A 
HETATM   21  C   UNL     1      40.688 -15.279  -2.004  1.00  0.00     0.050 A 
HETATM   22  C   UNL     1      40.743 -14.734  -3.292  1.00  0.00     0.069 A 
HETATM   23  C   UNL     1      41.383 -13.515  -3.490  1.00  0.00     0.037 A 
HETATM   24  C   UNL     1      41.975 -12.858  -2.409  1.00  0.00     0.004 A 
HETATM   25  C   UNL     1      41.929 -13.417  -1.128  1.00  0.00     0.014 A 
BRANCH  22  26
HETATM   26  O   UNL     1      40.131 -15.488  -4.255  1.00  0.00    -0.356 OA
HETATM   27  C   UNL     1      38.827 -15.972  -3.958  1.00  0.00     0.210 C 
ENDBRANCH  22  26
ENDBRANCH   1  20
TORSDOF 7
ENDMDL
MODEL 8
REMARK VINA RESULT:      -7.1      2.086      2.742
REMARK  7 active torsions:
REMARK  status: ('A' for Active; 'I' for Inactive)
REMARK    1  A    between atoms: O_2  and  C_3 
REMARK    2  A    between atoms: C_5  and  C_6 
REMARK    3  A    between atoms: C_10  and  N_11 
REMARK    4  A    between atoms: N_11  and  C_12 
REMARK    5  A    between atoms: C_12  and  S_13 
REMARK    6  A    between atoms: N_15  and  C_17 
REMARK    7  A    between atoms: C_17  and  C_18 
ROOT
HETATM    1  C   UNL     1      42.159 -17.407   3.938  1.00  0.00     0.064 A 
HETATM    2  N   UNL     1      41.697 -16.476   4.837  1.00  0.00    -0.276 N 
HETATM    3  H   UNL     1      41.939 -16.392   5.819  1.00  0.00     0.189 HD
HETATM    4  N   UNL     1      40.818 -15.593   4.324  1.00  0.00    -0.156 NA
HETATM    5  C   UNL     1      40.734 -15.940   3.040  1.00  0.00     0.151 A 
HETATM    6  C   UNL     1      41.553 -17.048   2.748  1.00  0.00     0.084 A 
ENDROOT
BRANCH   5   7
HETATM    7  N   UNL     1      39.961 -15.348   2.112  1.00  0.00    -0.320 N 
HETATM    8  H   UNL     1      38.952 -15.408   2.185  1.00  0.00     0.169 HD
BRANCH   7   9
HETATM    9  C   UNL     1      40.362 -14.624   0.969  1.00  0.00     0.141 C 
HETATM   10  N   UNL     1      39.622 -14.674  -0.113  1.00  0.00    -0.365 N 
HETATM   11  H   UNL     1      38.786 -15.261  -0.026  1.00  0.00     0.162 HD
BRANCH   9  12
HETATM   12  S   UNL     1      41.815 -13.712   1.106  1.00  0.00    -0.099 SA
HETATM   13  C   UNL     1      41.178 -12.251   1.958  1.00  0.00     0.099 C 
ENDBRANCH   9  12
BRANCH  10  14
HETATM   14  C   UNL     1      39.882 -13.964  -1.361  1.00  0.00     0.186 C 
BRANCH  14  15
HETATM   15  C   UNL     1      39.390 -14.752  -2.522  1.00  0.00     0.070 A 
HETATM   16  O   UNL     1      38.096 -14.561  -2.920  1.00  0.00    -0.325 OA
HETATM   17  C   UNL     1      37.884 -15.372  -3.987  1.00  0.00     0.142 A 
HETATM   18  C   UNL     1      39.020 -16.085  -4.285  1.00  0.00     0.027 A 
HETATM   19  C   UNL     1      39.996 -15.687  -3.339  1.00  0.00     0.036 A 
ENDBRANCH  14  15
ENDBRANCH  10  14
ENDBRANCH   7   9
ENDBRANCH   5   7
BRANCH   1  20
HETATM   20  C   UNL     1      43.080 -18.504   4.258  1.00  0.00    -0.005 A 
HETATM   21  C   UNL     1      43.648 -19.268   3.227  1.00  0.00     0.050 A 
HETATM   22  C   UNL     1      44.492 -20.353   3.493  1.00  0.00     0.069 A 
HETATM   23  C   UNL     1      44.800 -20.671   4.812  1.00  0.00     0.037 A 
HETATM   24  C   UNL     1      44.252 -19.918   5.853  1.00  0.00     0.004 A 
HETATM   25  C   UNL     1      43.397 -18.846   5.579  1.00  0.00     0.014 A 
BRANCH  22  26
HETATM   26  O   UNL     1      44.948 -21.005   2.380  1.00  0.00    -0.356 OA
HETATM   27  C   UNL     1      44.022 -21.854   1.711  1.00  0.00     0.210 C 
ENDBRANCH  22  26
ENDBRANCH   1  20
TORSDOF 7
ENDMDL
MODEL 9
REMARK VINA RESULT:      -6.9      2.088      3.272
REMARK  7 active torsions:
REMARK  status: ('A' for Active; 'I' for Inactive)
REMARK    1  A    between atoms: O_2  and  C_3 
REMARK    2  A    between atoms: C_5  and  C_6 
REMARK    3  A    between atoms: C_10  and  N_11 
REMARK    4  A    between atoms: N_11  and  C_12 
REMARK    5  A    between atoms: C_12  and  S_13 
REMARK    6  A    between atoms: N_15  and  C_17 
REMARK    7  A    between atoms: C_17  and  C_18 
ROOT
HETATM    1  C   UNL     1      42.505 -17.517   2.097  1.00  0.00     0.064 A 
HETATM    2  N   UNL     1      42.878 -16.947   0.904  1.00  0.00    -0.276 N 
HETATM    3  H   UNL     1      43.756 -17.067   0.409  1.00  0.00     0.189 HD
HETATM    4  N   UNL     1      41.951 -16.134   0.359  1.00  0.00    -0.156 NA
HETATM    5  C   UNL     1      40.927 -16.208   1.209  1.00  0.00     0.151 A 
HETATM    6  C   UNL     1      41.214 -17.060   2.293  1.00  0.00     0.084 A 
ENDROOT
BRANCH   5   7
HETATM    7  N   UNL     1      39.758 -15.552   1.095  1.00  0.00    -0.320 N 
HETATM    8  H   UNL     1      38.957 -15.856   1.634  1.00  0.00     0.169 HD
BRANCH   7   9
HETATM    9  C   UNL     1      39.450 -14.445   0.277  1.00  0.00     0.141 C 
HETATM   10  N   UNL     1      39.617 -14.541  -1.021  1.00  0.00    -0.365 N 
HETATM   11  H   UNL     1      39.973 -15.450  -1.334  1.00  0.00     0.162 HD
BRANCH   9  12
HETATM   12  S   UNL     1      38.861 -13.037   1.075  1.00  0.00    -0.099 SA
HETATM   13  C   UNL     1      39.546 -13.315   2.724  1.00  0.00     0.099 C 
ENDBRANCH   9  12
BRANCH  10  14
HETATM   14  C   UNL     1      39.321 -13.502  -2.001  1.00  0.00     0.186 C 
BRANCH  14  15
HETATM   15  C   UNL     1      40.572 -12.838  -2.453  1.00  0.00     0.070 A 
HETATM   16  O   UNL     1      41.041 -11.790  -1.711  1.00  0.00    -0.325 OA
HETATM   17  C   UNL     1      42.181 -11.359  -2.307  1.00  0.00     0.142 A 
HETATM   18  C   UNL     1      42.456 -12.110  -3.424  1.00  0.00     0.027 A 
HETATM   19  C   UNL     1      41.417 -13.067  -3.522  1.00  0.00     0.036 A 
ENDBRANCH  14  15
ENDBRANCH  10  14
ENDBRANCH   7   9
ENDBRANCH   5   7
BRANCH   1  20
HETATM   20  C   UNL     1      43.351 -18.394   2.913  1.00  0.00    -0.005 A 
HETATM   21  C   UNL     1      43.656 -19.690   2.468  1.00  0.00     0.050 A 
HETATM   22  C   UNL     1      44.419 -20.574   3.240  1.00  0.00     0.069 A 
HETATM   23  C   UNL     1      44.912 -20.154   4.472  1.00  0.00     0.037 A 
HETATM   24  C   UNL     1      44.628 -18.866   4.929  1.00  0.00     0.004 A 
HETATM   25  C   UNL     1      43.851 -17.994   4.159  1.00  0.00     0.014 A 
BRANCH  22  26
HETATM   26  O   UNL     1      44.611 -21.804   2.674  1.00  0.00    -0.356 OA
HETATM   27  C   UNL     1      44.064 -22.004   1.375  1.00  0.00     0.210 C 
ENDBRANCH  22  26
ENDBRANCH   1  20
TORSDOF 7
ENDMDL
MODEL 10
REMARK VINA RESULT:      -6.9      3.701      5.294
REMARK  7 active torsions:
REMARK  status: ('A' for Active; 'I' for Inactive)
REMARK    1  A    between atoms: O_2  and  C_3 
REMARK    2  A    between atoms: C_5  and  C_6 
REMARK    3  A    between atoms: C_10  and  N_11 
REMARK    4  A    between atoms: N_11  and  C_12 
REMARK    5  A    between atoms: C_12  and  S_13 
REMARK    6  A    between atoms: N_15  and  C_17 
REMARK    7  A    between atoms: C_17  and  C_18 
ROOT
HETATM    1  C   UNL     1      42.180 -17.964   2.282  1.00  0.00     0.064 A 
HETATM    2  N   UNL     1      42.339 -17.338   1.069  1.00  0.00    -0.276 N 
HETATM    3  H   UNL     1      43.114 -17.432   0.421  1.00  0.00     0.189 HD
HETATM    4  N   UNL     1      41.333 -16.505   0.735  1.00  0.00    -0.156 NA
HETATM    5  C   UNL     1      40.475 -16.622   1.748  1.00  0.00     0.151 A 
HETATM    6  C   UNL     1      40.947 -17.521   2.725  1.00  0.00     0.084 A 
ENDROOT
BRANCH   5   7
HETATM    7  N   UNL     1      39.307 -15.967   1.874  1.00  0.00    -0.320 N 
HETATM    8  H   UNL     1      38.437 -16.483   1.857  1.00  0.00     0.169 HD
BRANCH   7   9
HETATM    9  C   UNL     1      39.092 -14.580   2.020  1.00  0.00     0.141 C 
HETATM   10  N   UNL     1      39.764 -13.920   2.934  1.00  0.00    -0.365 N 
HETATM   11  H   UNL     1      40.409 -14.499   3.482  1.00  0.00     0.162 HD
BRANCH   9  12
HETATM   12  S   UNL     1      37.947 -13.861   0.954  1.00  0.00    -0.099 SA
HETATM   13  C   UNL     1      38.932 -13.810  -0.560  1.00  0.00     0.099 C 
ENDBRANCH   9  12
BRANCH  10  14
HETATM   14  C   UNL     1      39.679 -12.487   3.191  1.00  0.00     0.186 C 
BRANCH  14  15
HETATM   15  C   UNL     1      39.873 -12.203   4.638  1.00  0.00     0.070 A 
HETATM   16  O   UNL     1      41.048 -11.620   5.021  1.00  0.00    -0.325 OA
HETATM   17  C   UNL     1      40.990 -11.455   6.366  1.00  0.00     0.142 A 
HETATM   18  C   UNL     1      39.796 -11.924   6.859  1.00  0.00     0.027 A 
HETATM   19  C   UNL     1      39.071 -12.409   5.744  1.00  0.00     0.036 A 
ENDBRANCH  14  15
ENDBRANCH  10  14
ENDBRANCH   7   9
ENDBRANCH   5   7
BRANCH   1  20
HETATM   20  C   UNL     1      43.154 -18.874   2.894  1.00  0.00    -0.005 A 
HETATM   21  C   UNL     1      43.493 -18.733   4.249  1.00  0.00     0.050 A 
HETATM   22  C   UNL     1      44.452 -19.551   4.858  1.00  0.00     0.069 A 
HETATM   23  C   UNL     1      45.072 -20.548   4.111  1.00  0.00     0.037 A 
HETATM   24  C   UNL     1      44.744 -20.711   2.764  1.00  0.00     0.004 A 
HETATM   25  C   UNL     1      43.796 -19.879   2.159  1.00  0.00     0.014 A 
BRANCH  22  26
HETATM   26  O   UNL     1      44.681 -19.273   6.178  1.00  0.00    -0.356 OA
HETATM   27  C   UNL     1      45.162 -17.970   6.485  1.00  0.00     0.210 C 
ENDBRANCH  22  26
ENDBRANCH   1  20
TORSDOF 7
ENDMDL
