MODEL 1
REMARK VINA RESULT:      -9.0      0.000      0.000
REMARK  5 active torsions:
REMARK  status: ('A' for Active; 'I' for Inactive)
REMARK    1  A    between atoms: C_7  and  C_8 
REMARK    2  A    between atoms: C_8  and  O_9 
REMARK    3  A    between atoms: N_12  and  C_13 
REMARK    4  A    between atoms: C_13  and  C_14 
REMARK    5  A    between atoms: C_14  and  C_15 
ROOT
HETATM    1  C   UNL     1      42.141 -13.759   2.346  1.00  0.00     0.199 A 
HETATM    2  C   UNL     1      43.012 -14.898   2.980  1.00  0.00     0.269 A 
HETATM    3  O   UNL     1      43.955 -15.484   2.466  1.00  0.00    -0.269 OA
HETATM    4  N   UNL     1      42.516 -15.128   4.278  1.00  0.00    -0.314 N 
HETATM    5  C   UNL     1      41.401 -14.320   4.542  1.00  0.00     0.047 A 
HETATM    6  C   UNL     1      41.129 -13.501   3.437  1.00  0.00     0.017 A 
HETATM    7  C   UNL     1      40.618 -14.266   5.681  1.00  0.00     0.030 A 
HETATM    8  C   UNL     1      39.551 -13.361   5.708  1.00  0.00     0.002 A 
HETATM    9  C   UNL     1      39.287 -12.526   4.611  1.00  0.00     0.001 A 
HETATM   10  C   UNL     1      40.083 -12.586   3.467  1.00  0.00     0.013 A 
ENDROOT
BRANCH   1  11
HETATM   11  C   UNL     1      41.446 -14.277   1.100  1.00  0.00     0.025 A 
HETATM   12  C   UNL     1      40.608 -15.385   0.931  1.00  0.00     0.016 A 
HETATM   13  C   UNL     1      40.090 -16.408   1.881  1.00  0.00     0.069 C 
HETATM   14  N   UNL     1      40.279 -15.471  -0.399  1.00  0.00    -0.359 N 
HETATM   15  H   UNL     1      39.685 -16.180  -0.803  1.00  0.00     0.166 HD
HETATM   16  C   UNL     1      40.936 -14.519  -1.131  1.00  0.00     0.043 A 
HETATM   17  C   UNL     1      41.670 -13.750  -0.231  1.00  0.00     0.003 A 
HETATM   18  C   UNL     1      40.948 -14.300  -2.515  1.00  0.00     0.030 A 
HETATM   19  C   UNL     1      42.463 -12.704  -0.757  1.00  0.00     0.014 A 
HETATM   20  C   UNL     1      42.490 -12.469  -2.137  1.00  0.00     0.001 A 
HETATM   21  C   UNL     1      41.742 -13.260  -3.002  1.00  0.00     0.002 A 
ENDBRANCH   1  11
BRANCH   1  22
HETATM   22  O   UNL     1      42.870 -12.554   2.138  1.00  0.00    -0.371 OA
HETATM   23  H   UNL     1      43.718 -12.802   1.738  1.00  0.00     0.212 HD
ENDBRANCH   1  22
BRANCH   4  24
HETATM   24  C   UNL     1      42.958 -16.244   5.086  1.00  0.00     0.137 C 
BRANCH  24  25
HETATM   25  C   UNL     1      42.178 -17.539   4.824  1.00  0.00     0.058 C 
BRANCH  25  26
HETATM   26  C   UNL     1      43.031 -18.545   4.090  1.00  0.00    -0.057 A 
HETATM   27  C   UNL     1      42.845 -18.750   2.714  1.00  0.00     0.007 A 
HETATM   28  C   UNL     1      43.599 -19.706   2.033  1.00  0.00     0.001 A 
HETATM   29  C   UNL     1      44.550 -20.460   2.717  1.00  0.00     0.000 A 
HETATM   30  C   UNL     1      44.748 -20.256   4.083  1.00  0.00     0.001 A 
HETATM   31  C   UNL     1      43.992 -19.304   4.768  1.00  0.00     0.007 A 
ENDBRANCH  25  26
ENDBRANCH  24  25
ENDBRANCH   4  24
TORSDOF 5
ENDMDL
MODEL 2
REMARK VINA RESULT:      -8.9      3.054      5.171
REMARK  5 active torsions:
REMARK  status: ('A' for Active; 'I' for Inactive)
REMARK    1  A    between atoms: C_7  and  C_8 
REMARK    2  A    between atoms: C_8  and  O_9 
REMARK    3  A    between atoms: N_12  and  C_13 
REMARK    4  A    between atoms: C_13  and  C_14 
REMARK    5  A    between atoms: C_14  and  C_15 
ROOT
HETATM    1  C   UNL     1      41.240 -15.523   5.106  1.00  0.00     0.199 A 
HETATM    2  C   UNL     1      42.522 -16.177   5.726  1.00  0.00     0.269 A 
HETATM    3  O   UNL     1      43.033 -15.925   6.809  1.00  0.00    -0.269 OA
HETATM    4  N   UNL     1      42.989 -17.133   4.804  1.00  0.00    -0.314 N 
HETATM    5  C   UNL     1      42.202 -17.142   3.644  1.00  0.00     0.047 A 
HETATM    6  C   UNL     1      41.164 -16.208   3.761  1.00  0.00     0.017 A 
HETATM    7  C   UNL     1      42.346 -17.910   2.502  1.00  0.00     0.030 A 
HETATM    8  C   UNL     1      41.418 -17.740   1.470  1.00  0.00     0.002 A 
HETATM    9  C   UNL     1      40.366 -16.819   1.591  1.00  0.00     0.001 A 
HETATM   10  C   UNL     1      40.228 -16.049   2.747  1.00  0.00     0.013 A 
ENDROOT
BRANCH   1  11
HETATM   11  C   UNL     1      41.461 -14.032   4.921  1.00  0.00     0.025 A 
HETATM   12  C   UNL     1      42.413 -13.351   4.155  1.00  0.00     0.016 A 
HETATM   13  C   UNL     1      43.501 -13.821   3.253  1.00  0.00     0.069 C 
HETATM   14  N   UNL     1      42.243 -12.005   4.364  1.00  0.00    -0.359 N 
HETATM   15  H   UNL     1      42.799 -11.279   3.935  1.00  0.00     0.166 HD
HETATM   16  C   UNL     1      41.277 -11.771   5.305  1.00  0.00     0.043 A 
HETATM   17  C   UNL     1      40.760 -13.011   5.673  1.00  0.00     0.003 A 
HETATM   18  C   UNL     1      40.844 -10.562   5.865  1.00  0.00     0.030 A 
HETATM   19  C   UNL     1      39.752 -13.032   6.664  1.00  0.00     0.014 A 
HETATM   20  C   UNL     1      39.306 -11.836   7.238  1.00  0.00     0.001 A 
HETATM   21  C   UNL     1      39.847 -10.618   6.842  1.00  0.00     0.002 A 
ENDBRANCH   1  11
BRANCH   1  22
HETATM   22  O   UNL     1      40.052 -15.844   5.822  1.00  0.00    -0.371 OA
HETATM   23  H   UNL     1      40.092 -15.364   6.664  1.00  0.00     0.212 HD
ENDBRANCH   1  22
BRANCH   4  24
HETATM   24  C   UNL     1      44.266 -17.797   4.961  1.00  0.00     0.137 C 
BRANCH  24  25
HETATM   25  C   UNL     1      44.193 -19.080   5.798  1.00  0.00     0.058 C 
BRANCH  25  26
HETATM   26  C   UNL     1      44.402 -20.302   4.935  1.00  0.00    -0.057 A 
HETATM   27  C   UNL     1      44.401 -20.181   3.538  1.00  0.00     0.007 A 
HETATM   28  C   UNL     1      44.552 -21.307   2.729  1.00  0.00     0.001 A 
HETATM   29  C   UNL     1      44.714 -22.563   3.309  1.00  0.00     0.000 A 
HETATM   30  C   UNL     1      44.726 -22.692   4.698  1.00  0.00     0.001 A 
HETATM   31  C   UNL     1      44.570 -21.567   5.509  1.00  0.00     0.007 A 
ENDBRANCH  25  26
ENDBRANCH  24  25
ENDBRANCH   4  24
TORSDOF 5
ENDMDL
MODEL 3
REMARK VINA RESULT:      -8.7      1.988      3.378
REMARK  5 active torsions:
REMARK  status: ('A' for Active; 'I' for Inactive)
REMARK    1  A    between atoms: C_7  and  C_8 
REMARK    2  A    between atoms: C_8  and  O_9 
REMARK    3  A    between atoms: N_12  and  C_13 
REMARK    4  A    between atoms: C_13  and  C_14 
REMARK    5  A    between atoms: C_14  and  C_15 
ROOT
HETATM    1  C   UNL     1      42.742 -15.591   3.549  1.00  0.00     0.199 A 
HETATM    2  C   UNL     1      42.681 -17.136   3.805  1.00  0.00     0.269 A 
HETATM    3  O   UNL     1      42.232 -17.994   3.057  1.00  0.00    -0.269 OA
HETATM    4  N   UNL     1      43.254 -17.372   5.069  1.00  0.00    -0.314 N 
HETATM    5  C   UNL     1      43.628 -16.169   5.686  1.00  0.00     0.047 A 
HETATM    6  C   UNL     1      43.342 -15.088   4.841  1.00  0.00     0.017 A 
HETATM    7  C   UNL     1      44.194 -15.972   6.932  1.00  0.00     0.030 A 
HETATM    8  C   UNL     1      44.487 -14.661   7.325  1.00  0.00     0.002 A 
HETATM    9  C   UNL     1      44.219 -13.577   6.475  1.00  0.00     0.001 A 
HETATM   10  C   UNL     1      43.649 -13.786   5.218  1.00  0.00     0.013 A 
ENDROOT
BRANCH   1  11
HETATM   11  C   UNL     1      41.337 -15.042   3.376  1.00  0.00     0.025 A 
HETATM   12  C   UNL     1      40.323 -14.849   4.321  1.00  0.00     0.016 A 
HETATM   13  C   UNL     1      40.262 -15.078   5.791  1.00  0.00     0.069 C 
HETATM   14  N   UNL     1      39.212 -14.383   3.663  1.00  0.00    -0.359 N 
HETATM   15  H   UNL     1      38.331 -14.161   4.103  1.00  0.00     0.166 HD
HETATM   16  C   UNL     1      39.420 -14.346   2.311  1.00  0.00     0.043 A 
HETATM   17  C   UNL     1      40.737 -14.743   2.092  1.00  0.00     0.003 A 
HETATM   18  C   UNL     1      38.538 -14.010   1.275  1.00  0.00     0.030 A 
HETATM   19  C   UNL     1      41.187 -14.809   0.753  1.00  0.00     0.014 A 
HETATM   20  C   UNL     1      40.321 -14.480  -0.296  1.00  0.00     0.001 A 
HETATM   21  C   UNL     1      39.013 -14.086  -0.035  1.00  0.00     0.002 A 
ENDBRANCH   1  11
BRANCH   1  22
HETATM   22  O   UNL     1      43.631 -15.238   2.494  1.00  0.00    -0.371 OA
HETATM   23  H   UNL     1      44.384 -14.783   2.900  1.00  0.00     0.212 HD
ENDBRANCH   1  22
BRANCH   4  24
HETATM   24  C   UNL     1      43.193 -18.666   5.715  1.00  0.00     0.137 C 
BRANCH  24  25
HETATM   25  C   UNL     1      44.551 -19.374   5.801  1.00  0.00     0.058 C 
BRANCH  25  26
HETATM   26  C   UNL     1      44.622 -20.526   4.828  1.00  0.00    -0.057 A 
HETATM   27  C   UNL     1      44.603 -20.279   3.447  1.00  0.00     0.007 A 
HETATM   28  C   UNL     1      44.627 -21.337   2.537  1.00  0.00     0.001 A 
HETATM   29  C   UNL     1      44.678 -22.650   2.999  1.00  0.00     0.000 A 
HETATM   30  C   UNL     1      44.708 -22.905   4.370  1.00  0.00     0.001 A 
HETATM   31  C   UNL     1      44.678 -21.849   5.282  1.00  0.00     0.007 A 
ENDBRANCH  25  26
ENDBRANCH  24  25
ENDBRANCH   4  24
TORSDOF 5
ENDMDL
MODEL 4
REMARK VINA RESULT:      -8.7      2.608      4.002
REMARK  5 active torsions:
REMARK  status: ('A' for Active; 'I' for Inactive)
REMARK    1  A    between atoms: C_7  and  C_8 
REMARK    2  A    between atoms: C_8  and  O_9 
REMARK    3  A    between atoms: N_12  and  C_13 
REMARK    4  A    between atoms: C_13  and  C_14 
REMARK    5  A    between atoms: C_14  and  C_15 
ROOT
HETATM    1  C   UNL     1      42.625 -14.163   3.723  1.00  0.00     0.199 A 
HETATM    2  C   UNL     1      42.360 -15.352   2.737  1.00  0.00     0.269 A 
HETATM    3  O   UNL     1      41.825 -15.298   1.637  1.00  0.00    -0.269 OA
HETATM    4  N   UNL     1      42.862 -16.518   3.345  1.00  0.00    -0.314 N 
HETATM    5  C   UNL     1      43.370 -16.242   4.623  1.00  0.00     0.047 A 
HETATM    6  C   UNL     1      43.248 -14.873   4.902  1.00  0.00     0.017 A 
HETATM    7  C   UNL     1      43.922 -17.113   5.545  1.00  0.00     0.030 A 
HETATM    8  C   UNL     1      44.370 -16.589   6.762  1.00  0.00     0.002 A 
HETATM    9  C   UNL     1      44.267 -15.217   7.038  1.00  0.00     0.001 A 
HETATM   10  C   UNL     1      43.710 -14.345   6.101  1.00  0.00     0.013 A 
ENDROOT
BRANCH   1  11
HETATM   11  C   UNL     1      41.307 -13.530   4.132  1.00  0.00     0.025 A 
HETATM   12  C   UNL     1      40.346 -13.965   5.050  1.00  0.00     0.016 A 
HETATM   13  C   UNL     1      40.277 -15.151   5.948  1.00  0.00     0.069 C 
HETATM   14  N   UNL     1      39.299 -13.077   5.023  1.00  0.00    -0.359 N 
HETATM   15  H   UNL     1      38.465 -13.149   5.587  1.00  0.00     0.166 HD
HETATM   16  C   UNL     1      39.488 -12.122   4.060  1.00  0.00     0.043 A 
HETATM   17  C   UNL     1      40.734 -12.366   3.486  1.00  0.00     0.003 A 
HETATM   18  C   UNL     1      38.645 -11.082   3.649  1.00  0.00     0.030 A 
HETATM   19  C   UNL     1      41.149 -11.516   2.435  1.00  0.00     0.014 A 
HETATM   20  C   UNL     1      40.320 -10.472   2.007  1.00  0.00     0.001 A 
HETATM   21  C   UNL     1      39.083 -10.261   2.608  1.00  0.00     0.002 A 
ENDBRANCH   1  11
BRANCH   1  22
HETATM   22  O   UNL     1      43.581 -13.232   3.224  1.00  0.00    -0.371 OA
HETATM   23  H   UNL     1      44.422 -13.707   3.145  1.00  0.00     0.212 HD
ENDBRANCH   1  22
BRANCH   4  24
HETATM   24  C   UNL     1      42.618 -17.838   2.803  1.00  0.00     0.137 C 
BRANCH  24  25
HETATM   25  C   UNL     1      43.827 -18.434   2.070  1.00  0.00     0.058 C 
BRANCH  25  26
HETATM   26  C   UNL     1      44.117 -19.834   2.554  1.00  0.00    -0.057 A 
HETATM   27  C   UNL     1      43.889 -20.930   1.708  1.00  0.00     0.007 A 
HETATM   28  C   UNL     1      44.114 -22.231   2.158  1.00  0.00     0.001 A 
HETATM   29  C   UNL     1      44.575 -22.449   3.454  1.00  0.00     0.000 A 
HETATM   30  C   UNL     1      44.814 -21.366   4.299  1.00  0.00     0.001 A 
HETATM   31  C   UNL     1      44.585 -20.063   3.853  1.00  0.00     0.007 A 
ENDBRANCH  25  26
ENDBRANCH  24  25
ENDBRANCH   4  24
TORSDOF 5
ENDMDL
MODEL 5
REMARK VINA RESULT:      -8.5      2.598      5.907
REMARK  5 active torsions:
REMARK  status: ('A' for Active; 'I' for Inactive)
REMARK    1  A    between atoms: C_7  and  C_8 
REMARK    2  A    between atoms: C_8  and  O_9 
REMARK    3  A    between atoms: N_12  and  C_13 
REMARK    4  A    between atoms: C_13  and  C_14 
REMARK    5  A    between atoms: C_14  and  C_15 
ROOT
HETATM    1  C   UNL     1      42.487 -17.173   6.586  1.00  0.00     0.199 A 
HETATM    2  C   UNL     1      41.060 -16.703   6.140  1.00  0.00     0.269 A 
HETATM    3  O   UNL     1      40.074 -17.404   5.950  1.00  0.00    -0.269 OA
HETATM    4  N   UNL     1      41.106 -15.303   6.002  1.00  0.00    -0.314 N 
HETATM    5  C   UNL     1      42.397 -14.814   6.250  1.00  0.00     0.047 A 
HETATM    6  C   UNL     1      43.253 -15.871   6.589  1.00  0.00     0.017 A 
HETATM    7  C   UNL     1      42.858 -13.511   6.190  1.00  0.00     0.030 A 
HETATM    8  C   UNL     1      44.203 -13.272   6.492  1.00  0.00     0.002 A 
HETATM    9  C   UNL     1      45.059 -14.325   6.850  1.00  0.00     0.001 A 
HETATM   10  C   UNL     1      44.585 -15.636   6.908  1.00  0.00     0.013 A 
ENDROOT
BRANCH   1  11
HETATM   11  C   UNL     1      43.065 -18.117   5.547  1.00  0.00     0.025 A 
HETATM   12  C   UNL     1      43.609 -19.398   5.699  1.00  0.00     0.016 A 
HETATM   13  C   UNL     1      43.788 -20.281   6.884  1.00  0.00     0.069 C 
HETATM   14  N   UNL     1      44.054 -19.818   4.470  1.00  0.00    -0.359 N 
HETATM   15  H   UNL     1      44.494 -20.709   4.288  1.00  0.00     0.166 HD
HETATM   16  C   UNL     1      43.910 -18.833   3.531  1.00  0.00     0.043 A 
HETATM   17  C   UNL     1      43.290 -17.758   4.162  1.00  0.00     0.003 A 
HETATM   18  C   UNL     1      44.297 -18.813   2.184  1.00  0.00     0.030 A 
HETATM   19  C   UNL     1      43.052 -16.595   3.394  1.00  0.00     0.014 A 
HETATM   20  C   UNL     1      43.434 -16.553   2.048  1.00  0.00     0.001 A 
HETATM   21  C   UNL     1      44.050 -17.649   1.453  1.00  0.00     0.002 A 
ENDBRANCH   1  11
BRANCH   1  22
HETATM   22  O   UNL     1      42.511 -17.691   7.912  1.00  0.00    -0.371 OA
HETATM   23  H   UNL     1      42.686 -16.943   8.504  1.00  0.00     0.212 HD
ENDBRANCH   1  22
BRANCH   4  24
HETATM   24  C   UNL     1      40.017 -14.548   5.418  1.00  0.00     0.137 C 
BRANCH  24  25
HETATM   25  C   UNL     1      40.481 -13.413   4.496  1.00  0.00     0.058 C 
BRANCH  25  26
HETATM   26  C   UNL     1      40.586 -13.887   3.066  1.00  0.00    -0.057 A 
HETATM   27  C   UNL     1      41.447 -13.231   2.173  1.00  0.00     0.007 A 
HETATM   28  C   UNL     1      41.522 -13.633   0.839  1.00  0.00     0.001 A 
HETATM   29  C   UNL     1      40.745 -14.697   0.387  1.00  0.00     0.000 A 
HETATM   30  C   UNL     1      39.893 -15.360   1.271  1.00  0.00     0.001 A 
HETATM   31  C   UNL     1      39.812 -14.957   2.605  1.00  0.00     0.007 A 
ENDBRANCH  25  26
ENDBRANCH  24  25
ENDBRANCH   4  24
TORSDOF 5
ENDMDL
MODEL 6
REMARK VINA RESULT:      -8.4      1.884      5.103
REMARK  5 active torsions:
REMARK  status: ('A' for Active; 'I' for Inactive)
REMARK    1  A    between atoms: C_7  and  C_8 
REMARK    2  A    between atoms: C_8  and  O_9 
REMARK    3  A    between atoms: N_12  and  C_13 
REMARK    4  A    between atoms: C_13  and  C_14 
REMARK    5  A    between atoms: C_14  and  C_15 
ROOT
HETATM    1  C   UNL     1      40.485 -15.202   2.904  1.00  0.00     0.199 A 
HETATM    2  C   UNL     1      41.027 -16.667   3.031  1.00  0.00     0.269 A 
HETATM    3  O   UNL     1      41.118 -17.338   4.051  1.00  0.00    -0.269 OA
HETATM    4  N   UNL     1      41.391 -17.090   1.739  1.00  0.00    -0.314 N 
HETATM    5  C   UNL     1      41.204 -16.065   0.801  1.00  0.00     0.047 A 
HETATM    6  C   UNL     1      40.681 -14.927   1.431  1.00  0.00     0.017 A 
HETATM    7  C   UNL     1      41.467 -16.072  -0.557  1.00  0.00     0.030 A 
HETATM    8  C   UNL     1      41.184 -14.915  -1.291  1.00  0.00     0.002 A 
HETATM    9  C   UNL     1      40.644 -13.780  -0.667  1.00  0.00     0.001 A 
HETATM   10  C   UNL     1      40.380 -13.783   0.704  1.00  0.00     0.013 A 
ENDROOT
BRANCH   1  11
HETATM   11  C   UNL     1      41.345 -14.262   3.730  1.00  0.00     0.025 A 
HETATM   12  C   UNL     1      42.736 -14.116   3.771  1.00  0.00     0.016 A 
HETATM   13  C   UNL     1      43.840 -14.785   3.029  1.00  0.00     0.069 C 
HETATM   14  N   UNL     1      43.037 -13.173   4.723  1.00  0.00    -0.359 N 
HETATM   15  H   UNL     1      43.970 -12.872   4.964  1.00  0.00     0.166 HD
HETATM   16  C   UNL     1      41.908 -12.756   5.376  1.00  0.00     0.043 A 
HETATM   17  C   UNL     1      40.830 -13.407   4.780  1.00  0.00     0.003 A 
HETATM   18  C   UNL     1      41.769 -11.871   6.454  1.00  0.00     0.030 A 
HETATM   19  C   UNL     1      39.541 -13.155   5.305  1.00  0.00     0.014 A 
HETATM   20  C   UNL     1      39.381 -12.276   6.382  1.00  0.00     0.001 A 
HETATM   21  C   UNL     1      40.484 -11.644   6.948  1.00  0.00     0.002 A 
ENDBRANCH   1  11
BRANCH   1  22
HETATM   22  O   UNL     1      39.092 -15.100   3.181  1.00  0.00    -0.371 OA
HETATM   23  H   UNL     1      38.804 -14.231   2.862  1.00  0.00     0.212 HD
ENDBRANCH   1  22
BRANCH   4  24
HETATM   24  C   UNL     1      42.110 -18.325   1.505  1.00  0.00     0.137 C 
BRANCH  24  25
HETATM   25  C   UNL     1      43.558 -18.298   2.011  1.00  0.00     0.058 C 
BRANCH  25  26
HETATM   26  C   UNL     1      43.936 -19.618   2.639  1.00  0.00    -0.057 A 
HETATM   27  C   UNL     1      44.419 -19.655   3.955  1.00  0.00     0.007 A 
HETATM   28  C   UNL     1      44.810 -20.863   4.533  1.00  0.00     0.001 A 
HETATM   29  C   UNL     1      44.716 -22.046   3.803  1.00  0.00     0.000 A 
HETATM   30  C   UNL     1      44.228 -22.020   2.497  1.00  0.00     0.001 A 
HETATM   31  C   UNL     1      43.841 -20.812   1.915  1.00  0.00     0.007 A 
ENDBRANCH  25  26
ENDBRANCH  24  25
ENDBRANCH   4  24
TORSDOF 5
ENDMDL
MODEL 7
REMARK VINA RESULT:      -8.4      1.968      6.595
REMARK  5 active torsions:
REMARK  status: ('A' for Active; 'I' for Inactive)
REMARK    1  A    between atoms: C_7  and  C_8 
REMARK    2  A    between atoms: C_8  and  O_9 
REMARK    3  A    between atoms: N_12  and  C_13 
REMARK    4  A    between atoms: C_13  and  C_14 
REMARK    5  A    between atoms: C_14  and  C_15 
ROOT
HETATM    1  C   UNL     1      41.697 -17.031   4.040  1.00  0.00     0.199 A 
HETATM    2  C   UNL     1      40.942 -16.483   2.781  1.00  0.00     0.269 A 
HETATM    3  O   UNL     1      40.339 -17.132   1.937  1.00  0.00    -0.269 OA
HETATM    4  N   UNL     1      41.070 -15.081   2.796  1.00  0.00    -0.314 N 
HETATM    5  C   UNL     1      41.859 -14.657   3.875  1.00  0.00     0.047 A 
HETATM    6  C   UNL     1      42.263 -15.763   4.636  1.00  0.00     0.017 A 
HETATM    7  C   UNL     1      42.241 -13.374   4.220  1.00  0.00     0.030 A 
HETATM    8  C   UNL     1      43.034 -13.204   5.361  1.00  0.00     0.002 A 
HETATM    9  C   UNL     1      43.426 -14.307   6.136  1.00  0.00     0.001 A 
HETATM   10  C   UNL     1      43.034 -15.598   5.780  1.00  0.00     0.013 A 
ENDROOT
BRANCH   1  11
HETATM   11  C   UNL     1      42.823 -17.951   3.604  1.00  0.00     0.025 A 
HETATM   12  C   UNL     1      43.439 -18.092   2.356  1.00  0.00     0.016 A 
HETATM   13  C   UNL     1      43.241 -17.398   1.053  1.00  0.00     0.069 C 
HETATM   14  N   UNL     1      44.365 -19.101   2.450  1.00  0.00    -0.359 N 
HETATM   15  H   UNL     1      44.955 -19.417   1.693  1.00  0.00     0.166 HD
HETATM   16  C   UNL     1      44.323 -19.694   3.683  1.00  0.00     0.043 A 
HETATM   17  C   UNL     1      43.378 -19.000   4.435  1.00  0.00     0.003 A 
HETATM   18  C   UNL     1      45.035 -20.796   4.174  1.00  0.00     0.030 A 
HETATM   19  C   UNL     1      43.135 -19.447   5.754  1.00  0.00     0.014 A 
HETATM   20  C   UNL     1      43.834 -20.548   6.263  1.00  0.00     0.001 A 
HETATM   21  C   UNL     1      44.771 -21.213   5.480  1.00  0.00     0.002 A 
ENDBRANCH   1  11
BRANCH   1  22
HETATM   22  O   UNL     1      40.823 -17.608   5.004  1.00  0.00    -0.371 OA
HETATM   23  H   UNL     1      40.478 -18.428   4.617  1.00  0.00     0.212 HD
ENDBRANCH   1  22
BRANCH   4  24
HETATM   24  C   UNL     1      40.658 -14.256   1.679  1.00  0.00     0.137 C 
BRANCH  24  25
HETATM   25  C   UNL     1      41.828 -13.739   0.833  1.00  0.00     0.058 C 
BRANCH  25  26
HETATM   26  C   UNL     1      41.624 -14.063  -0.627  1.00  0.00    -0.057 A 
HETATM   27  C   UNL     1      41.031 -15.279  -0.999  1.00  0.00     0.007 A 
HETATM   28  C   UNL     1      40.874 -15.608  -2.345  1.00  0.00     0.001 A 
HETATM   29  C   UNL     1      41.302 -14.723  -3.332  1.00  0.00     0.000 A 
HETATM   30  C   UNL     1      41.884 -13.508  -2.973  1.00  0.00     0.001 A 
HETATM   31  C   UNL     1      42.047 -13.178  -1.626  1.00  0.00     0.007 A 
ENDBRANCH  25  26
ENDBRANCH  24  25
ENDBRANCH   4  24
TORSDOF 5
ENDMDL
MODEL 8
REMARK VINA RESULT:      -8.2      2.075      4.365
REMARK  5 active torsions:
REMARK  status: ('A' for Active; 'I' for Inactive)
REMARK    1  A    between atoms: C_7  and  C_8 
REMARK    2  A    between atoms: C_8  and  O_9 
REMARK    3  A    between atoms: N_12  and  C_13 
REMARK    4  A    between atoms: C_13  and  C_14 
REMARK    5  A    between atoms: C_14  and  C_15 
ROOT
HETATM    1  C   UNL     1      41.106 -16.165   0.895  1.00  0.00     0.199 A 
HETATM    2  C   UNL     1      40.204 -15.889   2.147  1.00  0.00     0.269 A 
HETATM    3  O   UNL     1      39.134 -15.294   2.174  1.00  0.00    -0.269 OA
HETATM    4  N   UNL     1      40.848 -16.465   3.259  1.00  0.00    -0.314 N 
HETATM    5  C   UNL     1      42.077 -17.031   2.894  1.00  0.00     0.047 A 
HETATM    6  C   UNL     1      42.286 -16.875   1.516  1.00  0.00     0.017 A 
HETATM    7  C   UNL     1      43.014 -17.662   3.692  1.00  0.00     0.030 A 
HETATM    8  C   UNL     1      44.174 -18.156   3.084  1.00  0.00     0.002 A 
HETATM    9  C   UNL     1      44.378 -18.019   1.703  1.00  0.00     0.001 A 
HETATM   10  C   UNL     1      43.427 -17.382   0.905  1.00  0.00     0.013 A 
ENDROOT
BRANCH   1  11
HETATM   11  C   UNL     1      41.552 -14.849   0.282  1.00  0.00     0.025 A 
HETATM   12  C   UNL     1      42.054 -13.695   0.894  1.00  0.00     0.016 A 
HETATM   13  C   UNL     1      42.349 -13.356   2.314  1.00  0.00     0.069 C 
HETATM   14  N   UNL     1      42.255 -12.750  -0.082  1.00  0.00    -0.359 N 
HETATM   15  H   UNL     1      42.612 -11.819   0.080  1.00  0.00     0.166 HD
HETATM   16  C   UNL     1      41.822 -13.200  -1.299  1.00  0.00     0.043 A 
HETATM   17  C   UNL     1      41.382 -14.509  -1.116  1.00  0.00     0.003 A 
HETATM   18  C   UNL     1      41.772 -12.540  -2.534  1.00  0.00     0.030 A 
HETATM   19  C   UNL     1      40.858 -15.188  -2.240  1.00  0.00     0.014 A 
HETATM   20  C   UNL     1      40.797 -14.546  -3.482  1.00  0.00     0.001 A 
HETATM   21  C   UNL     1      41.249 -13.238  -3.625  1.00  0.00     0.002 A 
ENDBRANCH   1  11
BRANCH   1  22
HETATM   22  O   UNL     1      40.504 -17.058  -0.036  1.00  0.00    -0.371 OA
HETATM   23  H   UNL     1      40.979 -17.901   0.034  1.00  0.00     0.212 HD
ENDBRANCH   1  22
BRANCH   4  24
HETATM   24  C   UNL     1      40.394 -16.239   4.615  1.00  0.00     0.137 C 
BRANCH  24  25
HETATM   25  C   UNL     1      40.800 -14.871   5.179  1.00  0.00     0.058 C 
BRANCH  25  26
HETATM   26  C   UNL     1      42.139 -14.948   5.873  1.00  0.00    -0.057 A 
HETATM   27  C   UNL     1      43.068 -13.908   5.721  1.00  0.00     0.007 A 
HETATM   28  C   UNL     1      44.324 -13.986   6.324  1.00  0.00     0.001 A 
HETATM   29  C   UNL     1      44.660 -15.099   7.090  1.00  0.00     0.000 A 
HETATM   30  C   UNL     1      43.739 -16.134   7.255  1.00  0.00     0.001 A 
HETATM   31  C   UNL     1      42.484 -16.061   6.648  1.00  0.00     0.007 A 
ENDBRANCH  25  26
ENDBRANCH  24  25
ENDBRANCH   4  24
TORSDOF 5
ENDMDL
MODEL 9
REMARK VINA RESULT:      -8.2      2.781      7.158
REMARK  5 active torsions:
REMARK  status: ('A' for Active; 'I' for Inactive)
REMARK    1  A    between atoms: C_7  and  C_8 
REMARK    2  A    between atoms: C_8  and  O_9 
REMARK    3  A    between atoms: N_12  and  C_13 
REMARK    4  A    between atoms: C_13  and  C_14 
REMARK    5  A    between atoms: C_14  and  C_15 
ROOT
HETATM    1  C   UNL     1      42.414 -17.286   4.784  1.00  0.00     0.199 A 
HETATM    2  C   UNL     1      41.580 -16.530   3.694  1.00  0.00     0.269 A 
HETATM    3  O   UNL     1      40.796 -17.016   2.889  1.00  0.00    -0.269 OA
HETATM    4  N   UNL     1      41.889 -15.161   3.809  1.00  0.00    -0.314 N 
HETATM    5  C   UNL     1      42.857 -14.943   4.800  1.00  0.00     0.047 A 
HETATM    6  C   UNL     1      43.210 -16.160   5.400  1.00  0.00     0.017 A 
HETATM    7  C   UNL     1      43.442 -13.754   5.196  1.00  0.00     0.030 A 
HETATM    8  C   UNL     1      44.389 -13.795   6.226  1.00  0.00     0.002 A 
HETATM    9  C   UNL     1      44.732 -15.008   6.842  1.00  0.00     0.001 A 
HETATM   10  C   UNL     1      44.135 -16.203   6.436  1.00  0.00     0.013 A 
ENDROOT
BRANCH   1  11
HETATM   11  C   UNL     1      43.347 -18.282   4.118  1.00  0.00     0.025 A 
HETATM   12  C   UNL     1      43.845 -18.315   2.811  1.00  0.00     0.016 A 
HETATM   13  C   UNL     1      43.669 -17.406   1.645  1.00  0.00     0.069 C 
HETATM   14  N   UNL     1      44.604 -19.451   2.673  1.00  0.00    -0.359 N 
HETATM   15  H   UNL     1      45.082 -19.728   1.829  1.00  0.00     0.166 HD
HETATM   16  C   UNL     1      44.555 -20.216   3.808  1.00  0.00     0.043 A 
HETATM   17  C   UNL     1      43.786 -19.517   4.736  1.00  0.00     0.003 A 
HETATM   18  C   UNL     1      45.116 -21.473   4.068  1.00  0.00     0.030 A 
HETATM   19  C   UNL     1      43.567 -20.123   5.994  1.00  0.00     0.014 A 
HETATM   20  C   UNL     1      44.118 -21.380   6.274  1.00  0.00     0.001 A 
HETATM   21  C   UNL     1      44.881 -22.044   5.320  1.00  0.00     0.002 A 
ENDBRANCH   1  11
BRANCH   1  22
HETATM   22  O   UNL     1      41.603 -17.853   5.808  1.00  0.00    -0.371 OA
HETATM   23  H   UNL     1      41.135 -18.605   5.413  1.00  0.00     0.212 HD
ENDBRANCH   1  22
BRANCH   4  24
HETATM   24  C   UNL     1      41.447 -14.185   2.835  1.00  0.00     0.137 C 
BRANCH  24  25
HETATM   25  C   UNL     1      40.050 -13.619   3.123  1.00  0.00     0.058 C 
BRANCH  25  26
HETATM   26  C   UNL     1      40.058 -12.764   4.367  1.00  0.00    -0.057 A 
HETATM   27  C   UNL     1      40.677 -11.504   4.347  1.00  0.00     0.007 A 
HETATM   28  C   UNL     1      40.727 -10.722   5.500  1.00  0.00     0.001 A 
HETATM   29  C   UNL     1      40.155 -11.186   6.682  1.00  0.00     0.000 A 
HETATM   30  C   UNL     1      39.529 -12.433   6.709  1.00  0.00     0.001 A 
HETATM   31  C   UNL     1      39.482 -13.220   5.558  1.00  0.00     0.007 A 
ENDBRANCH  25  26
ENDBRANCH  24  25
ENDBRANCH   4  24
TORSDOF 5
ENDMDL
MODEL 10
REMARK VINA RESULT:      -8.0      1.457      6.184
REMARK  5 active torsions:
REMARK  status: ('A' for Active; 'I' for Inactive)
REMARK    1  A    between atoms: C_7  and  C_8 
REMARK    2  A    between atoms: C_8  and  O_9 
REMARK    3  A    between atoms: N_12  and  C_13 
REMARK    4  A    between atoms: C_13  and  C_14 
REMARK    5  A    between atoms: C_14  and  C_15 
ROOT
HETATM    1  C   UNL     1      41.462 -16.403   3.214  1.00  0.00     0.199 A 
HETATM    2  C   UNL     1      42.044 -15.508   2.068  1.00  0.00     0.269 A 
HETATM    3  O   UNL     1      42.600 -15.882   1.043  1.00  0.00    -0.269 OA
HETATM    4  N   UNL     1      41.804 -14.167   2.423  1.00  0.00    -0.314 N 
HETATM    5  C   UNL     1      41.188 -14.081   3.680  1.00  0.00     0.047 A 
HETATM    6  C   UNL     1      40.971 -15.366   4.197  1.00  0.00     0.017 A 
HETATM    7  C   UNL     1      40.816 -12.953   4.390  1.00  0.00     0.030 A 
HETATM    8  C   UNL     1      40.203 -13.128   5.635  1.00  0.00     0.002 A 
HETATM    9  C   UNL     1      39.967 -14.413   6.148  1.00  0.00     0.001 A 
HETATM   10  C   UNL     1      40.345 -15.545   5.424  1.00  0.00     0.013 A 
ENDROOT
BRANCH   1  11
HETATM   11  C   UNL     1      42.573 -17.229   3.837  1.00  0.00     0.025 A 
HETATM   12  C   UNL     1      43.425 -16.930   4.906  1.00  0.00     0.016 A 
HETATM   13  C   UNL     1      43.534 -15.749   5.807  1.00  0.00     0.069 C 
HETATM   14  N   UNL     1      44.305 -17.974   5.053  1.00  0.00    -0.359 N 
HETATM   15  H   UNL     1      45.034 -18.022   5.750  1.00  0.00     0.166 HD
HETATM   16  C   UNL     1      44.127 -18.909   4.069  1.00  0.00     0.043 A 
HETATM   17  C   UNL     1      43.051 -18.483   3.294  1.00  0.00     0.003 A 
HETATM   18  C   UNL     1      44.849 -20.080   3.803  1.00  0.00     0.030 A 
HETATM   19  C   UNL     1      42.686 -19.282   2.185  1.00  0.00     0.014 A 
HETATM   20  C   UNL     1      43.396 -20.454   1.900  1.00  0.00     0.001 A 
HETATM   21  C   UNL     1      44.464 -20.845   2.700  1.00  0.00     0.002 A 
ENDBRANCH   1  11
BRANCH   1  22
HETATM   22  O   UNL     1      40.337 -17.172   2.800  1.00  0.00    -0.371 OA
HETATM   23  H   UNL     1      40.159 -16.937   1.876  1.00  0.00     0.212 HD
ENDBRANCH   1  22
BRANCH   4  24
HETATM   24  C   UNL     1      42.376 -13.058   1.689  1.00  0.00     0.137 C 
BRANCH  24  25
HETATM   25  C   UNL     1      41.379 -12.360   0.755  1.00  0.00     0.058 C 
BRANCH  25  26
HETATM   26  C   UNL     1      41.461 -12.925  -0.643  1.00  0.00    -0.057 A 
HETATM   27  C   UNL     1      40.567 -13.928  -1.046  1.00  0.00     0.007 A 
HETATM   28  C   UNL     1      40.658 -14.487  -2.321  1.00  0.00     0.001 A 
HETATM   29  C   UNL     1      41.637 -14.044  -3.207  1.00  0.00     0.000 A 
HETATM   30  C   UNL     1      42.524 -13.040  -2.818  1.00  0.00     0.001 A 
HETATM   31  C   UNL     1      42.439 -12.483  -1.542  1.00  0.00     0.007 A 
ENDBRANCH  25  26
ENDBRANCH  24  25
ENDBRANCH   4  24
TORSDOF 5
ENDMDL
