MODEL 1
REMARK VINA RESULT:      -8.3      0.000      0.000
REMARK  6 active torsions:
REMARK  status: ('A' for Active; 'I' for Inactive)
REMARK    1  A    between atoms: C_8  and  N_9 
REMARK       I    between atoms: N_9  and  C_10 
REMARK       I    between atoms: C_10  and  N_11 
REMARK    2  A    between atoms: N_11  and  C_12 
REMARK    3  A    between atoms: C_15  and  O_16 
REMARK    4  A    between atoms: O_16  and  C_17 
REMARK    5  A    between atoms: C_17  and  C_18 
REMARK    6  A    between atoms: C_18  and  C_19 
ROOT
HETATM    1  C   UNL     1      41.548 -15.895   3.136  1.00  0.00     0.054 A 
HETATM    2  C   UNL     1      41.057 -17.073   3.690  1.00  0.00     0.149 A 
HETATM    3  N   UNL     1      41.610 -17.700   4.757  1.00  0.00    -0.235 NA
HETATM    4  C   UNL     1      42.700 -17.128   5.304  1.00  0.00     0.164 A 
HETATM    5  C   UNL     1      43.242 -15.935   4.858  1.00  0.00     0.060 A 
HETATM    6  C   UNL     1      42.660 -15.317   3.751  1.00  0.00     0.035 A 
ENDROOT
BRANCH   1   7
HETATM    7  N   UNL     1      41.043 -15.293   1.965  1.00  0.00    -0.307 N 
HETATM    8  C   UNL     1      41.602 -15.371   0.699  1.00  0.00     0.325 C 
HETATM    9  N   UNL     1      41.070 -14.396  -0.122  1.00  0.00    -0.305 N 
HETATM   10  O   UNL     1      42.473 -16.168   0.380  1.00  0.00    -0.247 OA
HETATM   11  H   UNL     1      40.700 -13.584   0.347  1.00  0.00     0.171 HD
HETATM   12  H   UNL     1      40.131 -14.865   2.024  1.00  0.00     0.170 HD
BRANCH   9  13
HETATM   13  C   UNL     1      41.362 -14.228  -1.466  1.00  0.00     0.086 A 
HETATM   14  C   UNL     1      42.089 -13.149  -1.932  1.00  0.00     0.052 A 
HETATM   15  C   UNL     1      42.726 -12.000  -1.248  1.00  0.00     0.072 C 
HETATM   16  N   UNL     1      42.187 -13.323  -3.283  1.00  0.00    -0.280 N 
HETATM   17  H   UNL     1      42.669 -12.739  -3.958  1.00  0.00     0.189 HD
HETATM   18  N   UNL     1      41.552 -14.407  -3.736  1.00  0.00    -0.177 NA
HETATM   19  C   UNL     1      41.038 -14.976  -2.635  1.00  0.00     0.079 A 
HETATM   20  C   UNL     1      40.216 -16.203  -2.795  1.00  0.00     0.075 C 
ENDBRANCH   9  13
ENDBRANCH   1   7
BRANCH   4  21
HETATM   21  O   UNL     1      43.341 -17.754   6.356  1.00  0.00    -0.334 OA
BRANCH  21  22
HETATM   22  C   UNL     1      43.524 -19.154   6.105  1.00  0.00     0.182 C 
BRANCH  22  23
HETATM   23  C   UNL     1      44.801 -19.349   5.290  1.00  0.00     0.065 C 
BRANCH  23  24
HETATM   24  C   UNL     1      44.542 -20.191   4.066  1.00  0.00    -0.056 A 
HETATM   25  C   UNL     1      44.008 -19.610   2.907  1.00  0.00     0.007 A 
HETATM   26  C   UNL     1      43.706 -20.396   1.795  1.00  0.00     0.001 A 
HETATM   27  C   UNL     1      43.931 -21.770   1.832  1.00  0.00     0.000 A 
HETATM   28  C   UNL     1      44.461 -22.359   2.979  1.00  0.00     0.001 A 
HETATM   29  C   UNL     1      44.765 -21.574   4.092  1.00  0.00     0.007 A 
ENDBRANCH  23  24
ENDBRANCH  22  23
ENDBRANCH  21  22
ENDBRANCH   4  21
TORSDOF 6
ENDMDL
MODEL 2
REMARK VINA RESULT:      -8.1      1.757      2.543
REMARK  6 active torsions:
REMARK  status: ('A' for Active; 'I' for Inactive)
REMARK    1  A    between atoms: C_8  and  N_9 
REMARK       I    between atoms: N_9  and  C_10 
REMARK       I    between atoms: C_10  and  N_11 
REMARK    2  A    between atoms: N_11  and  C_12 
REMARK    3  A    between atoms: C_15  and  O_16 
REMARK    4  A    between atoms: O_16  and  C_17 
REMARK    5  A    between atoms: C_17  and  C_18 
REMARK    6  A    between atoms: C_18  and  C_19 
ROOT
HETATM    1  C   UNL     1      42.072 -16.296   1.022  1.00  0.00     0.054 A 
HETATM    2  C   UNL     1      43.250 -15.986   1.694  1.00  0.00     0.149 A 
HETATM    3  N   UNL     1      43.461 -16.229   3.011  1.00  0.00    -0.235 NA
HETATM    4  C   UNL     1      42.456 -16.811   3.694  1.00  0.00     0.164 A 
HETATM    5  C   UNL     1      41.262 -17.199   3.112  1.00  0.00     0.060 A 
HETATM    6  C   UNL     1      41.066 -16.927   1.757  1.00  0.00     0.035 A 
ENDROOT
BRANCH   1   7
HETATM    7  N   UNL     1      41.805 -15.954  -0.319  1.00  0.00    -0.307 N 
HETATM    8  C   UNL     1      41.335 -14.731  -0.773  1.00  0.00     0.325 C 
HETATM    9  N   UNL     1      40.852 -14.851  -2.062  1.00  0.00    -0.305 N 
HETATM   10  O   UNL     1      41.317 -13.709  -0.102  1.00  0.00    -0.247 OA
HETATM   11  H   UNL     1      40.551 -15.774  -2.332  1.00  0.00     0.171 HD
HETATM   12  H   UNL     1      42.092 -16.612  -1.029  1.00  0.00     0.170 HD
BRANCH   9  13
HETATM   13  C   UNL     1      40.365 -13.811  -2.839  1.00  0.00     0.086 A 
HETATM   14  C   UNL     1      39.049 -13.762  -3.258  1.00  0.00     0.052 A 
HETATM   15  C   UNL     1      37.890 -14.656  -3.029  1.00  0.00     0.072 C 
HETATM   16  N   UNL     1      38.932 -12.608  -3.980  1.00  0.00    -0.280 N 
HETATM   17  H   UNL     1      38.105 -12.228  -4.427  1.00  0.00     0.189 HD
HETATM   18  N   UNL     1      40.074 -11.924  -4.093  1.00  0.00    -0.177 NA
HETATM   19  C   UNL     1      40.966 -12.647  -3.399  1.00  0.00     0.079 A 
HETATM   20  C   UNL     1      42.375 -12.180  -3.362  1.00  0.00     0.075 C 
ENDBRANCH   9  13
ENDBRANCH   1   7
BRANCH   4  21
HETATM   21  O   UNL     1      42.592 -17.028   5.051  1.00  0.00    -0.334 OA
BRANCH  21  22
HETATM   22  C   UNL     1      42.790 -18.418   5.346  1.00  0.00     0.182 C 
BRANCH  22  23
HETATM   23  C   UNL     1      44.249 -18.779   5.071  1.00  0.00     0.065 C 
BRANCH  23  24
HETATM   24  C   UNL     1      44.350 -19.995   4.184  1.00  0.00    -0.056 A 
HETATM   25  C   UNL     1      44.027 -19.906   2.823  1.00  0.00     0.007 A 
HETATM   26  C   UNL     1      44.056 -21.041   2.013  1.00  0.00     0.001 A 
HETATM   27  C   UNL     1      44.405 -22.276   2.556  1.00  0.00     0.000 A 
HETATM   28  C   UNL     1      44.727 -22.376   3.909  1.00  0.00     0.001 A 
HETATM   29  C   UNL     1      44.699 -21.241   4.721  1.00  0.00     0.007 A 
ENDBRANCH  23  24
ENDBRANCH  22  23
ENDBRANCH  21  22
ENDBRANCH   4  21
TORSDOF 6
ENDMDL
MODEL 3
REMARK VINA RESULT:      -7.7      1.858      2.261
REMARK  6 active torsions:
REMARK  status: ('A' for Active; 'I' for Inactive)
REMARK    1  A    between atoms: C_8  and  N_9 
REMARK       I    between atoms: N_9  and  C_10 
REMARK       I    between atoms: C_10  and  N_11 
REMARK    2  A    between atoms: N_11  and  C_12 
REMARK    3  A    between atoms: C_15  and  O_16 
REMARK    4  A    between atoms: O_16  and  C_17 
REMARK    5  A    between atoms: C_17  and  C_18 
REMARK    6  A    between atoms: C_18  and  C_19 
ROOT
HETATM    1  C   UNL     1      41.662 -15.477   4.377  1.00  0.00     0.054 A 
HETATM    2  C   UNL     1      40.973 -16.425   5.127  1.00  0.00     0.149 A 
HETATM    3  N   UNL     1      41.565 -17.295   5.982  1.00  0.00    -0.235 NA
HETATM    4  C   UNL     1      42.904 -17.217   6.104  1.00  0.00     0.164 A 
HETATM    5  C   UNL     1      43.678 -16.282   5.438  1.00  0.00     0.060 A 
HETATM    6  C   UNL     1      43.045 -15.406   4.555  1.00  0.00     0.035 A 
ENDROOT
BRANCH   1   7
HETATM    7  N   UNL     1      41.069 -14.639   3.410  1.00  0.00    -0.307 N 
HETATM    8  C   UNL     1      40.346 -15.055   2.302  1.00  0.00     0.325 C 
HETATM    9  N   UNL     1      40.222 -14.021   1.395  1.00  0.00    -0.305 N 
HETATM   10  O   UNL     1      39.921 -16.190   2.145  1.00  0.00    -0.247 OA
HETATM   11  H   UNL     1      40.934 -13.308   1.444  1.00  0.00     0.171 HD
HETATM   12  H   UNL     1      41.065 -13.648   3.598  1.00  0.00     0.170 HD
BRANCH   9  13
HETATM   13  C   UNL     1      39.510 -14.073   0.207  1.00  0.00     0.086 A 
HETATM   14  C   UNL     1      40.052 -14.592  -0.953  1.00  0.00     0.052 A 
HETATM   15  C   UNL     1      41.367 -15.200  -1.260  1.00  0.00     0.072 C 
HETATM   16  N   UNL     1      39.071 -14.491  -1.899  1.00  0.00    -0.280 N 
HETATM   17  H   UNL     1      39.099 -14.792  -2.867  1.00  0.00     0.189 HD
HETATM   18  N   UNL     1      37.950 -13.915  -1.455  1.00  0.00    -0.177 NA
HETATM   19  C   UNL     1      38.200 -13.651  -0.164  1.00  0.00     0.079 A 
HETATM   20  C   UNL     1      37.154 -12.954   0.627  1.00  0.00     0.075 C 
ENDBRANCH   9  13
ENDBRANCH   1   7
BRANCH   4  21
HETATM   21  O   UNL     1      43.566 -18.117   6.916  1.00  0.00    -0.334 OA
BRANCH  21  22
HETATM   22  C   UNL     1      43.673 -19.407   6.297  1.00  0.00     0.182 C 
BRANCH  22  23
HETATM   23  C   UNL     1      44.847 -19.392   5.320  1.00  0.00     0.065 C 
BRANCH  23  24
HETATM   24  C   UNL     1      44.524 -20.170   4.069  1.00  0.00    -0.056 A 
HETATM   25  C   UNL     1      43.874 -19.546   2.996  1.00  0.00     0.007 A 
HETATM   26  C   UNL     1      43.515 -20.278   1.864  1.00  0.00     0.001 A 
HETATM   27  C   UNL     1      43.799 -21.640   1.795  1.00  0.00     0.000 A 
HETATM   28  C   UNL     1      44.444 -22.271   2.857  1.00  0.00     0.001 A 
HETATM   29  C   UNL     1      44.805 -21.541   3.991  1.00  0.00     0.007 A 
ENDBRANCH  23  24
ENDBRANCH  22  23
ENDBRANCH  21  22
ENDBRANCH   4  21
TORSDOF 6
ENDMDL
MODEL 4
REMARK VINA RESULT:      -7.6      5.473      7.666
REMARK  6 active torsions:
REMARK  status: ('A' for Active; 'I' for Inactive)
REMARK    1  A    between atoms: C_8  and  N_9 
REMARK       I    between atoms: N_9  and  C_10 
REMARK       I    between atoms: C_10  and  N_11 
REMARK    2  A    between atoms: N_11  and  C_12 
REMARK    3  A    between atoms: C_15  and  O_16 
REMARK    4  A    between atoms: O_16  and  C_17 
REMARK    5  A    between atoms: C_17  and  C_18 
REMARK    6  A    between atoms: C_18  and  C_19 
ROOT
HETATM    1  C   UNL     1      40.107 -14.129   5.805  1.00  0.00     0.054 A 
HETATM    2  C   UNL     1      40.974 -15.160   6.154  1.00  0.00     0.149 A 
HETATM    3  N   UNL     1      41.496 -16.046   5.271  1.00  0.00    -0.235 NA
HETATM    4  C   UNL     1      41.145 -15.901   3.979  1.00  0.00     0.164 A 
HETATM    5  C   UNL     1      40.325 -14.884   3.520  1.00  0.00     0.060 A 
HETATM    6  C   UNL     1      39.792 -13.993   4.451  1.00  0.00     0.035 A 
ENDROOT
BRANCH   1   7
HETATM    7  N   UNL     1      39.478 -13.268   6.728  1.00  0.00    -0.307 N 
HETATM    8  C   UNL     1      39.930 -12.016   7.116  1.00  0.00     0.325 C 
HETATM    9  N   UNL     1      39.289 -11.611   8.270  1.00  0.00    -0.305 N 
HETATM   10  O   UNL     1      40.805 -11.390   6.535  1.00  0.00    -0.247 OA
HETATM   11  H   UNL     1      38.924 -12.351   8.851  1.00  0.00     0.171 HD
HETATM   12  H   UNL     1      38.556 -13.527   7.046  1.00  0.00     0.170 HD
BRANCH   9  13
HETATM   13  C   UNL     1      39.457 -10.387   8.898  1.00  0.00     0.086 A 
HETATM   14  C   UNL     1      39.942 -10.283  10.188  1.00  0.00     0.052 A 
HETATM   15  C   UNL     1      40.400 -11.292  11.171  1.00  0.00     0.072 C 
HETATM   16  N   UNL     1      39.983  -8.946  10.462  1.00  0.00    -0.280 N 
HETATM   17  H   UNL     1      40.305  -8.487  11.308  1.00  0.00     0.189 HD
HETATM   18  N   UNL     1      39.530  -8.176   9.469  1.00  0.00    -0.177 NA
HETATM   19  C   UNL     1      39.201  -9.043   8.499  1.00  0.00     0.079 A 
HETATM   20  C   UNL     1      38.609  -8.508   7.247  1.00  0.00     0.075 C 
ENDBRANCH   9  13
ENDBRANCH   1   7
BRANCH   4  21
HETATM   21  O   UNL     1      41.599 -16.811   3.045  1.00  0.00    -0.334 OA
BRANCH  21  22
HETATM   22  C   UNL     1      42.321 -17.886   3.662  1.00  0.00     0.182 C 
BRANCH  22  23
HETATM   23  C   UNL     1      43.600 -18.144   2.868  1.00  0.00     0.065 C 
BRANCH  23  24
HETATM   24  C   UNL     1      43.967 -19.607   2.888  1.00  0.00    -0.056 A 
HETATM   25  C   UNL     1      43.639 -20.433   1.804  1.00  0.00     0.007 A 
HETATM   26  C   UNL     1      43.918 -21.799   1.846  1.00  0.00     0.001 A 
HETATM   27  C   UNL     1      44.524 -22.352   2.972  1.00  0.00     0.000 A 
HETATM   28  C   UNL     1      44.853 -21.541   4.056  1.00  0.00     0.001 A 
HETATM   29  C   UNL     1      44.576 -20.173   4.016  1.00  0.00     0.007 A 
ENDBRANCH  23  24
ENDBRANCH  22  23
ENDBRANCH  21  22
ENDBRANCH   4  21
TORSDOF 6
ENDMDL
MODEL 5
REMARK VINA RESULT:      -7.5      5.244      7.514
REMARK  6 active torsions:
REMARK  status: ('A' for Active; 'I' for Inactive)
REMARK    1  A    between atoms: C_8  and  N_9 
REMARK       I    between atoms: N_9  and  C_10 
REMARK       I    between atoms: C_10  and  N_11 
REMARK    2  A    between atoms: N_11  and  C_12 
REMARK    3  A    between atoms: C_15  and  O_16 
REMARK    4  A    between atoms: O_16  and  C_17 
REMARK    5  A    between atoms: C_17  and  C_18 
REMARK    6  A    between atoms: C_18  and  C_19 
ROOT
HETATM    1  C   UNL     1      40.066 -14.155   5.634  1.00  0.00     0.054 A 
HETATM    2  C   UNL     1      39.802 -14.080   4.270  1.00  0.00     0.149 A 
HETATM    3  N   UNL     1      40.274 -14.961   3.355  1.00  0.00    -0.235 NA
HETATM    4  C   UNL     1      41.040 -15.968   3.814  1.00  0.00     0.164 A 
HETATM    5  C   UNL     1      41.326 -16.160   5.155  1.00  0.00     0.060 A 
HETATM    6  C   UNL     1      40.838 -15.232   6.075  1.00  0.00     0.035 A 
ENDROOT
BRANCH   1   7
HETATM    7  N   UNL     1      39.667 -13.187   6.579  1.00  0.00    -0.307 N 
HETATM    8  C   UNL     1      40.408 -12.087   6.985  1.00  0.00     0.325 C 
HETATM    9  N   UNL     1      39.889 -11.565   8.153  1.00  0.00    -0.305 N 
HETATM   10  O   UNL     1      41.402 -11.676   6.405  1.00  0.00    -0.247 OA
HETATM   11  H   UNL     1      39.362 -12.207   8.725  1.00  0.00     0.171 HD
HETATM   12  H   UNL     1      38.712 -13.226   6.904  1.00  0.00     0.170 HD
BRANCH   9  13
HETATM   13  C   UNL     1      40.349 -10.429   8.801  1.00  0.00     0.086 A 
HETATM   14  C   UNL     1      39.790  -9.183   8.587  1.00  0.00     0.052 A 
HETATM   15  C   UNL     1      38.663  -8.722   7.743  1.00  0.00     0.072 C 
HETATM   16  N   UNL     1      40.481  -8.323   9.392  1.00  0.00    -0.280 N 
HETATM   17  H   UNL     1      40.336  -7.326   9.517  1.00  0.00     0.189 HD
HETATM   18  N   UNL     1      41.467  -8.902  10.082  1.00  0.00    -0.177 NA
HETATM   19  C   UNL     1      41.402 -10.196   9.732  1.00  0.00     0.079 A 
HETATM   20  C   UNL     1      42.410 -11.129  10.297  1.00  0.00     0.075 C 
ENDBRANCH   9  13
ENDBRANCH   1   7
BRANCH   4  21
HETATM   21  O   UNL     1      41.597 -16.862   2.920  1.00  0.00    -0.334 OA
BRANCH  21  22
HETATM   22  C   UNL     1      42.639 -17.638   3.529  1.00  0.00     0.182 C 
BRANCH  22  23
HETATM   23  C   UNL     1      43.549 -18.190   2.434  1.00  0.00     0.065 C 
BRANCH  23  24
HETATM   24  C   UNL     1      43.942 -19.618   2.721  1.00  0.00    -0.056 A 
HETATM   25  C   UNL     1      43.675 -20.627   1.786  1.00  0.00     0.007 A 
HETATM   26  C   UNL     1      43.977 -21.958   2.075  1.00  0.00     0.001 A 
HETATM   27  C   UNL     1      44.546 -22.292   3.302  1.00  0.00     0.000 A 
HETATM   28  C   UNL     1      44.815 -21.297   4.240  1.00  0.00     0.001 A 
HETATM   29  C   UNL     1      44.514 -19.965   3.952  1.00  0.00     0.007 A 
ENDBRANCH  23  24
ENDBRANCH  22  23
ENDBRANCH  21  22
ENDBRANCH   4  21
TORSDOF 6
ENDMDL
MODEL 6
REMARK VINA RESULT:      -7.4      2.628      3.485
REMARK  6 active torsions:
REMARK  status: ('A' for Active; 'I' for Inactive)
REMARK    1  A    between atoms: C_8  and  N_9 
REMARK       I    between atoms: N_9  and  C_10 
REMARK       I    between atoms: C_10  and  N_11 
REMARK    2  A    between atoms: N_11  and  C_12 
REMARK    3  A    between atoms: C_15  and  O_16 
REMARK    4  A    between atoms: O_16  and  C_17 
REMARK    5  A    between atoms: C_17  and  C_18 
REMARK    6  A    between atoms: C_18  and  C_19 
ROOT
HETATM    1  C   UNL     1      40.669 -15.287   0.924  1.00  0.00     0.054 A 
HETATM    2  C   UNL     1      41.418 -14.450   1.746  1.00  0.00     0.149 A 
HETATM    3  N   UNL     1      42.411 -14.877   2.563  1.00  0.00    -0.235 NA
HETATM    4  C   UNL     1      42.678 -16.198   2.563  1.00  0.00     0.164 A 
HETATM    5  C   UNL     1      42.023 -17.109   1.752  1.00  0.00     0.060 A 
HETATM    6  C   UNL     1      40.997 -16.645   0.929  1.00  0.00     0.035 A 
ENDROOT
BRANCH   1   7
HETATM    7  N   UNL     1      39.567 -14.869   0.150  1.00  0.00    -0.307 N 
HETATM    8  C   UNL     1      39.628 -14.166  -1.044  1.00  0.00     0.325 C 
HETATM    9  N   UNL     1      38.395 -13.618  -1.341  1.00  0.00    -0.305 N 
HETATM   10  O   UNL     1      40.645 -14.024  -1.708  1.00  0.00    -0.247 OA
HETATM   11  H   UNL     1      37.786 -13.458  -0.554  1.00  0.00     0.171 HD
HETATM   12  H   UNL     1      38.657 -15.210   0.420  1.00  0.00     0.170 HD
BRANCH   9  13
HETATM   13  C   UNL     1      38.087 -12.905  -2.489  1.00  0.00     0.086 A 
HETATM   14  C   UNL     1      37.521 -13.506  -3.598  1.00  0.00     0.052 A 
HETATM   15  C   UNL     1      37.094 -14.898  -3.875  1.00  0.00     0.072 C 
HETATM   16  N   UNL     1      37.350 -12.508  -4.515  1.00  0.00    -0.280 N 
HETATM   17  H   UNL     1      36.942 -12.570  -5.441  1.00  0.00     0.189 HD
HETATM   18  N   UNL     1      37.793 -11.317  -4.105  1.00  0.00    -0.177 NA
HETATM   19  C   UNL     1      38.250 -11.540  -2.863  1.00  0.00     0.079 A 
HETATM   20  C   UNL     1      38.866 -10.408  -2.125  1.00  0.00     0.075 C 
ENDBRANCH   9  13
ENDBRANCH   1   7
BRANCH   4  21
HETATM   21  O   UNL     1      43.639 -16.697   3.420  1.00  0.00    -0.334 OA
BRANCH  21  22
HETATM   22  C   UNL     1      43.188 -17.887   4.083  1.00  0.00     0.182 C 
BRANCH  22  23
HETATM   23  C   UNL     1      44.390 -18.587   4.715  1.00  0.00     0.065 C 
BRANCH  23  24
HETATM   24  C   UNL     1      44.514 -20.006   4.221  1.00  0.00    -0.056 A 
HETATM   25  C   UNL     1      44.322 -20.302   2.865  1.00  0.00     0.007 A 
HETATM   26  C   UNL     1      44.371 -21.622   2.414  1.00  0.00     0.001 A 
HETATM   27  C   UNL     1      44.611 -22.657   3.315  1.00  0.00     0.000 A 
HETATM   28  C   UNL     1      44.802 -22.375   4.666  1.00  0.00     0.001 A 
HETATM   29  C   UNL     1      44.754 -21.055   5.119  1.00  0.00     0.007 A 
ENDBRANCH  23  24
ENDBRANCH  22  23
ENDBRANCH  21  22
ENDBRANCH   4  21
TORSDOF 6
ENDMDL
MODEL 7
REMARK VINA RESULT:      -7.2      5.562      8.078
REMARK  6 active torsions:
REMARK  status: ('A' for Active; 'I' for Inactive)
REMARK    1  A    between atoms: C_8  and  N_9 
REMARK       I    between atoms: N_9  and  C_10 
REMARK       I    between atoms: C_10  and  N_11 
REMARK    2  A    between atoms: N_11  and  C_12 
REMARK    3  A    between atoms: C_15  and  O_16 
REMARK    4  A    between atoms: O_16  and  C_17 
REMARK    5  A    between atoms: C_17  and  C_18 
REMARK    6  A    between atoms: C_18  and  C_19 
ROOT
HETATM    1  C   UNL     1      39.924 -13.465   5.692  1.00  0.00     0.054 A 
HETATM    2  C   UNL     1      39.672 -13.043   4.390  1.00  0.00     0.149 A 
HETATM    3  N   UNL     1      40.006 -13.751   3.283  1.00  0.00    -0.235 NA
HETATM    4  C   UNL     1      40.614 -14.937   3.476  1.00  0.00     0.164 A 
HETATM    5  C   UNL     1      40.871 -15.468   4.728  1.00  0.00     0.060 A 
HETATM    6  C   UNL     1      40.528 -14.714   5.851  1.00  0.00     0.035 A 
ENDROOT
BRANCH   1   7
HETATM    7  N   UNL     1      39.675 -12.691   6.844  1.00  0.00    -0.307 N 
HETATM    8  C   UNL     1      40.474 -11.667   7.329  1.00  0.00     0.325 C 
HETATM    9  N   UNL     1      40.137 -11.373   8.635  1.00  0.00    -0.305 N 
HETATM   10  O   UNL     1      41.374 -11.137   6.693  1.00  0.00    -0.247 OA
HETATM   11  H   UNL     1      39.697 -12.119   9.152  1.00  0.00     0.171 HD
HETATM   12  H   UNL     1      38.779 -12.807   7.293  1.00  0.00     0.170 HD
BRANCH   9  13
HETATM   13  C   UNL     1      40.695 -10.363   9.403  1.00  0.00     0.086 A 
HETATM   14  C   UNL     1      40.050  -9.158   9.613  1.00  0.00     0.052 A 
HETATM   15  C   UNL     1      38.735  -8.636   9.176  1.00  0.00     0.072 C 
HETATM   16  N   UNL     1      40.881  -8.427  10.413  1.00  0.00    -0.280 N 
HETATM   17  H   UNL     1      40.731  -7.498  10.792  1.00  0.00     0.189 HD
HETATM   18  N   UNL     1      42.028  -9.045  10.709  1.00  0.00    -0.177 NA
HETATM   19  C   UNL     1      41.932 -10.235  10.097  1.00  0.00     0.079 A 
HETATM   20  C   UNL     1      43.084 -11.168  10.189  1.00  0.00     0.075 C 
ENDBRANCH   9  13
ENDBRANCH   1   7
BRANCH   4  21
HETATM   21  O   UNL     1      41.030 -15.674   2.384  1.00  0.00    -0.334 OA
BRANCH  21  22
HETATM   22  C   UNL     1      41.009 -17.081   2.659  1.00  0.00     0.182 C 
BRANCH  22  23
HETATM   23  C   UNL     1      41.995 -17.783   1.726  1.00  0.00     0.065 C 
BRANCH  23  24
HETATM   24  C   UNL     1      42.912 -18.700   2.495  1.00  0.00    -0.056 A 
HETATM   25  C   UNL     1      43.350 -18.348   3.779  1.00  0.00     0.007 A 
HETATM   26  C   UNL     1      44.250 -19.161   4.468  1.00  0.00     0.001 A 
HETATM   27  C   UNL     1      44.723 -20.332   3.879  1.00  0.00     0.000 A 
HETATM   28  C   UNL     1      44.295 -20.691   2.602  1.00  0.00     0.001 A 
HETATM   29  C   UNL     1      43.394 -19.879   1.912  1.00  0.00     0.007 A 
ENDBRANCH  23  24
ENDBRANCH  22  23
ENDBRANCH  21  22
ENDBRANCH   4  21
TORSDOF 6
ENDMDL
MODEL 8
REMARK VINA RESULT:      -7.1      4.196      5.003
REMARK  6 active torsions:
REMARK  status: ('A' for Active; 'I' for Inactive)
REMARK    1  A    between atoms: C_8  and  N_9 
REMARK       I    between atoms: N_9  and  C_10 
REMARK       I    between atoms: C_10  and  N_11 
REMARK    2  A    between atoms: N_11  and  C_12 
REMARK    3  A    between atoms: C_15  and  O_16 
REMARK    4  A    between atoms: O_16  and  C_17 
REMARK    5  A    between atoms: C_17  and  C_18 
REMARK    6  A    between atoms: C_18  and  C_19 
ROOT
HETATM    1  C   UNL     1      43.231 -14.003   4.871  1.00  0.00     0.054 A 
HETATM    2  C   UNL     1      44.015 -14.082   6.017  1.00  0.00     0.149 A 
HETATM    3  N   UNL     1      44.325 -15.241   6.649  1.00  0.00    -0.235 NA
HETATM    4  C   UNL     1      43.838 -16.377   6.115  1.00  0.00     0.164 A 
HETATM    5  C   UNL     1      43.085 -16.414   4.954  1.00  0.00     0.060 A 
HETATM    6  C   UNL     1      42.771 -15.206   4.330  1.00  0.00     0.035 A 
ENDROOT
BRANCH   1   7
HETATM    7  N   UNL     1      42.818 -12.798   4.267  1.00  0.00    -0.307 N 
HETATM    8  C   UNL     1      41.737 -12.019   4.652  1.00  0.00     0.325 C 
HETATM    9  N   UNL     1      41.409 -11.126   3.651  1.00  0.00    -0.305 N 
HETATM   10  O   UNL     1      41.142 -12.145   5.713  1.00  0.00    -0.247 OA
HETATM   11  H   UNL     1      41.685 -11.392   2.719  1.00  0.00     0.171 HD
HETATM   12  H   UNL     1      43.428 -12.399   3.569  1.00  0.00     0.170 HD
BRANCH   9  13
HETATM   13  C   UNL     1      40.418 -10.160   3.728  1.00  0.00     0.086 A 
HETATM   14  C   UNL     1      40.637  -8.927   4.313  1.00  0.00     0.052 A 
HETATM   15  C   UNL     1      41.832  -8.310   4.934  1.00  0.00     0.072 C 
HETATM   16  N   UNL     1      39.458  -8.246   4.196  1.00  0.00    -0.280 N 
HETATM   17  H   UNL     1      39.248  -7.299   4.493  1.00  0.00     0.189 HD
HETATM   18  N   UNL     1      38.483  -8.950   3.616  1.00  0.00    -0.177 NA
HETATM   19  C   UNL     1      39.052 -10.129   3.322  1.00  0.00     0.079 A 
HETATM   20  C   UNL     1      38.211 -11.181   2.697  1.00  0.00     0.075 C 
ENDBRANCH   9  13
ENDBRANCH   1   7
BRANCH   4  21
HETATM   21  O   UNL     1      44.072 -17.581   6.750  1.00  0.00    -0.334 OA
BRANCH  21  22
HETATM   22  C   UNL     1      43.615 -18.690   5.962  1.00  0.00     0.182 C 
BRANCH  22  23
HETATM   23  C   UNL     1      44.825 -19.409   5.369  1.00  0.00     0.065 C 
BRANCH  23  24
HETATM   24  C   UNL     1      44.446 -20.182   4.131  1.00  0.00    -0.056 A 
HETATM   25  C   UNL     1      44.757 -21.545   4.027  1.00  0.00     0.007 A 
HETATM   26  C   UNL     1      44.467 -22.249   2.857  1.00  0.00     0.001 A 
HETATM   27  C   UNL     1      43.866 -21.597   1.782  1.00  0.00     0.000 A 
HETATM   28  C   UNL     1      43.554 -20.242   1.875  1.00  0.00     0.001 A 
HETATM   29  C   UNL     1      43.843 -19.536   3.044  1.00  0.00     0.007 A 
ENDBRANCH  23  24
ENDBRANCH  22  23
ENDBRANCH  21  22
ENDBRANCH   4  21
TORSDOF 6
ENDMDL
MODEL 9
REMARK VINA RESULT:      -6.9      2.470      2.930
REMARK  6 active torsions:
REMARK  status: ('A' for Active; 'I' for Inactive)
REMARK    1  A    between atoms: C_8  and  N_9 
REMARK       I    between atoms: N_9  and  C_10 
REMARK       I    between atoms: C_10  and  N_11 
REMARK    2  A    between atoms: N_11  and  C_12 
REMARK    3  A    between atoms: C_15  and  O_16 
REMARK    4  A    between atoms: O_16  and  C_17 
REMARK    5  A    between atoms: C_17  and  C_18 
REMARK    6  A    between atoms: C_18  and  C_19 
ROOT
HETATM    1  C   UNL     1      43.072 -13.923   4.040  1.00  0.00     0.054 A 
HETATM    2  C   UNL     1      43.032 -13.921   5.431  1.00  0.00     0.149 A 
HETATM    3  N   UNL     1      43.199 -15.026   6.198  1.00  0.00    -0.235 NA
HETATM    4  C   UNL     1      43.420 -16.189   5.555  1.00  0.00     0.164 A 
HETATM    5  C   UNL     1      43.522 -16.293   4.178  1.00  0.00     0.060 A 
HETATM    6  C   UNL     1      43.335 -15.142   3.412  1.00  0.00     0.035 A 
ENDROOT
BRANCH   1   7
HETATM    7  N   UNL     1      42.798 -12.800   3.232  1.00  0.00    -0.307 N 
HETATM    8  C   UNL     1      41.812 -12.714   2.261  1.00  0.00     0.325 C 
HETATM    9  N   UNL     1      42.048 -11.633   1.433  1.00  0.00    -0.305 N 
HETATM   10  O   UNL     1      40.894 -13.513   2.139  1.00  0.00    -0.247 OA
HETATM   11  H   UNL     1      43.006 -11.324   1.379  1.00  0.00     0.171 HD
HETATM   12  H   UNL     1      43.278 -11.942   3.457  1.00  0.00     0.170 HD
BRANCH   9  13
HETATM   13  C   UNL     1      41.227 -11.220   0.396  1.00  0.00     0.086 A 
HETATM   14  C   UNL     1      41.645 -11.230  -0.922  1.00  0.00     0.052 A 
HETATM   15  C   UNL     1      42.911 -11.650  -1.568  1.00  0.00     0.072 C 
HETATM   16  N   UNL     1      40.585 -10.776  -1.652  1.00  0.00    -0.280 N 
HETATM   17  H   UNL     1      40.515 -10.667  -2.658  1.00  0.00     0.189 HD
HETATM   18  N   UNL     1      39.525 -10.437  -0.912  1.00  0.00    -0.177 NA
HETATM   19  C   UNL     1      39.900 -10.702   0.349  1.00  0.00     0.079 A 
HETATM   20  C   UNL     1      38.951 -10.388   1.447  1.00  0.00     0.075 C 
ENDBRANCH   9  13
ENDBRANCH   1   7
BRANCH   4  21
HETATM   21  O   UNL     1      43.538 -17.357   6.283  1.00  0.00    -0.334 OA
BRANCH  21  22
HETATM   22  C   UNL     1      43.147 -18.501   5.511  1.00  0.00     0.182 C 
BRANCH  22  23
HETATM   23  C   UNL     1      44.333 -19.458   5.408  1.00  0.00     0.065 C 
BRANCH  23  24
HETATM   24  C   UNL     1      44.280 -20.255   4.128  1.00  0.00    -0.056 A 
HETATM   25  C   UNL     1      43.710 -19.700   2.974  1.00  0.00     0.007 A 
HETATM   26  C   UNL     1      43.599 -20.457   1.806  1.00  0.00     0.001 A 
HETATM   27  C   UNL     1      44.053 -21.774   1.784  1.00  0.00     0.000 A 
HETATM   28  C   UNL     1      44.620 -22.335   2.926  1.00  0.00     0.001 A 
HETATM   29  C   UNL     1      44.733 -21.580   4.095  1.00  0.00     0.007 A 
ENDBRANCH  23  24
ENDBRANCH  22  23
ENDBRANCH  21  22
ENDBRANCH   4  21
TORSDOF 6
ENDMDL
MODEL 10
REMARK VINA RESULT:      -6.9      2.678      8.498
REMARK  6 active torsions:
REMARK  status: ('A' for Active; 'I' for Inactive)
REMARK    1  A    between atoms: C_8  and  N_9 
REMARK       I    between atoms: N_9  and  C_10 
REMARK       I    between atoms: C_10  and  N_11 
REMARK    2  A    between atoms: N_11  and  C_12 
REMARK    3  A    between atoms: C_15  and  O_16 
REMARK    4  A    between atoms: O_16  and  C_17 
REMARK    5  A    between atoms: C_17  and  C_18 
REMARK    6  A    between atoms: C_18  and  C_19 
ROOT
HETATM    1  C   UNL     1      40.920 -15.202   2.682  1.00  0.00     0.054 A 
HETATM    2  C   UNL     1      40.911 -13.820   2.845  1.00  0.00     0.149 A 
HETATM    3  N   UNL     1      39.928 -13.006   2.386  1.00  0.00    -0.235 NA
HETATM    4  C   UNL     1      38.904 -13.591   1.737  1.00  0.00     0.164 A 
HETATM    5  C   UNL     1      38.794 -14.960   1.559  1.00  0.00     0.060 A 
HETATM    6  C   UNL     1      39.824 -15.774   2.032  1.00  0.00     0.035 A 
ENDROOT
BRANCH   1   7
HETATM    7  N   UNL     1      41.985 -16.044   3.063  1.00  0.00    -0.307 N 
HETATM    8  C   UNL     1      41.961 -16.976   4.090  1.00  0.00     0.325 C 
HETATM    9  N   UNL     1      43.247 -17.359   4.418  1.00  0.00    -0.305 N 
HETATM   10  O   UNL     1      40.943 -17.363   4.644  1.00  0.00    -0.247 OA
HETATM   11  H   UNL     1      43.972 -16.696   4.195  1.00  0.00     0.171 HD
HETATM   12  H   UNL     1      42.798 -16.059   2.466  1.00  0.00     0.170 HD
BRANCH   9  13
HETATM   13  C   UNL     1      43.585 -18.319   5.359  1.00  0.00     0.086 A 
HETATM   14  C   UNL     1      44.118 -19.543   5.002  1.00  0.00     0.052 A 
HETATM   15  C   UNL     1      44.478 -20.136   3.693  1.00  0.00     0.072 C 
HETATM   16  N   UNL     1      44.332 -20.211   6.174  1.00  0.00    -0.280 N 
HETATM   17  H   UNL     1      44.735 -21.133   6.307  1.00  0.00     0.189 HD
HETATM   18  N   UNL     1      43.947 -19.535   7.260  1.00  0.00    -0.177 NA
HETATM   19  C   UNL     1      43.485 -18.370   6.780  1.00  0.00     0.079 A 
HETATM   20  C   UNL     1      42.925 -17.386   7.741  1.00  0.00     0.075 C 
ENDBRANCH   9  13
ENDBRANCH   1   7
BRANCH   4  21
HETATM   21  O   UNL     1      37.904 -12.806   1.195  1.00  0.00    -0.334 OA
BRANCH  21  22
HETATM   22  C   UNL     1      37.569 -13.223  -0.135  1.00  0.00     0.182 C 
BRANCH  22  23
HETATM   23  C   UNL     1      38.741 -12.908  -1.063  1.00  0.00     0.065 C 
BRANCH  23  24
HETATM   24  C   UNL     1      38.912 -13.983  -2.108  1.00  0.00    -0.056 A 
HETATM   25  C   UNL     1      37.822 -14.387  -2.891  1.00  0.00     0.007 A 
HETATM   26  C   UNL     1      37.959 -15.425  -3.813  1.00  0.00     0.001 A 
HETATM   27  C   UNL     1      39.185 -16.071  -3.957  1.00  0.00     0.000 A 
HETATM   28  C   UNL     1      40.275 -15.679  -3.183  1.00  0.00     0.001 A 
HETATM   29  C   UNL     1      40.140 -14.639  -2.261  1.00  0.00     0.007 A 
ENDBRANCH  23  24
ENDBRANCH  22  23
ENDBRANCH  21  22
ENDBRANCH   4  21
TORSDOF 6
ENDMDL
