MODEL 1
REMARK VINA RESULT:      -9.8      0.000      0.000
REMARK  7 active torsions:
REMARK  status: ('A' for Active; 'I' for Inactive)
REMARK    1  A    between atoms: C_2  and  C_3 
REMARK    2  A    between atoms: C_3  and  N_4 
REMARK    3  A    between atoms: N_4  and  C_7 
REMARK    4  A    between atoms: C_12  and  N_13 
REMARK       I    between atoms: N_13  and  C_14 
REMARK    5  A    between atoms: C_14  and  C_16 
REMARK    6  A    between atoms: C_20  and  C_22 
REMARK       I    between atoms: N_26  and  C_27 
REMARK       I    between atoms: C_27  and  N_29 
REMARK    7  A    between atoms: N_29  and  C_30 
ROOT
HETATM    1  C   UNL     1      41.611 -10.190   7.296  1.00  0.00     0.037 A 
HETATM    2  C   UNL     1      41.579  -9.043   6.504  1.00  0.00     0.029 A 
HETATM    3  C   UNL     1      41.176  -9.122   5.167  1.00  0.00     0.004 A 
HETATM    4  C   UNL     1      40.793 -10.347   4.617  1.00  0.00     0.023 A 
HETATM    5  C   UNL     1      40.811 -11.497   5.407  1.00  0.00     0.046 A 
HETATM    6  C   UNL     1      41.223 -11.416   6.742  1.00  0.00     0.052 A 
HETATM    7  C   UNL     1      40.375 -12.755   4.879  1.00  0.00     0.099 C 
HETATM    8  N   UNL     1      39.985 -13.780   4.497  1.00  0.00    -0.191 NA
ENDROOT
BRANCH   1   9
HETATM    9  N   UNL     1      41.966 -10.195   8.653  1.00  0.00    -0.309 N 
HETATM   10  C   UNL     1      41.185  -9.912   9.747  1.00  0.00     0.323 C 
HETATM   11  N   UNL     1      41.819 -10.188  10.959  1.00  0.00    -0.325 N 
HETATM   12  O   UNL     1      40.070  -9.407   9.689  1.00  0.00    -0.247 OA
HETATM   13  C   UNL     1      42.629 -11.387  11.232  1.00  0.00     0.122 C 
HETATM   14  C   UNL     1      41.183  -9.733  12.192  1.00  0.00     0.128 C 
HETATM   15  C   UNL     1      42.873 -11.326  12.743  1.00  0.00     0.032 C 
HETATM   16  C   UNL     1      41.559 -10.757  13.257  1.00  0.00     0.022 C 
HETATM   17  H   UNL     1      42.952 -10.155   8.850  1.00  0.00     0.170 HD
BRANCH  13  18
HETATM   18  C   UNL     1      43.906 -11.537  10.435  1.00  0.00    -0.034 A 
HETATM   19  C   UNL     1      45.061 -10.787  10.702  1.00  0.00     0.009 A 
HETATM   20  C   UNL     1      46.189 -10.899   9.880  1.00  0.00     0.002 A 
HETATM   21  C   UNL     1      46.181 -11.757   8.777  1.00  0.00     0.017 A 
HETATM   22  C   UNL     1      45.041 -12.516   8.505  1.00  0.00     0.033 A 
HETATM   23  C   UNL     1      43.920 -12.414   9.339  1.00  0.00     0.026 A 
BRANCH  22  24
HETATM   24  C   UNL     1      44.957 -13.451   7.354  1.00  0.00     0.257 C 
HETATM   25  N   UNL     1      43.760 -14.123   7.230  1.00  0.00    -0.301 N 
HETATM   26  H   UNL     1      43.015 -14.005   7.899  1.00  0.00     0.171 HD
HETATM   27  O   UNL     1      45.961 -13.592   6.667  1.00  0.00    -0.267 OA
BRANCH  25  28
HETATM   28  C   UNL     1      43.602 -15.102   6.288  1.00  0.00     0.174 A 
HETATM   29  N   UNL     1      43.229 -14.990   5.038  1.00  0.00    -0.228 NA
HETATM   30  C   UNL     1      43.245 -16.218   4.437  1.00  0.00     0.050 A 
HETATM   31  C   UNL     1      42.897 -16.365   2.999  1.00  0.00     0.062 C 
HETATM   32  C   UNL     1      43.647 -17.262   5.242  1.00  0.00     0.013 A 
HETATM   33  C   UNL     1      42.673 -17.843   2.634  1.00  0.00     0.039 C 
HETATM   34  C   UNL     1      43.761 -18.747   3.252  1.00  0.00     0.191 C 
HETATM   35  C   UNL     1      43.753 -18.681   4.807  1.00  0.00     0.081 C 
HETATM   36  S   UNL     1      43.976 -16.691   6.816  1.00  0.00    -0.055 SA
BRANCH  34  37
HETATM   37  N   UNL     1      43.541 -20.182   2.820  1.00  0.00    -0.071 N 
HETATM   38  H   UNL     1      43.017 -20.199   1.933  1.00  0.00     0.277 HD
HETATM   39  H   UNL     1      42.934 -20.647   3.509  1.00  0.00     0.277 HD
BRANCH  37  40
HETATM   40  C   UNL     1      44.784 -21.011   2.677  1.00  0.00     0.232 C 
BRANCH  40  41
HETATM   41  C   UNL     1      44.526 -22.395   3.258  1.00  0.00     0.023 C 
HETATM   42  C   UNL     1      44.794 -22.417   4.756  1.00  0.00     0.007 C 
ENDBRANCH  40  41
ENDBRANCH  37  40
ENDBRANCH  34  37
ENDBRANCH  25  28
ENDBRANCH  22  24
ENDBRANCH  13  18
ENDBRANCH   1   9
TORSDOF 7
ENDMDL
MODEL 2
REMARK VINA RESULT:      -9.0      1.185      2.091
REMARK  7 active torsions:
REMARK  status: ('A' for Active; 'I' for Inactive)
REMARK    1  A    between atoms: C_2  and  C_3 
REMARK    2  A    between atoms: C_3  and  N_4 
REMARK    3  A    between atoms: N_4  and  C_7 
REMARK    4  A    between atoms: C_12  and  N_13 
REMARK       I    between atoms: N_13  and  C_14 
REMARK    5  A    between atoms: C_14  and  C_16 
REMARK    6  A    between atoms: C_20  and  C_22 
REMARK       I    between atoms: N_26  and  C_27 
REMARK       I    between atoms: C_27  and  N_29 
REMARK    7  A    between atoms: N_29  and  C_30 
ROOT
HETATM    1  C   UNL     1      41.547  -9.990   7.556  1.00  0.00     0.037 A 
HETATM    2  C   UNL     1      41.607  -8.848   6.760  1.00  0.00     0.029 A 
HETATM    3  C   UNL     1      41.243  -8.909   5.411  1.00  0.00     0.004 A 
HETATM    4  C   UNL     1      40.808 -10.113   4.852  1.00  0.00     0.023 A 
HETATM    5  C   UNL     1      40.734 -11.258   5.647  1.00  0.00     0.046 A 
HETATM    6  C   UNL     1      41.106 -11.194   6.994  1.00  0.00     0.052 A 
HETATM    7  C   UNL     1      40.243 -12.492   5.109  1.00  0.00     0.099 C 
HETATM    8  N   UNL     1      39.807 -13.494   4.718  1.00  0.00    -0.191 NA
ENDROOT
BRANCH   1   9
HETATM    9  N   UNL     1      41.857 -10.008   8.924  1.00  0.00    -0.309 N 
HETATM   10  C   UNL     1      41.035  -9.760   9.995  1.00  0.00     0.323 C 
HETATM   11  N   UNL     1      41.634 -10.040  11.224  1.00  0.00    -0.325 N 
HETATM   12  O   UNL     1      39.910  -9.278   9.909  1.00  0.00    -0.247 OA
HETATM   13  C   UNL     1      42.462 -11.226  11.505  1.00  0.00     0.122 C 
HETATM   14  C   UNL     1      40.948  -9.620  12.442  1.00  0.00     0.128 C 
HETATM   15  C   UNL     1      42.655 -11.183  13.025  1.00  0.00     0.032 C 
HETATM   16  C   UNL     1      41.312 -10.651  13.503  1.00  0.00     0.022 C 
HETATM   17  H   UNL     1      42.835  -9.950   9.154  1.00  0.00     0.170 HD
BRANCH  13  18
HETATM   18  C   UNL     1      43.767 -11.336  10.750  1.00  0.00    -0.034 A 
HETATM   19  C   UNL     1      44.865 -10.500  11.004  1.00  0.00     0.009 A 
HETATM   20  C   UNL     1      46.020 -10.583  10.217  1.00  0.00     0.002 A 
HETATM   21  C   UNL     1      46.096 -11.496   9.162  1.00  0.00     0.017 A 
HETATM   22  C   UNL     1      45.015 -12.339   8.903  1.00  0.00     0.033 A 
HETATM   23  C   UNL     1      43.867 -12.266   9.703  1.00  0.00     0.026 A 
BRANCH  22  24
HETATM   24  C   UNL     1      45.021 -13.337   7.803  1.00  0.00     0.257 C 
HETATM   25  N   UNL     1      43.990 -14.250   7.833  1.00  0.00    -0.301 N 
HETATM   26  H   UNL     1      43.305 -14.252   8.573  1.00  0.00     0.171 HD
HETATM   27  O   UNL     1      45.960 -13.305   7.017  1.00  0.00    -0.267 OA
BRANCH  25  28
HETATM   28  C   UNL     1      43.954 -15.295   6.950  1.00  0.00     0.174 A 
HETATM   29  N   UNL     1      44.394 -16.519   7.103  1.00  0.00    -0.228 NA
HETATM   30  C   UNL     1      44.116 -17.256   5.985  1.00  0.00     0.050 A 
HETATM   31  C   UNL     1      44.480 -18.696   5.914  1.00  0.00     0.062 C 
HETATM   32  C   UNL     1      43.448 -16.580   4.987  1.00  0.00     0.013 A 
HETATM   33  C   UNL     1      44.367 -19.222   4.474  1.00  0.00     0.039 C 
HETATM   34  C   UNL     1      43.073 -18.727   3.793  1.00  0.00     0.191 C 
HETATM   35  C   UNL     1      43.032 -17.175   3.689  1.00  0.00     0.081 C 
HETATM   36  S   UNL     1      43.196 -14.957   5.449  1.00  0.00    -0.055 SA
BRANCH  34  37
HETATM   37  N   UNL     1      42.969 -19.316   2.401  1.00  0.00    -0.071 N 
HETATM   38  H   UNL     1      42.135 -19.918   2.342  1.00  0.00     0.277 HD
HETATM   39  H   UNL     1      43.773 -19.940   2.244  1.00  0.00     0.277 HD
BRANCH  37  40
HETATM   40  C   UNL     1      42.941 -18.320   1.278  1.00  0.00     0.232 C 
BRANCH  40  41
HETATM   41  C   UNL     1      41.502 -17.885   1.038  1.00  0.00     0.023 C 
HETATM   42  C   UNL     1      41.449 -16.597   0.229  1.00  0.00     0.007 C 
ENDBRANCH  40  41
ENDBRANCH  37  40
ENDBRANCH  34  37
ENDBRANCH  25  28
ENDBRANCH  22  24
ENDBRANCH  13  18
ENDBRANCH   1   9
TORSDOF 7
ENDMDL
MODEL 3
REMARK VINA RESULT:      -8.8      2.059      4.332
REMARK  7 active torsions:
REMARK  status: ('A' for Active; 'I' for Inactive)
REMARK    1  A    between atoms: C_2  and  C_3 
REMARK    2  A    between atoms: C_3  and  N_4 
REMARK    3  A    between atoms: N_4  and  C_7 
REMARK    4  A    between atoms: C_12  and  N_13 
REMARK       I    between atoms: N_13  and  C_14 
REMARK    5  A    between atoms: C_14  and  C_16 
REMARK    6  A    between atoms: C_20  and  C_22 
REMARK       I    between atoms: N_26  and  C_27 
REMARK       I    between atoms: C_27  and  N_29 
REMARK    7  A    between atoms: N_29  and  C_30 
ROOT
HETATM    1  C   UNL     1      43.414 -11.167   9.824  1.00  0.00     0.037 A 
HETATM    2  C   UNL     1      44.479 -10.496  10.422  1.00  0.00     0.029 A 
HETATM    3  C   UNL     1      45.796 -10.816  10.078  1.00  0.00     0.004 A 
HETATM    4  C   UNL     1      46.055 -11.804   9.126  1.00  0.00     0.023 A 
HETATM    5  C   UNL     1      44.994 -12.472   8.514  1.00  0.00     0.046 A 
HETATM    6  C   UNL     1      43.677 -12.154   8.866  1.00  0.00     0.052 A 
HETATM    7  C   UNL     1      45.233 -13.453   7.498  1.00  0.00     0.099 C 
HETATM    8  N   UNL     1      45.391 -14.219   6.640  1.00  0.00    -0.191 NA
ENDROOT
BRANCH   1   9
HETATM    9  N   UNL     1      42.064 -10.884  10.083  1.00  0.00    -0.309 N 
HETATM   10  C   UNL     1      41.405 -10.872  11.288  1.00  0.00     0.323 C 
HETATM   11  N   UNL     1      40.105 -10.373  11.198  1.00  0.00    -0.325 N 
HETATM   12  O   UNL     1      41.867 -11.313  12.335  1.00  0.00    -0.247 OA
HETATM   13  C   UNL     1      39.711  -9.191  10.411  1.00  0.00     0.122 C 
HETATM   14  C   UNL     1      39.229 -10.506  12.358  1.00  0.00     0.128 C 
HETATM   15  C   UNL     1      38.265  -8.930  10.847  1.00  0.00     0.032 C 
HETATM   16  C   UNL     1      38.304  -9.296  12.323  1.00  0.00     0.022 C 
HETATM   17  H   UNL     1      41.443 -10.935   9.293  1.00  0.00     0.170 HD
BRANCH  13  18
HETATM   18  C   UNL     1      39.864  -9.294   8.911  1.00  0.00    -0.034 A 
HETATM   19  C   UNL     1      39.809  -8.178   8.062  1.00  0.00     0.009 A 
HETATM   20  C   UNL     1      39.867  -8.336   6.672  1.00  0.00     0.002 A 
HETATM   21  C   UNL     1      39.978  -9.610   6.107  1.00  0.00     0.017 A 
HETATM   22  C   UNL     1      40.043 -10.728   6.939  1.00  0.00     0.033 A 
HETATM   23  C   UNL     1      40.001 -10.565   8.330  1.00  0.00     0.026 A 
BRANCH  22  24
HETATM   24  C   UNL     1      40.163 -12.112   6.414  1.00  0.00     0.257 C 
HETATM   25  N   UNL     1      41.453 -12.543   6.189  1.00  0.00    -0.301 N 
HETATM   26  H   UNL     1      42.247 -11.941   6.341  1.00  0.00     0.171 HD
HETATM   27  O   UNL     1      39.127 -12.715   6.169  1.00  0.00    -0.267 OA
BRANCH  25  28
HETATM   28  C   UNL     1      41.692 -13.750   5.589  1.00  0.00     0.174 A 
HETATM   29  N   UNL     1      41.360 -14.950   5.993  1.00  0.00    -0.228 NA
HETATM   30  C   UNL     1      41.756 -15.877   5.068  1.00  0.00     0.050 A 
HETATM   31  C   UNL     1      41.465 -17.322   5.268  1.00  0.00     0.062 C 
HETATM   32  C   UNL     1      42.381 -15.364   3.952  1.00  0.00     0.013 A 
HETATM   33  C   UNL     1      42.271 -18.187   4.284  1.00  0.00     0.039 C 
HETATM   34  C   UNL     1      42.246 -17.593   2.860  1.00  0.00     0.191 C 
HETATM   35  C   UNL     1      42.888 -16.175   2.813  1.00  0.00     0.081 C 
HETATM   36  S   UNL     1      42.513 -13.668   4.085  1.00  0.00    -0.055 SA
BRANCH  34  37
HETATM   37  N   UNL     1      42.997 -18.504   1.911  1.00  0.00    -0.071 N 
HETATM   38  H   UNL     1      43.632 -17.944   1.324  1.00  0.00     0.277 HD
HETATM   39  H   UNL     1      42.324 -18.933   1.260  1.00  0.00     0.277 HD
BRANCH  37  40
HETATM   40  C   UNL     1      43.772 -19.614   2.559  1.00  0.00     0.232 C 
BRANCH  40  41
HETATM   41  C   UNL     1      43.467 -20.919   1.837  1.00  0.00     0.023 C 
HETATM   42  C   UNL     1      44.495 -21.987   2.181  1.00  0.00     0.007 C 
ENDBRANCH  40  41
ENDBRANCH  37  40
ENDBRANCH  34  37
ENDBRANCH  25  28
ENDBRANCH  22  24
ENDBRANCH  13  18
ENDBRANCH   1   9
TORSDOF 7
ENDMDL
MODEL 4
REMARK VINA RESULT:      -8.8      5.291      8.954
REMARK  7 active torsions:
REMARK  status: ('A' for Active; 'I' for Inactive)
REMARK    1  A    between atoms: C_2  and  C_3 
REMARK    2  A    between atoms: C_3  and  N_4 
REMARK    3  A    between atoms: N_4  and  C_7 
REMARK    4  A    between atoms: C_12  and  N_13 
REMARK       I    between atoms: N_13  and  C_14 
REMARK    5  A    between atoms: C_14  and  C_16 
REMARK    6  A    between atoms: C_20  and  C_22 
REMARK       I    between atoms: N_26  and  C_27 
REMARK       I    between atoms: C_27  and  N_29 
REMARK    7  A    between atoms: N_29  and  C_30 
ROOT
HETATM    1  C   UNL     1      40.133 -14.320  -2.455  1.00  0.00     0.037 A 
HETATM    2  C   UNL     1      40.702 -15.561  -2.736  1.00  0.00     0.029 A 
HETATM    3  C   UNL     1      39.997 -16.504  -3.491  1.00  0.00     0.004 A 
HETATM    4  C   UNL     1      38.722 -16.208  -3.977  1.00  0.00     0.023 A 
HETATM    5  C   UNL     1      38.151 -14.963  -3.709  1.00  0.00     0.046 A 
HETATM    6  C   UNL     1      38.856 -14.025  -2.947  1.00  0.00     0.052 A 
HETATM    7  C   UNL     1      36.866 -14.617  -4.239  1.00  0.00     0.099 C 
HETATM    8  N   UNL     1      35.848 -14.289  -4.690  1.00  0.00    -0.191 NA
ENDROOT
BRANCH   1   9
HETATM    9  N   UNL     1      40.784 -13.305  -1.738  1.00  0.00    -0.309 N 
HETATM   10  C   UNL     1      41.873 -12.554  -2.108  1.00  0.00     0.323 C 
HETATM   11  N   UNL     1      42.146 -11.510  -1.223  1.00  0.00    -0.325 N 
HETATM   12  O   UNL     1      42.586 -12.798  -3.076  1.00  0.00    -0.247 OA
HETATM   13  C   UNL     1      41.130 -10.635  -0.615  1.00  0.00     0.122 C 
HETATM   14  C   UNL     1      43.397 -10.774  -1.385  1.00  0.00     0.128 C 
HETATM   15  C   UNL     1      41.955  -9.529   0.053  1.00  0.00     0.032 C 
HETATM   16  C   UNL     1      43.104  -9.351  -0.927  1.00  0.00     0.022 C 
HETATM   17  H   UNL     1      40.605 -13.281  -0.748  1.00  0.00     0.170 HD
BRANCH  13  18
HETATM   18  C   UNL     1      40.149 -11.290   0.331  1.00  0.00    -0.034 A 
HETATM   19  C   UNL     1      38.804 -10.902   0.421  1.00  0.00     0.009 A 
HETATM   20  C   UNL     1      37.958 -11.479   1.375  1.00  0.00     0.002 A 
HETATM   21  C   UNL     1      38.441 -12.450   2.257  1.00  0.00     0.017 A 
HETATM   22  C   UNL     1      39.775 -12.852   2.173  1.00  0.00     0.033 A 
HETATM   23  C   UNL     1      40.615 -12.284   1.206  1.00  0.00     0.026 A 
BRANCH  22  24
HETATM   24  C   UNL     1      40.361 -13.879   3.073  1.00  0.00     0.257 C 
HETATM   25  N   UNL     1      41.667 -14.222   2.799  1.00  0.00    -0.301 N 
HETATM   26  H   UNL     1      42.168 -13.822   2.020  1.00  0.00     0.171 HD
HETATM   27  O   UNL     1      39.628 -14.370   3.921  1.00  0.00    -0.267 OA
BRANCH  25  28
HETATM   28  C   UNL     1      42.278 -15.243   3.473  1.00  0.00     0.174 A 
HETATM   29  N   UNL     1      42.922 -15.208   4.614  1.00  0.00    -0.228 NA
HETATM   30  C   UNL     1      43.339 -16.466   4.950  1.00  0.00     0.050 A 
HETATM   31  C   UNL     1      44.066 -16.711   6.224  1.00  0.00     0.062 C 
HETATM   32  C   UNL     1      42.993 -17.459   4.058  1.00  0.00     0.013 A 
HETATM   33  C   UNL     1      44.704 -18.110   6.234  1.00  0.00     0.039 C 
HETATM   34  C   UNL     1      43.730 -19.179   5.694  1.00  0.00     0.191 C 
HETATM   35  C   UNL     1      43.326 -18.900   4.217  1.00  0.00     0.081 C 
HETATM   36  S   UNL     1      42.152 -16.785   2.735  1.00  0.00    -0.055 SA
BRANCH  34  37
HETATM   37  N   UNL     1      44.372 -20.548   5.778  1.00  0.00    -0.071 N 
HETATM   38  H   UNL     1      43.645 -21.263   5.924  1.00  0.00     0.277 HD
HETATM   39  H   UNL     1      44.968 -20.584   6.617  1.00  0.00     0.277 HD
BRANCH  37  40
HETATM   40  C   UNL     1      45.221 -20.937   4.602  1.00  0.00     0.232 C 
BRANCH  40  41
HETATM   41  C   UNL     1      44.698 -22.245   4.026  1.00  0.00     0.023 C 
HETATM   42  C   UNL     1      44.294 -22.078   2.568  1.00  0.00     0.007 C 
ENDBRANCH  40  41
ENDBRANCH  37  40
ENDBRANCH  34  37
ENDBRANCH  25  28
ENDBRANCH  22  24
ENDBRANCH  13  18
ENDBRANCH   1   9
TORSDOF 7
ENDMDL
MODEL 5
REMARK VINA RESULT:      -8.6      4.644      8.839
REMARK  7 active torsions:
REMARK  status: ('A' for Active; 'I' for Inactive)
REMARK    1  A    between atoms: C_2  and  C_3 
REMARK    2  A    between atoms: C_3  and  N_4 
REMARK    3  A    between atoms: N_4  and  C_7 
REMARK    4  A    between atoms: C_12  and  N_13 
REMARK       I    between atoms: N_13  and  C_14 
REMARK    5  A    between atoms: C_14  and  C_16 
REMARK    6  A    between atoms: C_20  and  C_22 
REMARK       I    between atoms: N_26  and  C_27 
REMARK       I    between atoms: C_27  and  N_29 
REMARK    7  A    between atoms: N_29  and  C_30 
ROOT
HETATM    1  C   UNL     1      42.716 -14.992   4.624  1.00  0.00     0.037 A 
HETATM    2  C   UNL     1      43.341 -14.214   3.650  1.00  0.00     0.029 A 
HETATM    3  C   UNL     1      42.785 -12.991   3.261  1.00  0.00     0.004 A 
HETATM    4  C   UNL     1      41.604 -12.535   3.851  1.00  0.00     0.023 A 
HETATM    5  C   UNL     1      40.980 -13.302   4.835  1.00  0.00     0.046 A 
HETATM    6  C   UNL     1      41.536 -14.529   5.216  1.00  0.00     0.052 A 
HETATM    7  C   UNL     1      39.797 -12.831   5.491  1.00  0.00     0.099 C 
HETATM    8  N   UNL     1      38.864 -12.459   6.073  1.00  0.00    -0.191 NA
ENDROOT
BRANCH   1   9
HETATM    9  N   UNL     1      43.225 -16.210   5.098  1.00  0.00    -0.309 N 
HETATM   10  C   UNL     1      43.445 -16.603   6.395  1.00  0.00     0.323 C 
HETATM   11  N   UNL     1      43.794 -17.950   6.510  1.00  0.00    -0.325 N 
HETATM   12  O   UNL     1      43.412 -15.850   7.363  1.00  0.00    -0.247 OA
HETATM   13  C   UNL     1      43.156 -19.049   5.765  1.00  0.00     0.122 C 
HETATM   14  C   UNL     1      44.261 -18.437   7.804  1.00  0.00     0.128 C 
HETATM   15  C   UNL     1      43.718 -20.312   6.429  1.00  0.00     0.032 C 
HETATM   16  C   UNL     1      43.812 -19.891   7.888  1.00  0.00     0.022 C 
HETATM   17  H   UNL     1      43.718 -16.773   4.426  1.00  0.00     0.170 HD
BRANCH  13  18
HETATM   18  C   UNL     1      43.335 -19.045   4.264  1.00  0.00    -0.034 A 
HETATM   19  C   UNL     1      44.409 -19.682   3.625  1.00  0.00     0.009 A 
HETATM   20  C   UNL     1      44.579 -19.573   2.239  1.00  0.00     0.002 A 
HETATM   21  C   UNL     1      43.684 -18.825   1.471  1.00  0.00     0.017 A 
HETATM   22  C   UNL     1      42.606 -18.193   2.093  1.00  0.00     0.033 A 
HETATM   23  C   UNL     1      42.429 -18.317   3.477  1.00  0.00     0.026 A 
BRANCH  22  24
HETATM   24  C   UNL     1      41.610 -17.384   1.344  1.00  0.00     0.257 C 
HETATM   25  N   UNL     1      42.124 -16.634   0.308  1.00  0.00    -0.301 N 
HETATM   26  H   UNL     1      43.111 -16.619   0.103  1.00  0.00     0.171 HD
HETATM   27  O   UNL     1      40.454 -17.399   1.745  1.00  0.00    -0.267 OA
BRANCH  25  28
HETATM   28  C   UNL     1      41.333 -15.752  -0.377  1.00  0.00     0.174 A 
HETATM   29  N   UNL     1      41.012 -15.748  -1.647  1.00  0.00    -0.228 NA
HETATM   30  C   UNL     1      40.161 -14.710  -1.907  1.00  0.00     0.050 A 
HETATM   31  C   UNL     1      39.613 -14.500  -3.273  1.00  0.00     0.062 C 
HETATM   32  C   UNL     1      39.830 -13.934  -0.817  1.00  0.00     0.013 A 
HETATM   33  C   UNL     1      38.954 -13.116  -3.396  1.00  0.00     0.039 C 
HETATM   34  C   UNL     1      38.079 -12.796  -2.166  1.00  0.00     0.191 C 
HETATM   35  C   UNL     1      38.917 -12.760  -0.854  1.00  0.00     0.081 C 
HETATM   36  S   UNL     1      40.645 -14.500   0.571  1.00  0.00    -0.055 SA
BRANCH  34  37
HETATM   37  N   UNL     1      37.401 -11.455  -2.353  1.00  0.00    -0.071 N 
HETATM   38  H   UNL     1      36.447 -11.598  -2.717  1.00  0.00     0.277 HD
HETATM   39  H   UNL     1      37.901 -10.930  -3.085  1.00  0.00     0.277 HD
BRANCH  37  40
HETATM   40  C   UNL     1      37.340 -10.585  -1.131  1.00  0.00     0.232 C 
BRANCH  40  41
HETATM   41  C   UNL     1      35.898 -10.505  -0.651  1.00  0.00     0.023 C 
HETATM   42  C   UNL     1      35.667 -11.421   0.542  1.00  0.00     0.007 C 
ENDBRANCH  40  41
ENDBRANCH  37  40
ENDBRANCH  34  37
ENDBRANCH  25  28
ENDBRANCH  22  24
ENDBRANCH  13  18
ENDBRANCH   1   9
TORSDOF 7
ENDMDL
MODEL 6
REMARK VINA RESULT:      -8.4      6.334      9.115
REMARK  7 active torsions:
REMARK  status: ('A' for Active; 'I' for Inactive)
REMARK    1  A    between atoms: C_2  and  C_3 
REMARK    2  A    between atoms: C_3  and  N_4 
REMARK    3  A    between atoms: N_4  and  C_7 
REMARK    4  A    between atoms: C_12  and  N_13 
REMARK       I    between atoms: N_13  and  C_14 
REMARK    5  A    between atoms: C_14  and  C_16 
REMARK    6  A    between atoms: C_20  and  C_22 
REMARK       I    between atoms: N_26  and  C_27 
REMARK       I    between atoms: C_27  and  N_29 
REMARK    7  A    between atoms: N_29  and  C_30 
ROOT
HETATM    1  C   UNL     1      39.264 -11.981  -2.212  1.00  0.00     0.037 A 
HETATM    2  C   UNL     1      40.421 -11.283  -2.555  1.00  0.00     0.029 A 
HETATM    3  C   UNL     1      41.478 -11.941  -3.193  1.00  0.00     0.004 A 
HETATM    4  C   UNL     1      41.379 -13.300  -3.500  1.00  0.00     0.023 A 
HETATM    5  C   UNL     1      40.219 -14.002  -3.171  1.00  0.00     0.046 A 
HETATM    6  C   UNL     1      39.167 -13.342  -2.525  1.00  0.00     0.052 A 
HETATM    7  C   UNL     1      40.075 -15.383  -3.521  1.00  0.00     0.099 C 
HETATM    8  N   UNL     1      39.907 -16.490  -3.830  1.00  0.00    -0.191 NA
ENDROOT
BRANCH   1   9
HETATM    9  N   UNL     1      38.145 -11.391  -1.605  1.00  0.00    -0.309 N 
HETATM   10  C   UNL     1      36.996 -10.922  -2.193  1.00  0.00     0.323 C 
HETATM   11  N   UNL     1      36.015 -10.560  -1.268  1.00  0.00    -0.325 N 
HETATM   12  O   UNL     1      36.850 -10.765  -3.400  1.00  0.00    -0.247 OA
HETATM   13  C   UNL     1      35.670 -11.333  -0.063  1.00  0.00     0.122 C 
HETATM   14  C   UNL     1      34.835  -9.850  -1.753  1.00  0.00     0.128 C 
HETATM   15  C   UNL     1      34.395 -10.654   0.452  1.00  0.00     0.032 C 
HETATM   16  C   UNL     1      33.690 -10.276  -0.842  1.00  0.00     0.022 C 
HETATM   17  H   UNL     1      38.284 -11.040  -0.672  1.00  0.00     0.170 HD
BRANCH  13  18
HETATM   18  C   UNL     1      36.742 -11.451   0.997  1.00  0.00    -0.034 A 
HETATM   19  C   UNL     1      37.140 -10.371   1.799  1.00  0.00     0.009 A 
HETATM   20  C   UNL     1      38.200 -10.509   2.704  1.00  0.00     0.002 A 
HETATM   21  C   UNL     1      38.880 -11.724   2.821  1.00  0.00     0.017 A 
HETATM   22  C   UNL     1      38.489 -12.809   2.036  1.00  0.00     0.033 A 
HETATM   23  C   UNL     1      37.418 -12.673   1.142  1.00  0.00     0.026 A 
BRANCH  22  24
HETATM   24  C   UNL     1      39.160 -14.132   2.105  1.00  0.00     0.257 C 
HETATM   25  N   UNL     1      40.457 -14.108   2.571  1.00  0.00    -0.301 N 
HETATM   26  H   UNL     1      40.917 -13.244   2.813  1.00  0.00     0.171 HD
HETATM   27  O   UNL     1      38.541 -15.102   1.688  1.00  0.00    -0.267 OA
BRANCH  25  28
HETATM   28  C   UNL     1      41.224 -15.240   2.564  1.00  0.00     0.174 A 
HETATM   29  N   UNL     1      41.971 -15.724   1.603  1.00  0.00    -0.228 NA
HETATM   30  C   UNL     1      42.606 -16.856   2.032  1.00  0.00     0.050 A 
HETATM   31  C   UNL     1      43.547 -17.584   1.141  1.00  0.00     0.062 C 
HETATM   32  C   UNL     1      42.342 -17.219   3.336  1.00  0.00     0.013 A 
HETATM   33  C   UNL     1      43.882 -18.973   1.711  1.00  0.00     0.039 C 
HETATM   34  C   UNL     1      44.162 -18.909   3.227  1.00  0.00     0.191 C 
HETATM   35  C   UNL     1      42.923 -18.404   4.023  1.00  0.00     0.081 C 
HETATM   36  S   UNL     1      41.230 -16.128   4.032  1.00  0.00    -0.055 SA
BRANCH  34  37
HETATM   37  N   UNL     1      44.547 -20.282   3.736  1.00  0.00    -0.071 N 
HETATM   38  H   UNL     1      45.447 -20.565   3.321  1.00  0.00     0.277 HD
HETATM   39  H   UNL     1      43.857 -20.967   3.397  1.00  0.00     0.277 HD
BRANCH  37  40
HETATM   40  C   UNL     1      44.626 -20.419   5.229  1.00  0.00     0.232 C 
BRANCH  40  41
HETATM   41  C   UNL     1      44.583 -21.897   5.594  1.00  0.00     0.023 C 
HETATM   42  C   UNL     1      44.655 -22.769   4.349  1.00  0.00     0.007 C 
ENDBRANCH  40  41
ENDBRANCH  37  40
ENDBRANCH  34  37
ENDBRANCH  25  28
ENDBRANCH  22  24
ENDBRANCH  13  18
ENDBRANCH   1   9
TORSDOF 7
ENDMDL
MODEL 7
REMARK VINA RESULT:      -8.1      6.281      9.349
REMARK  7 active torsions:
REMARK  status: ('A' for Active; 'I' for Inactive)
REMARK    1  A    between atoms: C_2  and  C_3 
REMARK    2  A    between atoms: C_3  and  N_4 
REMARK    3  A    between atoms: N_4  and  C_7 
REMARK    4  A    between atoms: C_12  and  N_13 
REMARK       I    between atoms: N_13  and  C_14 
REMARK    5  A    between atoms: C_14  and  C_16 
REMARK    6  A    between atoms: C_20  and  C_22 
REMARK       I    between atoms: N_26  and  C_27 
REMARK       I    between atoms: C_27  and  N_29 
REMARK    7  A    between atoms: N_29  and  C_30 
ROOT
HETATM    1  C   UNL     1      39.600 -11.593  -2.357  1.00  0.00     0.037 A 
HETATM    2  C   UNL     1      39.764 -12.682  -3.212  1.00  0.00     0.029 A 
HETATM    3  C   UNL     1      41.047 -13.112  -3.567  1.00  0.00     0.004 A 
HETATM    4  C   UNL     1      42.173 -12.461  -3.062  1.00  0.00     0.023 A 
HETATM    5  C   UNL     1      42.017 -11.378  -2.196  1.00  0.00     0.046 A 
HETATM    6  C   UNL     1      40.732 -10.945  -1.849  1.00  0.00     0.052 A 
HETATM    7  C   UNL     1      43.158 -10.726  -1.625  1.00  0.00     0.099 C 
HETATM    8  N   UNL     1      44.058 -10.205  -1.110  1.00  0.00    -0.191 NA
ENDROOT
BRANCH   1   9
HETATM    9  N   UNL     1      38.353 -11.120  -1.922  1.00  0.00    -0.309 N 
HETATM   10  C   UNL     1      37.261 -10.759  -2.672  1.00  0.00     0.323 C 
HETATM   11  N   UNL     1      36.126 -10.503  -1.902  1.00  0.00    -0.325 N 
HETATM   12  O   UNL     1      37.277 -10.606  -3.889  1.00  0.00    -0.247 OA
HETATM   13  C   UNL     1      35.686 -11.316  -0.755  1.00  0.00     0.122 C 
HETATM   14  C   UNL     1      34.965  -9.906  -2.556  1.00  0.00     0.128 C 
HETATM   15  C   UNL     1      34.291 -10.769  -0.435  1.00  0.00     0.032 C 
HETATM   16  C   UNL     1      33.747 -10.450  -1.819  1.00  0.00     0.022 C 
HETATM   17  H   UNL     1      38.321 -10.765  -0.981  1.00  0.00     0.170 HD
BRANCH  13  18
HETATM   18  C   UNL     1      36.600 -11.339   0.449  1.00  0.00    -0.034 A 
HETATM   19  C   UNL     1      36.865 -10.200   1.224  1.00  0.00     0.009 A 
HETATM   20  C   UNL     1      37.788 -10.253   2.276  1.00  0.00     0.002 A 
HETATM   21  C   UNL     1      38.463 -11.441   2.568  1.00  0.00     0.017 A 
HETATM   22  C   UNL     1      38.203 -12.584   1.811  1.00  0.00     0.033 A 
HETATM   23  C   UNL     1      37.267 -12.533   0.770  1.00  0.00     0.026 A 
BRANCH  22  24
HETATM   24  C   UNL     1      38.877 -13.883   2.063  1.00  0.00     0.257 C 
HETATM   25  N   UNL     1      40.029 -13.810   2.815  1.00  0.00    -0.301 N 
HETATM   26  H   UNL     1      40.397 -12.927   3.137  1.00  0.00     0.171 HD
HETATM   27  O   UNL     1      38.398 -14.879   1.536  1.00  0.00    -0.267 OA
BRANCH  25  28
HETATM   28  C   UNL     1      40.809 -14.917   3.011  1.00  0.00     0.174 A 
HETATM   29  N   UNL     1      40.793 -15.771   4.003  1.00  0.00    -0.228 NA
HETATM   30  C   UNL     1      41.712 -16.759   3.781  1.00  0.00     0.050 A 
HETATM   31  C   UNL     1      41.871 -17.881   4.744  1.00  0.00     0.062 C 
HETATM   32  C   UNL     1      42.417 -16.651   2.602  1.00  0.00     0.013 A 
HETATM   33  C   UNL     1      43.156 -18.675   4.458  1.00  0.00     0.039 C 
HETATM   34  C   UNL     1      43.333 -18.936   2.947  1.00  0.00     0.191 C 
HETATM   35  C   UNL     1      43.458 -17.609   2.142  1.00  0.00     0.081 C 
HETATM   36  S   UNL     1      41.941 -15.243   1.764  1.00  0.00    -0.055 SA
BRANCH  34  37
HETATM   37  N   UNL     1      44.574 -19.772   2.713  1.00  0.00    -0.071 N 
HETATM   38  H   UNL     1      45.405 -19.162   2.705  1.00  0.00     0.277 HD
HETATM   39  H   UNL     1      44.524 -20.184   1.770  1.00  0.00     0.277 HD
BRANCH  37  40
HETATM   40  C   UNL     1      44.791 -20.893   3.687  1.00  0.00     0.232 C 
BRANCH  40  41
HETATM   41  C   UNL     1      44.422 -22.210   3.018  1.00  0.00     0.023 C 
HETATM   42  C   UNL     1      44.158 -22.012   1.532  1.00  0.00     0.007 C 
ENDBRANCH  40  41
ENDBRANCH  37  40
ENDBRANCH  34  37
ENDBRANCH  25  28
ENDBRANCH  22  24
ENDBRANCH  13  18
ENDBRANCH   1   9
TORSDOF 7
ENDMDL
MODEL 8
REMARK VINA RESULT:      -8.0      5.987     10.768
REMARK  7 active torsions:
REMARK  status: ('A' for Active; 'I' for Inactive)
REMARK    1  A    between atoms: C_2  and  C_3 
REMARK    2  A    between atoms: C_3  and  N_4 
REMARK    3  A    between atoms: N_4  and  C_7 
REMARK    4  A    between atoms: C_12  and  N_13 
REMARK       I    between atoms: N_13  and  C_14 
REMARK    5  A    between atoms: C_14  and  C_16 
REMARK    6  A    between atoms: C_20  and  C_22 
REMARK       I    between atoms: N_26  and  C_27 
REMARK       I    between atoms: C_27  and  N_29 
REMARK    7  A    between atoms: N_29  and  C_30 
ROOT
HETATM    1  C   UNL     1      43.843 -19.348   4.745  1.00  0.00     0.037 A 
HETATM    2  C   UNL     1      44.239 -20.049   5.883  1.00  0.00     0.029 A 
HETATM    3  C   UNL     1      44.642 -21.384   5.783  1.00  0.00     0.004 A 
HETATM    4  C   UNL     1      44.661 -22.024   4.542  1.00  0.00     0.023 A 
HETATM    5  C   UNL     1      44.278 -21.325   3.397  1.00  0.00     0.046 A 
HETATM    6  C   UNL     1      43.868 -19.991   3.502  1.00  0.00     0.052 A 
HETATM    7  C   UNL     1      44.337 -21.945   2.107  1.00  0.00     0.099 C 
HETATM    8  N   UNL     1      44.417 -22.401   1.042  1.00  0.00    -0.191 NA
ENDROOT
BRANCH   1   9
HETATM    9  N   UNL     1      43.460 -17.998   4.750  1.00  0.00    -0.309 N 
HETATM   10  C   UNL     1      43.554 -17.082   5.769  1.00  0.00     0.323 C 
HETATM   11  N   UNL     1      43.242 -15.782   5.369  1.00  0.00    -0.325 N 
HETATM   12  O   UNL     1      43.818 -17.365   6.933  1.00  0.00    -0.247 OA
HETATM   13  C   UNL     1      43.683 -15.161   4.109  1.00  0.00     0.122 C 
HETATM   14  C   UNL     1      43.095 -14.757   6.398  1.00  0.00     0.128 C 
HETATM   15  C   UNL     1      43.294 -13.688   4.273  1.00  0.00     0.032 C 
HETATM   16  C   UNL     1      43.550 -13.453   5.754  1.00  0.00     0.022 C 
HETATM   17  H   UNL     1      42.821 -17.719   4.025  1.00  0.00     0.170 HD
BRANCH  13  18
HETATM   18  C   UNL     1      43.152 -15.770   2.831  1.00  0.00    -0.034 A 
HETATM   19  C   UNL     1      43.829 -16.781   2.132  1.00  0.00     0.009 A 
HETATM   20  C   UNL     1      43.340 -17.249   0.906  1.00  0.00     0.002 A 
HETATM   21  C   UNL     1      42.172 -16.715   0.357  1.00  0.00     0.017 A 
HETATM   22  C   UNL     1      41.483 -15.715   1.046  1.00  0.00     0.033 A 
HETATM   23  C   UNL     1      41.966 -15.259   2.280  1.00  0.00     0.026 A 
BRANCH  22  24
HETATM   24  C   UNL     1      40.234 -15.100   0.529  1.00  0.00     0.257 C 
HETATM   25  N   UNL     1      40.311 -14.606  -0.756  1.00  0.00    -0.301 N 
HETATM   26  H   UNL     1      41.169 -14.636  -1.284  1.00  0.00     0.171 HD
HETATM   27  O   UNL     1      39.282 -15.026   1.295  1.00  0.00    -0.267 OA
BRANCH  25  28
HETATM   28  C   UNL     1      39.270 -13.906  -1.300  1.00  0.00     0.174 A 
HETATM   29  N   UNL     1      38.687 -12.819  -0.857  1.00  0.00    -0.228 NA
HETATM   30  C   UNL     1      37.714 -12.425  -1.733  1.00  0.00     0.050 A 
HETATM   31  C   UNL     1      36.922 -11.191  -1.484  1.00  0.00     0.062 C 
HETATM   32  C   UNL     1      37.573 -13.217  -2.852  1.00  0.00     0.013 A 
HETATM   33  C   UNL     1      35.696 -11.127  -2.411  1.00  0.00     0.039 C 
HETATM   34  C   UNL     1      36.062 -11.519  -3.858  1.00  0.00     0.191 C 
HETATM   35  C   UNL     1      36.592 -12.981  -3.944  1.00  0.00     0.081 C 
HETATM   36  S   UNL     1      38.669 -14.523  -2.783  1.00  0.00    -0.055 SA
BRANCH  34  37
HETATM   37  N   UNL     1      34.845 -11.384  -4.749  1.00  0.00    -0.071 N 
HETATM   38  H   UNL     1      35.144 -11.209  -5.719  1.00  0.00     0.277 HD
HETATM   39  H   UNL     1      34.318 -10.545  -4.466  1.00  0.00     0.277 HD
BRANCH  37  40
HETATM   40  C   UNL     1      33.894 -12.546  -4.725  1.00  0.00     0.232 C 
BRANCH  40  41
HETATM   41  C   UNL     1      32.481 -12.026  -4.499  1.00  0.00     0.023 C 
HETATM   42  C   UNL     1      32.100 -12.103  -3.028  1.00  0.00     0.007 C 
ENDBRANCH  40  41
ENDBRANCH  37  40
ENDBRANCH  34  37
ENDBRANCH  25  28
ENDBRANCH  22  24
ENDBRANCH  13  18
ENDBRANCH   1   9
TORSDOF 7
ENDMDL
MODEL 9
REMARK VINA RESULT:      -7.6      5.235      8.306
REMARK  7 active torsions:
REMARK  status: ('A' for Active; 'I' for Inactive)
REMARK    1  A    between atoms: C_2  and  C_3 
REMARK    2  A    between atoms: C_3  and  N_4 
REMARK    3  A    between atoms: N_4  and  C_7 
REMARK    4  A    between atoms: C_12  and  N_13 
REMARK       I    between atoms: N_13  and  C_14 
REMARK    5  A    between atoms: C_14  and  C_16 
REMARK    6  A    between atoms: C_20  and  C_22 
REMARK       I    between atoms: N_26  and  C_27 
REMARK       I    between atoms: C_27  and  N_29 
REMARK    7  A    between atoms: N_29  and  C_30 
ROOT
HETATM    1  C   UNL     1      38.988 -11.874  -2.220  1.00  0.00     0.037 A 
HETATM    2  C   UNL     1      37.678 -11.475  -2.479  1.00  0.00     0.029 A 
HETATM    3  C   UNL     1      36.822 -12.303  -3.214  1.00  0.00     0.004 A 
HETATM    4  C   UNL     1      37.270 -13.538  -3.686  1.00  0.00     0.023 A 
HETATM    5  C   UNL     1      38.577 -13.949  -3.420  1.00  0.00     0.046 A 
HETATM    6  C   UNL     1      39.433 -13.114  -2.691  1.00  0.00     0.052 A 
HETATM    7  C   UNL     1      39.043 -15.233  -3.850  1.00  0.00     0.099 C 
HETATM    8  N   UNL     1      39.438 -16.284  -4.144  1.00  0.00    -0.191 NA
ENDROOT
BRANCH   1   9
HETATM    9  N   UNL     1      39.899 -11.123  -1.461  1.00  0.00    -0.309 N 
HETATM   10  C   UNL     1      40.756 -10.134  -1.879  1.00  0.00     0.323 C 
HETATM   11  N   UNL     1      41.393  -9.478  -0.825  1.00  0.00    -0.325 N 
HETATM   12  O   UNL     1      41.003  -9.883  -3.054  1.00  0.00    -0.247 OA
HETATM   13  C   UNL     1      40.735  -9.061   0.426  1.00  0.00     0.122 C 
HETATM   14  C   UNL     1      42.482  -8.558  -1.138  1.00  0.00     0.128 C 
HETATM   15  C   UNL     1      41.787  -8.184   1.114  1.00  0.00     0.032 C 
HETATM   16  C   UNL     1      42.436  -7.477  -0.066  1.00  0.00     0.022 C 
HETATM   17  H   UNL     1      40.143 -11.504  -0.563  1.00  0.00     0.170 HD
BRANCH  13  18
HETATM   18  C   UNL     1      40.215 -10.166   1.318  1.00  0.00    -0.034 A 
HETATM   19  C   UNL     1      38.950 -10.122   1.923  1.00  0.00     0.009 A 
HETATM   20  C   UNL     1      38.551 -11.127   2.812  1.00  0.00     0.002 A 
HETATM   21  C   UNL     1      39.408 -12.189   3.114  1.00  0.00     0.017 A 
HETATM   22  C   UNL     1      40.665 -12.250   2.513  1.00  0.00     0.033 A 
HETATM   23  C   UNL     1      41.056 -11.251   1.611  1.00  0.00     0.026 A 
BRANCH  22  24
HETATM   24  C   UNL     1      41.630 -13.347   2.781  1.00  0.00     0.257 C 
HETATM   25  N   UNL     1      41.166 -14.347   3.609  1.00  0.00    -0.301 N 
HETATM   26  H   UNL     1      40.248 -14.307   4.024  1.00  0.00     0.171 HD
HETATM   27  O   UNL     1      42.753 -13.240   2.307  1.00  0.00    -0.267 OA
BRANCH  25  28
HETATM   28  C   UNL     1      41.998 -15.347   4.032  1.00  0.00     0.174 A 
HETATM   29  N   UNL     1      42.744 -15.398   5.107  1.00  0.00    -0.228 NA
HETATM   30  C   UNL     1      43.387 -16.603   5.170  1.00  0.00     0.050 A 
HETATM   31  C   UNL     1      44.273 -16.934   6.317  1.00  0.00     0.062 C 
HETATM   32  C   UNL     1      43.109 -17.472   4.136  1.00  0.00     0.013 A 
HETATM   33  C   UNL     1      45.121 -18.181   6.017  1.00  0.00     0.039 C 
HETATM   34  C   UNL     1      44.275 -19.293   5.361  1.00  0.00     0.191 C 
HETATM   35  C   UNL     1      43.680 -18.839   3.996  1.00  0.00     0.081 C 
HETATM   36  S   UNL     1      42.039 -16.737   3.029  1.00  0.00    -0.055 SA
BRANCH  34  37
HETATM   37  N   UNL     1      45.130 -20.524   5.139  1.00  0.00    -0.071 N 
HETATM   38  H   UNL     1      46.005 -20.439   5.677  1.00  0.00     0.277 HD
HETATM   39  H   UNL     1      45.415 -20.556   4.150  1.00  0.00     0.277 HD
BRANCH  37  40
HETATM   40  C   UNL     1      44.473 -21.834   5.464  1.00  0.00     0.232 C 
BRANCH  40  41
HETATM   41  C   UNL     1      44.738 -22.816   4.331  1.00  0.00     0.023 C 
HETATM   42  C   UNL     1      44.475 -22.172   2.978  1.00  0.00     0.007 C 
ENDBRANCH  40  41
ENDBRANCH  37  40
ENDBRANCH  34  37
ENDBRANCH  25  28
ENDBRANCH  22  24
ENDBRANCH  13  18
ENDBRANCH   1   9
TORSDOF 7
ENDMDL
MODEL 10
REMARK VINA RESULT:      -7.5      7.197     10.960
REMARK  7 active torsions:
REMARK  status: ('A' for Active; 'I' for Inactive)
REMARK    1  A    between atoms: C_2  and  C_3 
REMARK    2  A    between atoms: C_3  and  N_4 
REMARK    3  A    between atoms: N_4  and  C_7 
REMARK    4  A    between atoms: C_12  and  N_13 
REMARK       I    between atoms: N_13  and  C_14 
REMARK    5  A    between atoms: C_14  and  C_16 
REMARK    6  A    between atoms: C_20  and  C_22 
REMARK       I    between atoms: N_26  and  C_27 
REMARK       I    between atoms: C_27  and  N_29 
REMARK    7  A    between atoms: N_29  and  C_30 
ROOT
HETATM    1  C   UNL     1      43.482 -17.774   4.465  1.00  0.00     0.037 A 
HETATM    2  C   UNL     1      44.358 -18.082   5.506  1.00  0.00     0.029 A 
HETATM    3  C   UNL     1      45.036 -19.305   5.517  1.00  0.00     0.004 A 
HETATM    4  C   UNL     1      44.850 -20.223   4.482  1.00  0.00     0.023 A 
HETATM    5  C   UNL     1      43.985 -19.917   3.431  1.00  0.00     0.046 A 
HETATM    6  C   UNL     1      43.301 -18.695   3.428  1.00  0.00     0.052 A 
HETATM    7  C   UNL     1      43.816 -20.822   2.334  1.00  0.00     0.099 C 
HETATM    8  N   UNL     1      43.691 -21.511   1.408  1.00  0.00    -0.191 NA
ENDROOT
BRANCH   1   9
HETATM    9  N   UNL     1      42.792 -16.557   4.358  1.00  0.00    -0.309 N 
HETATM   10  C   UNL     1      42.638 -15.570   5.300  1.00  0.00     0.323 C 
HETATM   11  N   UNL     1      42.039 -14.416   4.792  1.00  0.00    -0.325 N 
HETATM   12  O   UNL     1      42.929 -15.692   6.485  1.00  0.00    -0.247 OA
HETATM   13  C   UNL     1      42.356 -13.806   3.490  1.00  0.00     0.122 C 
HETATM   14  C   UNL     1      41.626 -13.379   5.734  1.00  0.00     0.128 C 
HETATM   15  C   UNL     1      41.626 -12.459   3.531  1.00  0.00     0.032 C 
HETATM   16  C   UNL     1      41.778 -12.058   4.990  1.00  0.00     0.022 C 
HETATM   17  H   UNL     1      42.125 -16.494   3.607  1.00  0.00     0.170 HD
BRANCH  13  18
HETATM   18  C   UNL     1      42.020 -14.621   2.261  1.00  0.00    -0.034 A 
HETATM   19  C   UNL     1      42.832 -15.665   1.795  1.00  0.00     0.009 A 
HETATM   20  C   UNL     1      42.523 -16.330   0.602  1.00  0.00     0.002 A 
HETATM   21  C   UNL     1      41.402 -15.962  -0.146  1.00  0.00     0.017 A 
HETATM   22  C   UNL     1      40.580 -14.930   0.310  1.00  0.00     0.033 A 
HETATM   23  C   UNL     1      40.882 -14.278   1.513  1.00  0.00     0.026 A 
BRANCH  22  24
HETATM   24  C   UNL     1      39.370 -14.484  -0.427  1.00  0.00     0.257 C 
HETATM   25  N   UNL     1      39.469 -14.531  -1.800  1.00  0.00    -0.301 N 
HETATM   26  H   UNL     1      40.320 -14.817  -2.261  1.00  0.00     0.171 HD
HETATM   27  O   UNL     1      38.431 -14.060   0.234  1.00  0.00    -0.267 OA
BRANCH  25  28
HETATM   28  C   UNL     1      38.472 -14.030  -2.592  1.00  0.00     0.174 A 
HETATM   29  N   UNL     1      38.114 -12.783  -2.776  1.00  0.00    -0.228 NA
HETATM   30  C   UNL     1      37.095 -12.722  -3.686  1.00  0.00     0.050 A 
HETATM   31  C   UNL     1      36.526 -11.414  -4.103  1.00  0.00     0.062 C 
HETATM   32  C   UNL     1      36.693 -13.936  -4.201  1.00  0.00     0.013 A 
HETATM   33  C   UNL     1      35.207 -11.606  -4.869  1.00  0.00     0.039 C 
HETATM   34  C   UNL     1      35.312 -12.753  -5.896  1.00  0.00     0.191 C 
HETATM   35  C   UNL     1      35.615 -14.117  -5.209  1.00  0.00     0.081 C 
HETATM   36  S   UNL     1      37.594 -15.198  -3.489  1.00  0.00    -0.055 SA
BRANCH  34  37
HETATM   37  N   UNL     1      34.016 -12.870  -6.670  1.00  0.00    -0.071 N 
HETATM   38  H   UNL     1      33.404 -12.073  -6.441  1.00  0.00     0.277 HD
HETATM   39  H   UNL     1      33.512 -13.708  -6.350  1.00  0.00     0.277 HD
BRANCH  37  40
HETATM   40  C   UNL     1      34.162 -12.970  -8.161  1.00  0.00     0.232 C 
BRANCH  40  41
HETATM   41  C   UNL     1      35.577 -12.566  -8.550  1.00  0.00     0.023 C 
HETATM   42  C   UNL     1      36.249 -13.655  -9.373  1.00  0.00     0.007 C 
ENDBRANCH  40  41
ENDBRANCH  37  40
ENDBRANCH  34  37
ENDBRANCH  25  28
ENDBRANCH  22  24
ENDBRANCH  13  18
ENDBRANCH   1   9
TORSDOF 7
ENDMDL
