MODEL 1
REMARK VINA RESULT:      -9.7      0.000      0.000
REMARK  8 active torsions:
REMARK  status: ('A' for Active; 'I' for Inactive)
REMARK    1  A    between atoms: C_4  and  O_5 
REMARK    2  A    between atoms: O_5  and  C_6 
REMARK    3  A    between atoms: C_8  and  C_9 
REMARK    4  A    between atoms: C_9  and  N_10 
REMARK    5  A    between atoms: C_9  and  C_14 
REMARK       I    between atoms: N_10  and  C_11 
REMARK       I    between atoms: C_11  and  N_12 
REMARK    6  A    between atoms: C_14  and  C_15 
REMARK       I    between atoms: C_15  and  N_16 
REMARK    7  A    between atoms: N_16  and  N_17 
REMARK       I    between atoms: N_17  and  C_18 
REMARK    8  A    between atoms: C_18  and  C_19 
ROOT
HETATM    1  C   UNL     1      43.990 -14.607   6.612  1.00  0.00     0.128 C 
ENDROOT
BRANCH   1   2
HETATM    2  C   UNL     1      43.963 -16.126   6.758  1.00  0.00    -0.032 A 
HETATM    3  C   UNL     1      44.643 -16.983   5.875  1.00  0.00     0.046 A 
HETATM    4  C   UNL     1      44.594 -18.371   6.037  1.00  0.00     0.076 A 
HETATM    5  C   UNL     1      43.901 -18.927   7.111  1.00  0.00     0.037 A 
HETATM    6  C   UNL     1      43.201 -18.097   7.983  1.00  0.00     0.003 A 
HETATM    7  C   UNL     1      43.219 -16.712   7.799  1.00  0.00     0.009 A 
BRANCH   4   8
HETATM    8  O   UNL     1      45.321 -19.116   5.136  1.00  0.00    -0.311 OA
BRANCH   8   9
HETATM    9  C   UNL     1      44.664 -19.674   4.063  1.00  0.00     0.076 A 
HETATM   10  C   UNL     1      43.844 -18.945   3.197  1.00  0.00     0.037 A 
HETATM   11  C   UNL     1      43.241 -19.584   2.112  1.00  0.00     0.003 A 
HETATM   12  C   UNL     1      43.476 -20.940   1.879  1.00  0.00     0.000 A 
HETATM   13  C   UNL     1      44.320 -21.659   2.725  1.00  0.00     0.003 A 
HETATM   14  C   UNL     1      44.919 -21.024   3.814  1.00  0.00     0.037 A 
ENDBRANCH   8   9
ENDBRANCH   4   8
ENDBRANCH   1   2
BRANCH   1  15
HETATM   15  N   UNL     1      43.511 -14.150   5.312  1.00  0.00    -0.334 N 
HETATM   16  C   UNL     1      42.661 -13.091   5.214  1.00  0.00     0.314 C 
HETATM   17  N   UNL     1      42.433 -12.737   3.926  1.00  0.00    -0.352 N 
HETATM   18  O   UNL     1      42.141 -12.505   6.151  1.00  0.00    -0.248 OA
HETATM   19  H   UNL     1      42.434 -13.478   3.240  1.00  0.00     0.160 HD
HETATM   20  H   UNL     1      41.705 -12.042   3.814  1.00  0.00     0.160 HD
HETATM   21  H   UNL     1      44.204 -14.176   4.569  1.00  0.00     0.165 HD
ENDBRANCH   1  15
BRANCH   1  22
HETATM   22  C   UNL     1      45.374 -14.012   6.921  1.00  0.00     0.134 C 
BRANCH  22  23
HETATM   23  C   UNL     1      45.282 -12.954   8.000  1.00  0.00     0.238 C 
HETATM   24  N   UNL     1      44.044 -12.865   8.603  1.00  0.00    -0.267 N 
HETATM   25  H   UNL     1      43.403 -13.658   8.605  1.00  0.00     0.190 HD
HETATM   26  O   UNL     1      46.232 -12.229   8.296  1.00  0.00    -0.272 OA
BRANCH  24  27
HETATM   27  N   UNL     1      43.929 -12.019   9.710  1.00  0.00    -0.262 N 
HETATM   28  C   UNL     1      43.265 -10.816   9.565  1.00  0.00     0.288 C 
HETATM   29  O   UNL     1      42.909 -10.368   8.478  1.00  0.00    -0.264 OA
HETATM   30  H   UNL     1      44.042 -12.423  10.643  1.00  0.00     0.190 HD
BRANCH  28  31
HETATM   31  C   UNL     1      43.014 -10.100  10.854  1.00  0.00     0.125 A 
HETATM   32  N   UNL     1      42.100  -9.090  10.814  1.00  0.00    -0.255 NA
HETATM   33  C   UNL     1      41.859  -8.450  11.977  1.00  0.00     0.117 A 
HETATM   34  C   UNL     1      42.485  -8.764  13.174  1.00  0.00     0.019 A 
HETATM   35  C   UNL     1      43.418  -9.799  13.185  1.00  0.00     0.004 A 
HETATM   36  C   UNL     1      43.692 -10.484  12.005  1.00  0.00     0.037 A 
ENDBRANCH  28  31
ENDBRANCH  24  27
ENDBRANCH  22  23
ENDBRANCH   1  22
TORSDOF 8
ENDMDL
MODEL 2
REMARK VINA RESULT:      -9.3      1.202      1.610
REMARK  8 active torsions:
REMARK  status: ('A' for Active; 'I' for Inactive)
REMARK    1  A    between atoms: C_4  and  O_5 
REMARK    2  A    between atoms: O_5  and  C_6 
REMARK    3  A    between atoms: C_8  and  C_9 
REMARK    4  A    between atoms: C_9  and  N_10 
REMARK    5  A    between atoms: C_9  and  C_14 
REMARK       I    between atoms: N_10  and  C_11 
REMARK       I    between atoms: C_11  and  N_12 
REMARK    6  A    between atoms: C_14  and  C_15 
REMARK       I    between atoms: C_15  and  N_16 
REMARK    7  A    between atoms: N_16  and  N_17 
REMARK       I    between atoms: N_17  and  C_18 
REMARK    8  A    between atoms: C_18  and  C_19 
ROOT
HETATM    1  C   UNL     1      43.831 -14.473   6.531  1.00  0.00     0.128 C 
ENDROOT
BRANCH   1   2
HETATM    2  C   UNL     1      43.712 -15.994   6.578  1.00  0.00    -0.032 A 
HETATM    3  C   UNL     1      43.809 -16.796   5.428  1.00  0.00     0.046 A 
HETATM    4  C   UNL     1      43.692 -18.187   5.507  1.00  0.00     0.076 A 
HETATM    5  C   UNL     1      43.523 -18.807   6.745  1.00  0.00     0.037 A 
HETATM    6  C   UNL     1      43.400 -18.028   7.893  1.00  0.00     0.003 A 
HETATM    7  C   UNL     1      43.478 -16.636   7.808  1.00  0.00     0.009 A 
BRANCH   4   8
HETATM    8  O   UNL     1      43.835 -18.880   4.327  1.00  0.00    -0.311 OA
BRANCH   8   9
HETATM    9  C   UNL     1      43.378 -18.300   3.165  1.00  0.00     0.076 A 
HETATM   10  C   UNL     1      44.163 -18.146   2.019  1.00  0.00     0.037 A 
HETATM   11  C   UNL     1      43.609 -17.575   0.871  1.00  0.00     0.003 A 
HETATM   12  C   UNL     1      42.270 -17.183   0.860  1.00  0.00     0.000 A 
HETATM   13  C   UNL     1      41.479 -17.367   1.994  1.00  0.00     0.003 A 
HETATM   14  C   UNL     1      42.031 -17.931   3.145  1.00  0.00     0.037 A 
ENDBRANCH   8   9
ENDBRANCH   4   8
ENDBRANCH   1   2
BRANCH   1  15
HETATM   15  N   UNL     1      43.401 -13.907   5.257  1.00  0.00    -0.334 N 
HETATM   16  C   UNL     1      42.471 -12.913   5.214  1.00  0.00     0.314 C 
HETATM   17  N   UNL     1      42.298 -12.430   3.958  1.00  0.00    -0.352 N 
HETATM   18  O   UNL     1      41.841 -12.483   6.167  1.00  0.00    -0.248 OA
HETATM   19  H   UNL     1      42.409 -13.084   3.197  1.00  0.00     0.160 HD
HETATM   20  H   UNL     1      41.522 -11.787   3.870  1.00  0.00     0.160 HD
HETATM   21  H   UNL     1      44.141 -13.792   4.570  1.00  0.00     0.165 HD
ENDBRANCH   1  15
BRANCH   1  22
HETATM   22  C   UNL     1      45.242 -13.983   6.895  1.00  0.00     0.134 C 
BRANCH  22  23
HETATM   23  C   UNL     1      45.191 -12.959   8.009  1.00  0.00     0.238 C 
HETATM   24  N   UNL     1      43.931 -12.753   8.533  1.00  0.00    -0.267 N 
HETATM   25  H   UNL     1      43.209 -13.469   8.459  1.00  0.00     0.190 HD
HETATM   26  O   UNL     1      46.192 -12.355   8.398  1.00  0.00    -0.272 OA
BRANCH  24  27
HETATM   27  N   UNL     1      43.832 -11.938   9.664  1.00  0.00    -0.262 N 
HETATM   28  C   UNL     1      43.196 -10.716   9.554  1.00  0.00     0.288 C 
HETATM   29  O   UNL     1      42.853 -10.227   8.480  1.00  0.00    -0.264 OA
HETATM   30  H   UNL     1      43.933 -12.372  10.585  1.00  0.00     0.190 HD
BRANCH  28  31
HETATM   31  C   UNL     1      42.957 -10.034  10.863  1.00  0.00     0.125 A 
HETATM   32  N   UNL     1      41.938  -9.129  10.894  1.00  0.00    -0.255 NA
HETATM   33  C   UNL     1      41.710  -8.521  12.076  1.00  0.00     0.117 A 
HETATM   34  C   UNL     1      42.446  -8.767  13.225  1.00  0.00     0.019 A 
HETATM   35  C   UNL     1      43.484  -9.694  13.164  1.00  0.00     0.004 A 
HETATM   36  C   UNL     1      43.750 -10.343  11.962  1.00  0.00     0.037 A 
ENDBRANCH  28  31
ENDBRANCH  24  27
ENDBRANCH  22  23
ENDBRANCH   1  22
TORSDOF 8
ENDMDL
MODEL 3
REMARK VINA RESULT:      -9.3      1.826      2.874
REMARK  8 active torsions:
REMARK  status: ('A' for Active; 'I' for Inactive)
REMARK    1  A    between atoms: C_4  and  O_5 
REMARK    2  A    between atoms: O_5  and  C_6 
REMARK    3  A    between atoms: C_8  and  C_9 
REMARK    4  A    between atoms: C_9  and  N_10 
REMARK    5  A    between atoms: C_9  and  C_14 
REMARK       I    between atoms: N_10  and  C_11 
REMARK       I    between atoms: C_11  and  N_12 
REMARK    6  A    between atoms: C_14  and  C_15 
REMARK       I    between atoms: C_15  and  N_16 
REMARK    7  A    between atoms: N_16  and  N_17 
REMARK       I    between atoms: N_17  and  C_18 
REMARK    8  A    between atoms: C_18  and  C_19 
ROOT
HETATM    1  C   UNL     1      43.918 -15.555   6.161  1.00  0.00     0.128 C 
ENDROOT
BRANCH   1   2
HETATM    2  C   UNL     1      43.185 -16.238   5.009  1.00  0.00    -0.032 A 
HETATM    3  C   UNL     1      43.840 -17.065   4.081  1.00  0.00     0.046 A 
HETATM    4  C   UNL     1      43.138 -17.672   3.035  1.00  0.00     0.076 A 
HETATM    5  C   UNL     1      41.759 -17.500   2.924  1.00  0.00     0.037 A 
HETATM    6  C   UNL     1      41.096 -16.665   3.820  1.00  0.00     0.003 A 
HETATM    7  C   UNL     1      41.804 -16.028   4.842  1.00  0.00     0.009 A 
BRANCH   4   8
HETATM    8  O   UNL     1      43.869 -18.488   2.202  1.00  0.00    -0.311 OA
BRANCH   8   9
HETATM    9  C   UNL     1      44.135 -19.775   2.610  1.00  0.00     0.076 A 
HETATM   10  C   UNL     1      44.624 -20.096   3.879  1.00  0.00     0.037 A 
HETATM   11  C   UNL     1      44.834 -21.433   4.223  1.00  0.00     0.003 A 
HETATM   12  C   UNL     1      44.533 -22.446   3.311  1.00  0.00     0.000 A 
HETATM   13  C   UNL     1      44.014 -22.126   2.057  1.00  0.00     0.003 A 
HETATM   14  C   UNL     1      43.809 -20.790   1.709  1.00  0.00     0.037 A 
ENDBRANCH   8   9
ENDBRANCH   4   8
ENDBRANCH   1   2
BRANCH   1  15
HETATM   15  N   UNL     1      43.447 -15.987   7.473  1.00  0.00    -0.334 N 
HETATM   16  C   UNL     1      43.818 -17.194   7.984  1.00  0.00     0.314 C 
HETATM   17  N   UNL     1      43.388 -17.361   9.259  1.00  0.00    -0.352 N 
HETATM   18  O   UNL     1      44.456 -18.053   7.396  1.00  0.00    -0.248 OA
HETATM   19  H   UNL     1      42.509 -16.930   9.506  1.00  0.00     0.160 HD
HETATM   20  H   UNL     1      43.531 -18.296   9.621  1.00  0.00     0.160 HD
HETATM   21  H   UNL     1      43.402 -15.253   8.173  1.00  0.00     0.165 HD
ENDBRANCH   1  15
BRANCH   1  22
HETATM   22  C   UNL     1      43.886 -14.021   6.051  1.00  0.00     0.134 C 
BRANCH  22  23
HETATM   23  C   UNL     1      44.122 -13.374   7.400  1.00  0.00     0.238 C 
HETATM   24  N   UNL     1      43.235 -12.362   7.706  1.00  0.00    -0.267 N 
HETATM   25  H   UNL     1      42.315 -12.322   7.270  1.00  0.00     0.190 HD
HETATM   26  O   UNL     1      45.038 -13.720   8.146  1.00  0.00    -0.272 OA
BRANCH  24  27
HETATM   27  N   UNL     1      43.296 -11.825   8.995  1.00  0.00    -0.262 N 
HETATM   28  C   UNL     1      42.772 -10.567   9.219  1.00  0.00     0.288 C 
HETATM   29  O   UNL     1      42.400  -9.819   8.318  1.00  0.00    -0.264 OA
HETATM   30  H   UNL     1      43.423 -12.466   9.782  1.00  0.00     0.190 HD
BRANCH  28  31
HETATM   31  C   UNL     1      42.694 -10.188  10.664  1.00  0.00     0.125 A 
HETATM   32  N   UNL     1      41.466  -9.818  11.124  1.00  0.00    -0.255 NA
HETATM   33  C   UNL     1      41.387  -9.489  12.431  1.00  0.00     0.117 A 
HETATM   34  C   UNL     1      42.469  -9.508  13.297  1.00  0.00     0.019 A 
HETATM   35  C   UNL     1      43.714  -9.887  12.799  1.00  0.00     0.004 A 
HETATM   36  C   UNL     1      43.834 -10.235  11.457  1.00  0.00     0.037 A 
ENDBRANCH  28  31
ENDBRANCH  24  27
ENDBRANCH  22  23
ENDBRANCH   1  22
TORSDOF 8
ENDMDL
MODEL 4
REMARK VINA RESULT:      -9.2      2.405      3.478
REMARK  8 active torsions:
REMARK  status: ('A' for Active; 'I' for Inactive)
REMARK    1  A    between atoms: C_4  and  O_5 
REMARK    2  A    between atoms: O_5  and  C_6 
REMARK    3  A    between atoms: C_8  and  C_9 
REMARK    4  A    between atoms: C_9  and  N_10 
REMARK    5  A    between atoms: C_9  and  C_14 
REMARK       I    between atoms: N_10  and  C_11 
REMARK       I    between atoms: C_11  and  N_12 
REMARK    6  A    between atoms: C_14  and  C_15 
REMARK       I    between atoms: C_15  and  N_16 
REMARK    7  A    between atoms: N_16  and  N_17 
REMARK       I    between atoms: N_17  and  C_18 
REMARK    8  A    between atoms: C_18  and  C_19 
ROOT
HETATM    1  C   UNL     1      42.299 -14.792   3.110  1.00  0.00     0.128 C 
ENDROOT
BRANCH   1   2
HETATM    2  C   UNL     1      42.327 -16.099   3.898  1.00  0.00    -0.032 A 
HETATM    3  C   UNL     1      43.473 -16.907   3.981  1.00  0.00     0.046 A 
HETATM    4  C   UNL     1      43.461 -18.101   4.709  1.00  0.00     0.076 A 
HETATM    5  C   UNL     1      42.317 -18.486   5.406  1.00  0.00     0.037 A 
HETATM    6  C   UNL     1      41.164 -17.711   5.317  1.00  0.00     0.003 A 
HETATM    7  C   UNL     1      41.164 -16.538   4.558  1.00  0.00     0.009 A 
BRANCH   4   8
HETATM    8  O   UNL     1      44.646 -18.801   4.752  1.00  0.00    -0.311 OA
BRANCH   8   9
HETATM    9  C   UNL     1      44.663 -20.092   4.274  1.00  0.00     0.076 A 
HETATM   10  C   UNL     1      44.766 -21.217   5.097  1.00  0.00     0.037 A 
HETATM   11  C   UNL     1      44.743 -22.494   4.532  1.00  0.00     0.003 A 
HETATM   12  C   UNL     1      44.593 -22.646   3.153  1.00  0.00     0.000 A 
HETATM   13  C   UNL     1      44.458 -21.523   2.336  1.00  0.00     0.003 A 
HETATM   14  C   UNL     1      44.487 -20.246   2.898  1.00  0.00     0.037 A 
ENDBRANCH   8   9
ENDBRANCH   4   8
ENDBRANCH   1   2
BRANCH   1  15
HETATM   15  N   UNL     1      42.528 -14.981   1.682  1.00  0.00    -0.334 N 
HETATM   16  C   UNL     1      41.488 -15.224   0.836  1.00  0.00     0.314 C 
HETATM   17  N   UNL     1      41.881 -15.243  -0.462  1.00  0.00    -0.352 N 
HETATM   18  O   UNL     1      40.328 -15.412   1.166  1.00  0.00    -0.248 OA
HETATM   19  H   UNL     1      42.810 -15.587  -0.654  1.00  0.00     0.160 HD
HETATM   20  H   UNL     1      41.162 -15.551  -1.104  1.00  0.00     0.160 HD
HETATM   21  H   UNL     1      43.238 -14.377   1.280  1.00  0.00     0.165 HD
ENDBRANCH   1  15
BRANCH   1  22
HETATM   22  C   UNL     1      43.268 -13.742   3.681  1.00  0.00     0.134 C 
BRANCH  22  23
HETATM   23  C   UNL     1      42.911 -13.393   5.110  1.00  0.00     0.238 C 
HETATM   24  N   UNL     1      43.859 -13.770   6.040  1.00  0.00    -0.267 N 
HETATM   25  H   UNL     1      44.833 -13.903   5.771  1.00  0.00     0.190 HD
HETATM   26  O   UNL     1      41.856 -12.833   5.409  1.00  0.00    -0.272 OA
BRANCH  24  27
HETATM   27  N   UNL     1      43.669 -13.344   7.357  1.00  0.00    -0.262 N 
HETATM   28  C   UNL     1      44.757 -12.883   8.073  1.00  0.00     0.288 C 
HETATM   29  O   UNL     1      45.916 -12.976   7.676  1.00  0.00    -0.264 OA
HETATM   30  H   UNL     1      42.725 -13.084   7.652  1.00  0.00     0.190 HD
BRANCH  28  31
HETATM   31  C   UNL     1      44.402 -12.255   9.383  1.00  0.00     0.125 A 
HETATM   32  N   UNL     1      44.481 -13.060  10.479  1.00  0.00    -0.255 NA
HETATM   33  C   UNL     1      44.175 -12.494  11.665  1.00  0.00     0.117 A 
HETATM   34  C   UNL     1      43.792 -11.170  11.812  1.00  0.00     0.019 A 
HETATM   35  C   UNL     1      43.715 -10.370  10.674  1.00  0.00     0.004 A 
HETATM   36  C   UNL     1      44.025 -10.918   9.432  1.00  0.00     0.037 A 
ENDBRANCH  28  31
ENDBRANCH  24  27
ENDBRANCH  22  23
ENDBRANCH   1  22
TORSDOF 8
ENDMDL
MODEL 5
REMARK VINA RESULT:      -8.9      3.923      8.065
REMARK  8 active torsions:
REMARK  status: ('A' for Active; 'I' for Inactive)
REMARK    1  A    between atoms: C_4  and  O_5 
REMARK    2  A    between atoms: O_5  and  C_6 
REMARK    3  A    between atoms: C_8  and  C_9 
REMARK    4  A    between atoms: C_9  and  N_10 
REMARK    5  A    between atoms: C_9  and  C_14 
REMARK       I    between atoms: N_10  and  C_11 
REMARK       I    between atoms: C_11  and  N_12 
REMARK    6  A    between atoms: C_14  and  C_15 
REMARK       I    between atoms: C_15  and  N_16 
REMARK    7  A    between atoms: N_16  and  N_17 
REMARK       I    between atoms: N_17  and  C_18 
REMARK    8  A    between atoms: C_18  and  C_19 
ROOT
HETATM    1  C   UNL     1      43.003 -13.960   5.188  1.00  0.00     0.128 C 
ENDROOT
BRANCH   1   2
HETATM    2  C   UNL     1      42.690 -15.423   4.888  1.00  0.00    -0.032 A 
HETATM    3  C   UNL     1      43.410 -16.171   3.941  1.00  0.00     0.046 A 
HETATM    4  C   UNL     1      43.093 -17.509   3.688  1.00  0.00     0.076 A 
HETATM    5  C   UNL     1      42.081 -18.139   4.412  1.00  0.00     0.037 A 
HETATM    6  C   UNL     1      41.341 -17.408   5.337  1.00  0.00     0.003 A 
HETATM    7  C   UNL     1      41.632 -16.061   5.562  1.00  0.00     0.009 A 
BRANCH   4   8
HETATM    8  O   UNL     1      43.881 -18.159   2.765  1.00  0.00    -0.311 OA
BRANCH   8   9
HETATM    9  C   UNL     1      44.112 -19.506   2.931  1.00  0.00     0.076 A 
HETATM   10  C   UNL     1      44.686 -20.053   4.082  1.00  0.00     0.037 A 
HETATM   11  C   UNL     1      44.855 -21.436   4.181  1.00  0.00     0.003 A 
HETATM   12  C   UNL     1      44.431 -22.270   3.146  1.00  0.00     0.000 A 
HETATM   13  C   UNL     1      43.830 -21.724   2.012  1.00  0.00     0.003 A 
HETATM   14  C   UNL     1      43.665 -20.342   1.907  1.00  0.00     0.037 A 
ENDBRANCH   8   9
ENDBRANCH   4   8
ENDBRANCH   1   2
BRANCH   1  15
HETATM   15  N   UNL     1      43.134 -13.685   6.615  1.00  0.00    -0.334 N 
HETATM   16  C   UNL     1      44.356 -13.682   7.215  1.00  0.00     0.314 C 
HETATM   17  N   UNL     1      44.288 -13.282   8.509  1.00  0.00    -0.352 N 
HETATM   18  O   UNL     1      45.411 -14.000   6.689  1.00  0.00    -0.248 OA
HETATM   19  H   UNL     1      43.450 -13.520   9.018  1.00  0.00     0.160 HD
HETATM   20  H   UNL     1      45.155 -13.396   9.020  1.00  0.00     0.160 HD
HETATM   21  H   UNL     1      42.513 -12.964   6.969  1.00  0.00     0.165 HD
ENDBRANCH   1  15
BRANCH   1  22
HETATM   22  C   UNL     1      41.993 -12.998   4.540  1.00  0.00     0.134 C 
BRANCH  22  23
HETATM   23  C   UNL     1      41.962 -13.173   3.037  1.00  0.00     0.238 C 
HETATM   24  N   UNL     1      40.737 -13.562   2.535  1.00  0.00    -0.267 N 
HETATM   25  H   UNL     1      39.877 -13.372   3.048  1.00  0.00     0.190 HD
HETATM   26  O   UNL     1      42.956 -12.996   2.332  1.00  0.00    -0.272 OA
BRANCH  24  27
HETATM   27  N   UNL     1      40.594 -13.594   1.146  1.00  0.00    -0.262 N 
HETATM   28  C   UNL     1      40.711 -14.804   0.489  1.00  0.00     0.288 C 
HETATM   29  O   UNL     1      41.097 -15.834   1.036  1.00  0.00    -0.264 OA
HETATM   30  H   UNL     1      40.105 -12.819   0.690  1.00  0.00     0.190 HD
BRANCH  28  31
HETATM   31  C   UNL     1      40.324 -14.753  -0.955  1.00  0.00     0.125 A 
HETATM   32  N   UNL     1      39.363 -13.847  -1.290  1.00  0.00    -0.255 NA
HETATM   33  C   UNL     1      39.021 -13.788  -2.594  1.00  0.00     0.117 A 
HETATM   34  C   UNL     1      39.585 -14.587  -3.576  1.00  0.00     0.019 A 
HETATM   35  C   UNL     1      40.563 -15.508  -3.205  1.00  0.00     0.004 A 
HETATM   36  C   UNL     1      40.944 -15.597  -1.869  1.00  0.00     0.037 A 
ENDBRANCH  28  31
ENDBRANCH  24  27
ENDBRANCH  22  23
ENDBRANCH   1  22
TORSDOF 8
ENDMDL
MODEL 6
REMARK VINA RESULT:      -8.8      3.980      7.884
REMARK  8 active torsions:
REMARK  status: ('A' for Active; 'I' for Inactive)
REMARK    1  A    between atoms: C_4  and  O_5 
REMARK    2  A    between atoms: O_5  and  C_6 
REMARK    3  A    between atoms: C_8  and  C_9 
REMARK    4  A    between atoms: C_9  and  N_10 
REMARK    5  A    between atoms: C_9  and  C_14 
REMARK       I    between atoms: N_10  and  C_11 
REMARK       I    between atoms: C_11  and  N_12 
REMARK    6  A    between atoms: C_14  and  C_15 
REMARK       I    between atoms: C_15  and  N_16 
REMARK    7  A    between atoms: N_16  and  N_17 
REMARK       I    between atoms: N_17  and  C_18 
REMARK    8  A    between atoms: C_18  and  C_19 
ROOT
HETATM    1  C   UNL     1      42.168 -15.486   5.312  1.00  0.00     0.128 C 
ENDROOT
BRANCH   1   2
HETATM    2  C   UNL     1      42.908 -16.668   5.933  1.00  0.00    -0.032 A 
HETATM    3  C   UNL     1      43.766 -17.497   5.191  1.00  0.00     0.046 A 
HETATM    4  C   UNL     1      44.425 -18.573   5.792  1.00  0.00     0.076 A 
HETATM    5  C   UNL     1      44.275 -18.814   7.157  1.00  0.00     0.037 A 
HETATM    6  C   UNL     1      43.410 -18.019   7.904  1.00  0.00     0.003 A 
HETATM    7  C   UNL     1      42.722 -16.967   7.296  1.00  0.00     0.009 A 
BRANCH   4   8
HETATM    8  O   UNL     1      45.267 -19.302   4.983  1.00  0.00    -0.311 OA
BRANCH   8   9
HETATM    9  C   UNL     1      44.718 -20.040   3.959  1.00  0.00     0.076 A 
HETATM   10  C   UNL     1      44.133 -19.470   2.825  1.00  0.00     0.037 A 
HETATM   11  C   UNL     1      43.629 -20.294   1.816  1.00  0.00     0.003 A 
HETATM   12  C   UNL     1      43.731 -21.682   1.929  1.00  0.00     0.000 A 
HETATM   13  C   UNL     1      44.344 -22.248   3.047  1.00  0.00     0.003 A 
HETATM   14  C   UNL     1      44.843 -21.427   4.059  1.00  0.00     0.037 A 
ENDBRANCH   8   9
ENDBRANCH   4   8
ENDBRANCH   1   2
BRANCH   1  15
HETATM   15  N   UNL     1      42.080 -14.335   6.205  1.00  0.00    -0.334 N 
HETATM   16  C   UNL     1      42.154 -13.067   5.715  1.00  0.00     0.314 C 
HETATM   17  N   UNL     1      41.924 -12.136   6.674  1.00  0.00    -0.352 N 
HETATM   18  O   UNL     1      42.402 -12.760   4.560  1.00  0.00    -0.248 OA
HETATM   19  H   UNL     1      42.226 -12.360   7.611  1.00  0.00     0.160 HD
HETATM   20  H   UNL     1      42.103 -11.186   6.375  1.00  0.00     0.160 HD
HETATM   21  H   UNL     1      41.410 -14.433   6.962  1.00  0.00     0.165 HD
ENDBRANCH   1  15
BRANCH   1  22
HETATM   22  C   UNL     1      40.774 -15.875   4.789  1.00  0.00     0.134 C 
BRANCH  22  23
HETATM   23  C   UNL     1      40.769 -15.969   3.277  1.00  0.00     0.238 C 
HETATM   24  N   UNL     1      39.570 -15.618   2.692  1.00  0.00    -0.267 N 
HETATM   25  H   UNL     1      38.912 -15.004   3.171  1.00  0.00     0.190 HD
HETATM   26  O   UNL     1      41.751 -16.343   2.636  1.00  0.00    -0.272 OA
BRANCH  24  27
HETATM   27  N   UNL     1      39.538 -15.533   1.297  1.00  0.00    -0.262 N 
HETATM   28  C   UNL     1      39.860 -14.333   0.693  1.00  0.00     0.288 C 
HETATM   29  O   UNL     1      40.016 -13.285   1.315  1.00  0.00    -0.264 OA
HETATM   30  H   UNL     1      39.594 -16.400   0.757  1.00  0.00     0.190 HD
BRANCH  28  31
HETATM   31  C   UNL     1      40.005 -14.419  -0.793  1.00  0.00     0.125 A 
HETATM   32  N   UNL     1      39.109 -13.703  -1.528  1.00  0.00    -0.255 NA
HETATM   33  C   UNL     1      39.245 -13.765  -2.869  1.00  0.00     0.117 A 
HETATM   34  C   UNL     1      40.224 -14.507  -3.512  1.00  0.00     0.019 A 
HETATM   35  C   UNL     1      41.125 -15.233  -2.735  1.00  0.00     0.004 A 
HETATM   36  C   UNL     1      41.018 -15.192  -1.348  1.00  0.00     0.037 A 
ENDBRANCH  28  31
ENDBRANCH  24  27
ENDBRANCH  22  23
ENDBRANCH   1  22
TORSDOF 8
ENDMDL
MODEL 7
REMARK VINA RESULT:      -8.7      5.215      7.418
REMARK  8 active torsions:
REMARK  status: ('A' for Active; 'I' for Inactive)
REMARK    1  A    between atoms: C_4  and  O_5 
REMARK    2  A    between atoms: O_5  and  C_6 
REMARK    3  A    between atoms: C_8  and  C_9 
REMARK    4  A    between atoms: C_9  and  N_10 
REMARK    5  A    between atoms: C_9  and  C_14 
REMARK       I    between atoms: N_10  and  C_11 
REMARK       I    between atoms: C_11  and  N_12 
REMARK    6  A    between atoms: C_14  and  C_15 
REMARK       I    between atoms: C_15  and  N_16 
REMARK    7  A    between atoms: N_16  and  N_17 
REMARK       I    between atoms: N_17  and  C_18 
REMARK    8  A    between atoms: C_18  and  C_19 
ROOT
HETATM    1  C   UNL     1      41.597 -15.903   4.102  1.00  0.00     0.128 C 
ENDROOT
BRANCH   1   2
HETATM    2  C   UNL     1      42.352 -16.760   5.114  1.00  0.00    -0.032 A 
HETATM    3  C   UNL     1      43.455 -17.555   4.758  1.00  0.00     0.046 A 
HETATM    4  C   UNL     1      44.121 -18.331   5.711  1.00  0.00     0.076 A 
HETATM    5  C   UNL     1      43.727 -18.291   7.048  1.00  0.00     0.037 A 
HETATM    6  C   UNL     1      42.622 -17.529   7.416  1.00  0.00     0.003 A 
HETATM    7  C   UNL     1      41.932 -16.783   6.457  1.00  0.00     0.009 A 
BRANCH   4   8
HETATM    8  O   UNL     1      45.208 -19.048   5.263  1.00  0.00    -0.311 OA
BRANCH   8   9
HETATM    9  C   UNL     1      44.985 -20.242   4.616  1.00  0.00     0.076 A 
HETATM   10  C   UNL     1      44.824 -21.461   5.280  1.00  0.00     0.037 A 
HETATM   11  C   UNL     1      44.568 -22.622   4.547  1.00  0.00     0.003 A 
HETATM   12  C   UNL     1      44.449 -22.561   3.158  1.00  0.00     0.000 A 
HETATM   13  C   UNL     1      44.578 -21.338   2.499  1.00  0.00     0.003 A 
HETATM   14  C   UNL     1      44.840 -20.178   3.229  1.00  0.00     0.037 A 
ENDBRANCH   8   9
ENDBRANCH   4   8
ENDBRANCH   1   2
BRANCH   1  15
HETATM   15  N   UNL     1      41.995 -16.165   2.723  1.00  0.00    -0.334 N 
HETATM   16  C   UNL     1      41.089 -16.613   1.809  1.00  0.00     0.314 C 
HETATM   17  N   UNL     1      41.612 -16.674   0.560  1.00  0.00    -0.352 N 
HETATM   18  O   UNL     1      39.935 -16.936   2.047  1.00  0.00    -0.248 OA
HETATM   19  H   UNL     1      42.594 -16.899   0.485  1.00  0.00     0.160 HD
HETATM   20  H   UNL     1      41.010 -17.126  -0.116  1.00  0.00     0.160 HD
HETATM   21  H   UNL     1      42.657 -15.499   2.336  1.00  0.00     0.165 HD
ENDBRANCH   1  15
BRANCH   1  22
HETATM   22  C   UNL     1      41.692 -14.400   4.418  1.00  0.00     0.134 C 
BRANCH  22  23
HETATM   23  C   UNL     1      42.365 -13.649   3.289  1.00  0.00     0.238 C 
HETATM   24  N   UNL     1      41.496 -12.954   2.473  1.00  0.00    -0.267 N 
HETATM   25  H   UNL     1      40.580 -12.662   2.810  1.00  0.00     0.190 HD
HETATM   26  O   UNL     1      43.584 -13.673   3.115  1.00  0.00    -0.272 OA
BRANCH  24  27
HETATM   27  N   UNL     1      42.057 -12.116   1.505  1.00  0.00    -0.262 N 
HETATM   28  C   UNL     1      42.040 -12.516   0.183  1.00  0.00     0.288 C 
HETATM   29  O   UNL     1      41.706 -13.641  -0.178  1.00  0.00    -0.264 OA
HETATM   30  H   UNL     1      42.172 -11.124   1.731  1.00  0.00     0.190 HD
BRANCH  28  31
HETATM   31  C   UNL     1      42.464 -11.453  -0.780  1.00  0.00     0.125 A 
HETATM   32  N   UNL     1      43.293 -10.490  -0.288  1.00  0.00    -0.255 NA
HETATM   33  C   UNL     1      43.690  -9.537  -1.157  1.00  0.00     0.117 A 
HETATM   34  C   UNL     1      43.300  -9.494  -2.486  1.00  0.00     0.019 A 
HETATM   35  C   UNL     1      42.449 -10.489  -2.962  1.00  0.00     0.004 A 
HETATM   36  C   UNL     1      42.019 -11.491  -2.096  1.00  0.00     0.037 A 
ENDBRANCH  28  31
ENDBRANCH  24  27
ENDBRANCH  22  23
ENDBRANCH   1  22
TORSDOF 8
ENDMDL
MODEL 8
REMARK VINA RESULT:      -8.6      3.970      7.427
REMARK  8 active torsions:
REMARK  status: ('A' for Active; 'I' for Inactive)
REMARK    1  A    between atoms: C_4  and  O_5 
REMARK    2  A    between atoms: O_5  and  C_6 
REMARK    3  A    between atoms: C_8  and  C_9 
REMARK    4  A    between atoms: C_9  and  N_10 
REMARK    5  A    between atoms: C_9  and  C_14 
REMARK       I    between atoms: N_10  and  C_11 
REMARK       I    between atoms: C_11  and  N_12 
REMARK    6  A    between atoms: C_14  and  C_15 
REMARK       I    between atoms: C_15  and  N_16 
REMARK    7  A    between atoms: N_16  and  N_17 
REMARK       I    between atoms: N_17  and  C_18 
REMARK    8  A    between atoms: C_18  and  C_19 
ROOT
HETATM    1  C   UNL     1      43.045 -14.010   5.504  1.00  0.00     0.128 C 
ENDROOT
BRANCH   1   2
HETATM    2  C   UNL     1      42.752 -15.506   5.433  1.00  0.00    -0.032 A 
HETATM    3  C   UNL     1      43.745 -16.458   5.146  1.00  0.00     0.046 A 
HETATM    4  C   UNL     1      43.440 -17.821   5.085  1.00  0.00     0.076 A 
HETATM    5  C   UNL     1      42.146 -18.263   5.358  1.00  0.00     0.037 A 
HETATM    6  C   UNL     1      41.143 -17.334   5.621  1.00  0.00     0.003 A 
HETATM    7  C   UNL     1      41.439 -15.969   5.643  1.00  0.00     0.009 A 
BRANCH   4   8
HETATM    8  O   UNL     1      44.492 -18.671   4.828  1.00  0.00    -0.311 OA
BRANCH   8   9
HETATM    9  C   UNL     1      44.305 -19.694   3.926  1.00  0.00     0.076 A 
HETATM   10  C   UNL     1      43.781 -19.505   2.644  1.00  0.00     0.037 A 
HETATM   11  C   UNL     1      43.655 -20.594   1.779  1.00  0.00     0.003 A 
HETATM   12  C   UNL     1      44.073 -21.862   2.184  1.00  0.00     0.000 A 
HETATM   13  C   UNL     1      44.626 -22.043   3.452  1.00  0.00     0.003 A 
HETATM   14  C   UNL     1      44.747 -20.957   4.321  1.00  0.00     0.037 A 
ENDBRANCH   8   9
ENDBRANCH   4   8
ENDBRANCH   1   2
BRANCH   1  15
HETATM   15  N   UNL     1      43.203 -13.523   6.870  1.00  0.00    -0.334 N 
HETATM   16  C   UNL     1      44.430 -13.493   7.461  1.00  0.00     0.314 C 
HETATM   17  N   UNL     1      44.395 -12.892   8.676  1.00  0.00    -0.352 N 
HETATM   18  O   UNL     1      45.461 -13.946   6.990  1.00  0.00    -0.248 OA
HETATM   19  H   UNL     1      43.550 -13.002   9.218  1.00  0.00     0.160 HD
HETATM   20  H   UNL     1      45.259 -12.971   9.198  1.00  0.00     0.160 HD
HETATM   21  H   UNL     1      42.625 -12.723   7.107  1.00  0.00     0.165 HD
ENDBRANCH   1  15
BRANCH   1  22
HETATM   22  C   UNL     1      42.002 -13.171   4.746  1.00  0.00     0.134 C 
BRANCH  22  23
HETATM   23  C   UNL     1      42.440 -12.919   3.319  1.00  0.00     0.238 C 
HETATM   24  N   UNL     1      41.685 -11.976   2.652  1.00  0.00    -0.267 N 
HETATM   25  H   UNL     1      41.164 -11.264   3.163  1.00  0.00     0.190 HD
HETATM   26  O   UNL     1      43.382 -13.520   2.802  1.00  0.00    -0.272 OA
BRANCH  24  27
HETATM   27  N   UNL     1      42.125 -11.581   1.386  1.00  0.00    -0.262 N 
HETATM   28  C   UNL     1      41.509 -12.111   0.269  1.00  0.00     0.288 C 
HETATM   29  O   UNL     1      40.703 -13.037   0.317  1.00  0.00    -0.264 OA
HETATM   30  H   UNL     1      42.647 -10.704   1.305  1.00  0.00     0.190 HD
BRANCH  28  31
HETATM   31  C   UNL     1      41.910 -11.457  -1.016  1.00  0.00     0.125 A 
HETATM   32  N   UNL     1      41.278 -11.899  -2.139  1.00  0.00    -0.255 NA
HETATM   33  C   UNL     1      41.625 -11.302  -3.298  1.00  0.00     0.117 A 
HETATM   34  C   UNL     1      42.571 -10.293  -3.393  1.00  0.00     0.019 A 
HETATM   35  C   UNL     1      43.204  -9.864  -2.229  1.00  0.00     0.004 A 
HETATM   36  C   UNL     1      42.871 -10.454  -1.013  1.00  0.00     0.037 A 
ENDBRANCH  28  31
ENDBRANCH  24  27
ENDBRANCH  22  23
ENDBRANCH   1  22
TORSDOF 8
ENDMDL
MODEL 9
REMARK VINA RESULT:      -8.5      5.483      9.681
REMARK  8 active torsions:
REMARK  status: ('A' for Active; 'I' for Inactive)
REMARK    1  A    between atoms: C_4  and  O_5 
REMARK    2  A    between atoms: O_5  and  C_6 
REMARK    3  A    between atoms: C_8  and  C_9 
REMARK    4  A    between atoms: C_9  and  N_10 
REMARK    5  A    between atoms: C_9  and  C_14 
REMARK       I    between atoms: N_10  and  C_11 
REMARK       I    between atoms: C_11  and  N_12 
REMARK    6  A    between atoms: C_14  and  C_15 
REMARK       I    between atoms: C_15  and  N_16 
REMARK    7  A    between atoms: N_16  and  N_17 
REMARK       I    between atoms: N_17  and  C_18 
REMARK    8  A    between atoms: C_18  and  C_19 
ROOT
HETATM    1  C   UNL     1      43.647 -19.088   3.106  1.00  0.00     0.128 C 
ENDROOT
BRANCH   1   2
HETATM    2  C   UNL     1      43.774 -18.467   4.495  1.00  0.00    -0.032 A 
HETATM    3  C   UNL     1      42.806 -17.598   5.026  1.00  0.00     0.046 A 
HETATM    4  C   UNL     1      42.956 -17.044   6.301  1.00  0.00     0.076 A 
HETATM    5  C   UNL     1      44.054 -17.386   7.089  1.00  0.00     0.037 A 
HETATM    6  C   UNL     1      45.036 -18.227   6.572  1.00  0.00     0.003 A 
HETATM    7  C   UNL     1      44.905 -18.750   5.283  1.00  0.00     0.009 A 
BRANCH   4   8
HETATM    8  O   UNL     1      41.935 -16.230   6.737  1.00  0.00    -0.311 OA
BRANCH   8   9
HETATM    9  C   UNL     1      41.652 -15.090   6.020  1.00  0.00     0.076 A 
HETATM   10  C   UNL     1      42.608 -14.120   5.705  1.00  0.00     0.037 A 
HETATM   11  C   UNL     1      42.242 -13.008   4.944  1.00  0.00     0.003 A 
HETATM   12  C   UNL     1      40.933 -12.878   4.480  1.00  0.00     0.000 A 
HETATM   13  C   UNL     1      39.988 -13.862   4.768  1.00  0.00     0.003 A 
HETATM   14  C   UNL     1      40.349 -14.972   5.533  1.00  0.00     0.037 A 
ENDBRANCH   8   9
ENDBRANCH   4   8
ENDBRANCH   1   2
BRANCH   1  15
HETATM   15  N   UNL     1      44.453 -20.293   2.944  1.00  0.00    -0.334 N 
HETATM   16  C   UNL     1      43.999 -21.340   2.200  1.00  0.00     0.314 C 
HETATM   17  N   UNL     1      44.936 -22.310   2.061  1.00  0.00    -0.352 N 
HETATM   18  O   UNL     1      42.887 -21.435   1.705  1.00  0.00    -0.248 OA
HETATM   19  H   UNL     1      45.572 -22.447   2.833  1.00  0.00     0.160 HD
HETATM   20  H   UNL     1      44.589 -23.157   1.628  1.00  0.00     0.160 HD
HETATM   21  H   UNL     1      45.449 -20.129   2.838  1.00  0.00     0.165 HD
ENDBRANCH   1  15
BRANCH   1  22
HETATM   22  C   UNL     1      43.946 -18.080   1.983  1.00  0.00     0.134 C 
BRANCH  22  23
HETATM   23  C   UNL     1      42.674 -17.664   1.274  1.00  0.00     0.238 C 
HETATM   24  N   UNL     1      42.847 -16.663   0.340  1.00  0.00    -0.267 N 
HETATM   25  H   UNL     1      43.755 -16.505  -0.096  1.00  0.00     0.190 HD
HETATM   26  O   UNL     1      41.581 -18.171   1.528  1.00  0.00    -0.272 OA
BRANCH  24  27
HETATM   27  N   UNL     1      41.749 -16.336  -0.460  1.00  0.00    -0.262 N 
HETATM   28  C   UNL     1      41.342 -15.018  -0.530  1.00  0.00     0.288 C 
HETATM   29  O   UNL     1      41.787 -14.134   0.199  1.00  0.00    -0.264 OA
HETATM   30  H   UNL     1      41.478 -16.987  -1.201  1.00  0.00     0.190 HD
BRANCH  28  31
HETATM   31  C   UNL     1      40.307 -14.754  -1.577  1.00  0.00     0.125 A 
HETATM   32  N   UNL     1      39.316 -13.883  -1.238  1.00  0.00    -0.255 NA
HETATM   33  C   UNL     1      38.387 -13.631  -2.184  1.00  0.00     0.117 A 
HETATM   34  C   UNL     1      38.395 -14.206  -3.446  1.00  0.00     0.019 A 
HETATM   35  C   UNL     1      39.418 -15.097  -3.763  1.00  0.00     0.004 A 
HETATM   36  C   UNL     1      40.396 -15.381  -2.814  1.00  0.00     0.037 A 
ENDBRANCH  28  31
ENDBRANCH  24  27
ENDBRANCH  22  23
ENDBRANCH   1  22
TORSDOF 8
ENDMDL
MODEL 10
REMARK VINA RESULT:      -8.3      1.935      3.740
REMARK  8 active torsions:
REMARK  status: ('A' for Active; 'I' for Inactive)
REMARK    1  A    between atoms: C_4  and  O_5 
REMARK    2  A    between atoms: O_5  and  C_6 
REMARK    3  A    between atoms: C_8  and  C_9 
REMARK    4  A    between atoms: C_9  and  N_10 
REMARK    5  A    between atoms: C_9  and  C_14 
REMARK       I    between atoms: N_10  and  C_11 
REMARK       I    between atoms: C_11  and  N_12 
REMARK    6  A    between atoms: C_14  and  C_15 
REMARK       I    between atoms: C_15  and  N_16 
REMARK    7  A    between atoms: N_16  and  N_17 
REMARK       I    between atoms: N_17  and  C_18 
REMARK    8  A    between atoms: C_18  and  C_19 
ROOT
HETATM    1  C   UNL     1      42.595 -14.634   3.254  1.00  0.00     0.128 C 
ENDROOT
BRANCH   1   2
HETATM    2  C   UNL     1      42.721 -16.122   2.940  1.00  0.00    -0.032 A 
HETATM    3  C   UNL     1      43.675 -16.947   3.561  1.00  0.00     0.046 A 
HETATM    4  C   UNL     1      43.765 -18.306   3.247  1.00  0.00     0.076 A 
HETATM    5  C   UNL     1      42.873 -18.877   2.341  1.00  0.00     0.037 A 
HETATM    6  C   UNL     1      41.937 -18.072   1.698  1.00  0.00     0.003 A 
HETATM    7  C   UNL     1      41.872 -16.706   1.982  1.00  0.00     0.009 A 
BRANCH   4   8
HETATM    8  O   UNL     1      44.712 -19.030   3.936  1.00  0.00    -0.311 OA
BRANCH   8   9
HETATM    9  C   UNL     1      44.400 -19.490   5.195  1.00  0.00     0.076 A 
HETATM   10  C   UNL     1      44.109 -18.650   6.273  1.00  0.00     0.037 A 
HETATM   11  C   UNL     1      43.769 -19.202   7.510  1.00  0.00     0.003 A 
HETATM   12  C   UNL     1      43.696 -20.587   7.662  1.00  0.00     0.000 A 
HETATM   13  C   UNL     1      43.955 -21.424   6.577  1.00  0.00     0.003 A 
HETATM   14  C   UNL     1      44.301 -20.875   5.341  1.00  0.00     0.037 A 
ENDBRANCH   8   9
ENDBRANCH   4   8
ENDBRANCH   1   2
BRANCH   1  15
HETATM   15  N   UNL     1      42.389 -13.816   2.063  1.00  0.00    -0.334 N 
HETATM   16  C   UNL     1      41.463 -12.817   2.055  1.00  0.00     0.314 C 
HETATM   17  N   UNL     1      41.508 -12.090   0.912  1.00  0.00    -0.352 N 
HETATM   18  O   UNL     1      40.665 -12.576   2.947  1.00  0.00    -0.248 OA
HETATM   19  H   UNL     1      41.764 -12.579   0.067  1.00  0.00     0.160 HD
HETATM   20  H   UNL     1      40.748 -11.427   0.817  1.00  0.00     0.160 HD
HETATM   21  H   UNL     1      43.237 -13.578   1.557  1.00  0.00     0.165 HD
ENDBRANCH   1  15
BRANCH   1  22
HETATM   22  C   UNL     1      43.780 -14.104   4.079  1.00  0.00     0.134 C 
BRANCH  22  23
HETATM   23  C   UNL     1      43.362 -13.810   5.504  1.00  0.00     0.238 C 
HETATM   24  N   UNL     1      44.406 -13.773   6.405  1.00  0.00    -0.267 N 
HETATM   25  H   UNL     1      45.358 -13.575   6.097  1.00  0.00     0.190 HD
HETATM   26  O   UNL     1      42.186 -13.634   5.823  1.00  0.00    -0.272 OA
BRANCH  24  27
HETATM   27  N   UNL     1      44.115 -13.355   7.707  1.00  0.00    -0.262 N 
HETATM   28  C   UNL     1      45.085 -12.685   8.426  1.00  0.00     0.288 C 
HETATM   29  O   UNL     1      46.249 -12.574   8.049  1.00  0.00    -0.264 OA
HETATM   30  H   UNL     1      43.133 -13.265   7.979  1.00  0.00     0.190 HD
BRANCH  28  31
HETATM   31  C   UNL     1      44.594 -12.098   9.711  1.00  0.00     0.125 A 
HETATM   32  N   UNL     1      44.410 -12.972  10.740  1.00  0.00    -0.255 NA
HETATM   33  C   UNL     1      43.980 -12.447  11.906  1.00  0.00     0.117 A 
HETATM   34  C   UNL     1      43.723 -11.097  12.096  1.00  0.00     0.019 A 
HETATM   35  C   UNL     1      43.916 -10.227  11.025  1.00  0.00     0.004 A 
HETATM   36  C   UNL     1      44.360 -10.732   9.807  1.00  0.00     0.037 A 
ENDBRANCH  28  31
ENDBRANCH  24  27
ENDBRANCH  22  23
ENDBRANCH   1  22
TORSDOF 8
ENDMDL
