MODEL 1
REMARK VINA RESULT:     -10.2      0.000      0.000
REMARK  8 active torsions:
REMARK  status: ('A' for Active; 'I' for Inactive)
REMARK    1  A    between atoms: C_2  and  O_3 
REMARK    2  A    between atoms: C_2  and  C_14 
REMARK    3  A    between atoms: O_3  and  C_4 
REMARK       I    between atoms: C_14  and  N_15 
REMARK    4  A    between atoms: N_15  and  N_16 
REMARK       I    between atoms: N_16  and  C_17 
REMARK    5  A    between atoms: C_17  and  C_18 
REMARK    6  A    between atoms: C_18  and  C_19 
REMARK    7  A    between atoms: C_19  and  C_20 
REMARK    8  A    between atoms: C_20  and  C_21 
ROOT
HETATM    1  N   UNL     1      43.986 -14.115   7.799  1.00  0.00    -0.267 N 
HETATM    2  C   UNL     1      45.157 -13.402   7.593  1.00  0.00     0.236 C 
HETATM    3  O   UNL     1      45.970 -13.675   6.716  1.00  0.00    -0.272 OA
HETATM    4  H   UNL     1      43.210 -13.646   8.267  1.00  0.00     0.190 HD
ENDROOT
BRANCH   1   5
HETATM    5  N   UNL     1      43.588 -15.017   6.797  1.00  0.00    -0.265 N 
HETATM    6  C   UNL     1      42.646 -14.561   5.885  1.00  0.00     0.265 C 
HETATM    7  O   UNL     1      42.099 -13.464   6.011  1.00  0.00    -0.269 OA
HETATM    8  H   UNL     1      44.269 -15.726   6.534  1.00  0.00     0.190 HD
BRANCH   6   9
HETATM    9  C   UNL     1      42.315 -15.566   4.775  1.00  0.00     0.218 C 
HETATM   10  C   UNL     1      41.305 -16.589   5.281  1.00  0.00     0.050 C 
BRANCH   9  11
HETATM   11  O   UNL     1      43.571 -16.194   4.499  1.00  0.00    -0.337 OA
BRANCH  11  12
HETATM   12  C   UNL     1      43.605 -17.337   3.756  1.00  0.00     0.070 A 
HETATM   13  C   UNL     1      44.098 -18.452   4.442  1.00  0.00     0.049 A 
HETATM   14  C   UNL     1      44.189 -19.709   3.825  1.00  0.00    -0.023 A 
HETATM   15  C   UNL     1      43.760 -19.851   2.489  1.00  0.00    -0.026 A 
HETATM   16  C   UNL     1      44.698 -20.827   4.508  1.00  0.00     0.012 A 
HETATM   17  C   UNL     1      43.254 -18.729   1.812  1.00  0.00     0.015 A 
HETATM   18  C   UNL     1      43.844 -21.110   1.871  1.00  0.00     0.012 A 
HETATM   19  C   UNL     1      43.179 -17.480   2.440  1.00  0.00     0.037 A 
HETATM   20  C   UNL     1      44.353 -22.212   2.563  1.00  0.00     0.001 A 
HETATM   21  C   UNL     1      44.781 -22.070   3.879  1.00  0.00     0.001 A 
ENDBRANCH  11  12
ENDBRANCH   9  11
ENDBRANCH   6   9
ENDBRANCH   1   5
BRANCH   2  22
HETATM   22  C   UNL     1      45.327 -12.287   8.609  1.00  0.00     0.105 C 
BRANCH  22  23
HETATM   23  C   UNL     1      44.273 -12.287   9.713  1.00  0.00     0.014 C 
BRANCH  23  24
HETATM   24  C   UNL     1      44.679 -11.417  10.906  1.00  0.00     0.039 C 
BRANCH  24  25
HETATM   25  C   UNL     1      43.470 -10.779  11.550  1.00  0.00    -0.056 A 
HETATM   26  C   UNL     1      42.187 -11.045  11.041  1.00  0.00     0.039 A 
HETATM   27  C   UNL     1      41.130 -10.408  11.648  1.00  0.00     0.063 A 
HETATM   28  C   UNL     1      41.302  -9.532  12.716  1.00  0.00     0.063 A 
HETATM   29  N   UNL     1      39.771 -10.474  11.362  1.00  0.00    -0.306 N 
HETATM   30  N   UNL     1      40.049  -9.058  13.089  1.00  0.00    -0.307 N 
HETATM   31  C   UNL     1      42.540  -9.247  13.238  1.00  0.00     0.032 A 
HETATM   32  C   UNL     1      39.083  -9.635  12.252  1.00  0.00     0.325 A 
HETATM   33  H   UNL     1      39.836  -8.406  13.824  1.00  0.00     0.170 HD
HETATM   34  O   UNL     1      37.881  -9.445  12.291  1.00  0.00    -0.247 OA
HETATM   35  C   UNL     1      43.636  -9.883  12.640  1.00  0.00     0.009 A 
HETATM   36  H   UNL     1      39.325 -11.017  10.643  1.00  0.00     0.170 HD
ENDBRANCH  24  25
ENDBRANCH  23  24
ENDBRANCH  22  23
ENDBRANCH   2  22
TORSDOF 8
ENDMDL
MODEL 2
REMARK VINA RESULT:     -10.0      0.777      1.486
REMARK  8 active torsions:
REMARK  status: ('A' for Active; 'I' for Inactive)
REMARK    1  A    between atoms: C_2  and  O_3 
REMARK    2  A    between atoms: C_2  and  C_14 
REMARK    3  A    between atoms: O_3  and  C_4 
REMARK       I    between atoms: C_14  and  N_15 
REMARK    4  A    between atoms: N_15  and  N_16 
REMARK       I    between atoms: N_16  and  C_17 
REMARK    5  A    between atoms: C_17  and  C_18 
REMARK    6  A    between atoms: C_18  and  C_19 
REMARK    7  A    between atoms: C_19  and  C_20 
REMARK    8  A    between atoms: C_20  and  C_21 
ROOT
HETATM    1  N   UNL     1      44.396 -13.806   7.866  1.00  0.00    -0.267 N 
HETATM    2  C   UNL     1      45.498 -12.972   7.764  1.00  0.00     0.236 C 
HETATM    3  O   UNL     1      46.352 -13.083   6.891  1.00  0.00    -0.272 OA
HETATM    4  H   UNL     1      43.568 -13.459   8.352  1.00  0.00     0.190 HD
ENDROOT
BRANCH   1   5
HETATM    5  N   UNL     1      44.106 -14.638   6.770  1.00  0.00    -0.265 N 
HETATM    6  C   UNL     1      43.258 -14.121   5.800  1.00  0.00     0.265 C 
HETATM    7  O   UNL     1      42.694 -13.036   5.944  1.00  0.00    -0.269 OA
HETATM    8  H   UNL     1      44.815 -15.328   6.530  1.00  0.00     0.190 HD
BRANCH   6   9
HETATM    9  C   UNL     1      43.046 -15.050   4.598  1.00  0.00     0.218 C 
HETATM   10  C   UNL     1      42.024 -14.445   3.643  1.00  0.00     0.050 C 
BRANCH   9  11
HETATM   11  O   UNL     1      42.537 -16.252   5.183  1.00  0.00    -0.337 OA
BRANCH  11  12
HETATM   12  C   UNL     1      43.164 -17.438   4.942  1.00  0.00     0.070 A 
HETATM   13  C   UNL     1      42.836 -18.021   3.713  1.00  0.00     0.049 A 
HETATM   14  C   UNL     1      43.403 -19.238   3.306  1.00  0.00    -0.023 A 
HETATM   15  C   UNL     1      44.335 -19.878   4.150  1.00  0.00    -0.026 A 
HETATM   16  C   UNL     1      43.064 -19.832   2.078  1.00  0.00     0.012 A 
HETATM   17  C   UNL     1      44.668 -19.280   5.376  1.00  0.00     0.015 A 
HETATM   18  C   UNL     1      44.909 -21.094   3.741  1.00  0.00     0.012 A 
HETATM   19  C   UNL     1      44.085 -18.069   5.771  1.00  0.00     0.037 A 
HETATM   20  C   UNL     1      44.560 -21.672   2.518  1.00  0.00     0.001 A 
HETATM   21  C   UNL     1      43.638 -21.043   1.689  1.00  0.00     0.001 A 
ENDBRANCH  11  12
ENDBRANCH   9  11
ENDBRANCH   6   9
ENDBRANCH   1   5
BRANCH   2  22
HETATM   22  C   UNL     1      45.540 -11.951   8.887  1.00  0.00     0.105 C 
BRANCH  22  23
HETATM   23  C   UNL     1      44.365 -12.045   9.856  1.00  0.00     0.014 C 
BRANCH  23  24
HETATM   24  C   UNL     1      44.649 -11.341  11.186  1.00  0.00     0.039 C 
BRANCH  24  25
HETATM   25  C   UNL     1      43.395 -10.708  11.744  1.00  0.00    -0.056 A 
HETATM   26  C   UNL     1      42.151 -10.980  11.148  1.00  0.00     0.039 A 
HETATM   27  C   UNL     1      41.052 -10.348  11.679  1.00  0.00     0.063 A 
HETATM   28  C   UNL     1      41.146  -9.470  12.756  1.00  0.00     0.063 A 
HETATM   29  N   UNL     1      39.716 -10.419  11.300  1.00  0.00    -0.306 N 
HETATM   30  N   UNL     1      39.868  -9.001  13.040  1.00  0.00    -0.307 N 
HETATM   31  C   UNL     1      42.344  -9.178  13.362  1.00  0.00     0.032 A 
HETATM   32  C   UNL     1      38.965  -9.583  12.139  1.00  0.00     0.325 A 
HETATM   33  H   UNL     1      39.602  -8.349  13.758  1.00  0.00     0.170 HD
HETATM   34  O   UNL     1      37.762  -9.398  12.094  1.00  0.00    -0.247 OA
HETATM   35  C   UNL     1      43.481  -9.810  12.842  1.00  0.00     0.009 A 
HETATM   36  H   UNL     1      39.324 -10.965  10.552  1.00  0.00     0.170 HD
ENDBRANCH  24  25
ENDBRANCH  23  24
ENDBRANCH  22  23
ENDBRANCH   2  22
TORSDOF 8
ENDMDL
MODEL 3
REMARK VINA RESULT:      -9.9      4.829      8.476
REMARK  8 active torsions:
REMARK  status: ('A' for Active; 'I' for Inactive)
REMARK    1  A    between atoms: C_2  and  O_3 
REMARK    2  A    between atoms: C_2  and  C_14 
REMARK    3  A    between atoms: O_3  and  C_4 
REMARK       I    between atoms: C_14  and  N_15 
REMARK    4  A    between atoms: N_15  and  N_16 
REMARK       I    between atoms: N_16  and  C_17 
REMARK    5  A    between atoms: C_17  and  C_18 
REMARK    6  A    between atoms: C_18  and  C_19 
REMARK    7  A    between atoms: C_19  and  C_20 
REMARK    8  A    between atoms: C_20  and  C_21 
ROOT
HETATM    1  N   UNL     1      40.887 -14.428   6.097  1.00  0.00    -0.267 N 
HETATM    2  C   UNL     1      41.218 -13.179   5.594  1.00  0.00     0.236 C 
HETATM    3  O   UNL     1      42.341 -12.692   5.676  1.00  0.00    -0.272 OA
HETATM    4  H   UNL     1      40.086 -14.915   5.694  1.00  0.00     0.190 HD
ENDROOT
BRANCH   1   5
HETATM    5  N   UNL     1      41.941 -15.278   6.475  1.00  0.00    -0.265 N 
HETATM    6  C   UNL     1      41.634 -16.622   6.634  1.00  0.00     0.265 C 
HETATM    7  O   UNL     1      40.475 -17.034   6.563  1.00  0.00    -0.269 OA
HETATM    8  H   UNL     1      42.876 -14.985   6.196  1.00  0.00     0.190 HD
BRANCH   6   9
HETATM    9  C   UNL     1      42.843 -17.503   6.971  1.00  0.00     0.218 C 
HETATM   10  C   UNL     1      43.407 -17.119   8.333  1.00  0.00     0.050 C 
BRANCH   9  11
HETATM   11  O   UNL     1      43.782 -17.201   5.934  1.00  0.00    -0.337 OA
BRANCH  11  12
HETATM   12  C   UNL     1      43.841 -17.991   4.826  1.00  0.00     0.070 A 
HETATM   13  C   UNL     1      44.179 -19.324   5.088  1.00  0.00     0.049 A 
HETATM   14  C   UNL     1      44.271 -20.272   4.058  1.00  0.00    -0.023 A 
HETATM   15  C   UNL     1      44.003 -19.873   2.731  1.00  0.00    -0.026 A 
HETATM   16  C   UNL     1      44.625 -21.607   4.318  1.00  0.00     0.012 A 
HETATM   17  C   UNL     1      43.652 -18.537   2.479  1.00  0.00     0.015 A 
HETATM   18  C   UNL     1      44.088 -20.823   1.699  1.00  0.00     0.012 A 
HETATM   19  C   UNL     1      43.573 -17.601   3.517  1.00  0.00     0.037 A 
HETATM   20  C   UNL     1      44.442 -22.146   1.974  1.00  0.00     0.001 A 
HETATM   21  C   UNL     1      44.712 -22.537   3.281  1.00  0.00     0.001 A 
ENDBRANCH  11  12
ENDBRANCH   9  11
ENDBRANCH   6   9
ENDBRANCH   1   5
BRANCH   2  22
HETATM   22  C   UNL     1      40.018 -12.478   4.984  1.00  0.00     0.105 C 
BRANCH  22  23
HETATM   23  C   UNL     1      39.870 -12.697   3.480  1.00  0.00     0.014 C 
BRANCH  23  24
HETATM   24  C   UNL     1      39.522 -14.147   3.134  1.00  0.00     0.039 C 
BRANCH  24  25
HETATM   25  C   UNL     1      40.107 -14.543   1.798  1.00  0.00    -0.056 A 
HETATM   26  C   UNL     1      39.555 -14.024   0.614  1.00  0.00     0.039 A 
HETATM   27  C   UNL     1      40.107 -14.448  -0.571  1.00  0.00     0.063 A 
HETATM   28  C   UNL     1      41.163 -15.354  -0.619  1.00  0.00     0.063 A 
HETATM   29  N   UNL     1      39.771 -14.113  -1.879  1.00  0.00    -0.306 N 
HETATM   30  N   UNL     1      41.478 -15.578  -1.954  1.00  0.00    -0.307 N 
HETATM   31  C   UNL     1      41.726 -15.884   0.517  1.00  0.00     0.032 A 
HETATM   32  C   UNL     1      40.616 -14.811  -2.753  1.00  0.00     0.325 A 
HETATM   33  H   UNL     1      42.191 -16.184  -2.322  1.00  0.00     0.170 HD
HETATM   34  O   UNL     1      40.606 -14.761  -3.970  1.00  0.00    -0.247 OA
HETATM   35  C   UNL     1      41.183 -15.468   1.739  1.00  0.00     0.009 A 
HETATM   36  H   UNL     1      39.047 -13.483  -2.179  1.00  0.00     0.170 HD
ENDBRANCH  24  25
ENDBRANCH  23  24
ENDBRANCH  22  23
ENDBRANCH   2  22
TORSDOF 8
ENDMDL
MODEL 4
REMARK VINA RESULT:      -9.8      1.840      2.492
REMARK  8 active torsions:
REMARK  status: ('A' for Active; 'I' for Inactive)
REMARK    1  A    between atoms: C_2  and  O_3 
REMARK    2  A    between atoms: C_2  and  C_14 
REMARK    3  A    between atoms: O_3  and  C_4 
REMARK       I    between atoms: C_14  and  N_15 
REMARK    4  A    between atoms: N_15  and  N_16 
REMARK       I    between atoms: N_16  and  C_17 
REMARK    5  A    between atoms: C_17  and  C_18 
REMARK    6  A    between atoms: C_18  and  C_19 
REMARK    7  A    between atoms: C_19  and  C_20 
REMARK    8  A    between atoms: C_20  and  C_21 
ROOT
HETATM    1  N   UNL     1      43.682 -13.442   6.526  1.00  0.00    -0.267 N 
HETATM    2  C   UNL     1      44.354 -13.855   7.666  1.00  0.00     0.236 C 
HETATM    3  O   UNL     1      44.344 -15.011   8.077  1.00  0.00    -0.272 OA
HETATM    4  H   UNL     1      44.010 -12.603   6.047  1.00  0.00     0.190 HD
ENDROOT
BRANCH   1   5
HETATM    5  N   UNL     1      43.193 -14.438   5.662  1.00  0.00    -0.265 N 
HETATM    6  C   UNL     1      43.566 -14.347   4.329  1.00  0.00     0.265 C 
HETATM    7  O   UNL     1      44.198 -13.381   3.897  1.00  0.00    -0.269 OA
HETATM    8  H   UNL     1      42.988 -15.340   6.088  1.00  0.00     0.190 HD
BRANCH   6   9
HETATM    9  C   UNL     1      43.062 -15.505   3.460  1.00  0.00     0.218 C 
HETATM   10  C   UNL     1      41.886 -15.047   2.607  1.00  0.00     0.050 C 
BRANCH   9  11
HETATM   11  O   UNL     1      42.641 -16.487   4.412  1.00  0.00    -0.337 OA
BRANCH  11  12
HETATM   12  C   UNL     1      43.221 -17.720   4.412  1.00  0.00     0.070 A 
HETATM   13  C   UNL     1      43.059 -18.430   3.218  1.00  0.00     0.049 A 
HETATM   14  C   UNL     1      43.605 -19.712   3.048  1.00  0.00    -0.023 A 
HETATM   15  C   UNL     1      44.346 -20.288   4.102  1.00  0.00    -0.026 A 
HETATM   16  C   UNL     1      43.430 -20.433   1.855  1.00  0.00     0.012 A 
HETATM   17  C   UNL     1      44.515 -19.562   5.292  1.00  0.00     0.015 A 
HETATM   18  C   UNL     1      44.899 -21.568   3.932  1.00  0.00     0.012 A 
HETATM   19  C   UNL     1      43.955 -18.288   5.448  1.00  0.00     0.037 A 
HETATM   20  C   UNL     1      44.715 -22.272   2.740  1.00  0.00     0.001 A 
HETATM   21  C   UNL     1      43.980 -21.706   1.703  1.00  0.00     0.001 A 
ENDBRANCH  11  12
ENDBRANCH   9  11
ENDBRANCH   6   9
ENDBRANCH   1   5
BRANCH   2  22
HETATM   22  C   UNL     1      45.052 -12.699   8.361  1.00  0.00     0.105 C 
BRANCH  22  23
HETATM   23  C   UNL     1      44.616 -12.491   9.808  1.00  0.00     0.014 C 
BRANCH  23  24
HETATM   24  C   UNL     1      44.597 -11.011  10.203  1.00  0.00     0.039 C 
BRANCH  24  25
HETATM   25  C   UNL     1      43.672 -10.772  11.374  1.00  0.00    -0.056 A 
HETATM   26  C   UNL     1      44.006  -9.809  12.341  1.00  0.00     0.039 A 
HETATM   27  C   UNL     1      43.142  -9.661  13.401  1.00  0.00     0.063 A 
HETATM   28  C   UNL     1      41.986 -10.426  13.531  1.00  0.00     0.063 A 
HETATM   29  N   UNL     1      43.214  -8.804  14.493  1.00  0.00    -0.306 N 
HETATM   30  N   UNL     1      41.345 -10.040  14.703  1.00  0.00    -0.307 N 
HETATM   31  C   UNL     1      41.629 -11.378  12.608  1.00  0.00     0.032 A 
HETATM   32  C   UNL     1      42.101  -9.029  15.316  1.00  0.00     0.325 A 
HETATM   33  H   UNL     1      40.489 -10.407  15.081  1.00  0.00     0.170 HD
HETATM   34  O   UNL     1      41.839  -8.459  16.360  1.00  0.00    -0.247 OA
HETATM   35  C   UNL     1      42.491 -11.549  11.516  1.00  0.00     0.009 A 
HETATM   36  H   UNL     1      43.932  -8.128  14.691  1.00  0.00     0.170 HD
ENDBRANCH  24  25
ENDBRANCH  23  24
ENDBRANCH  22  23
ENDBRANCH   2  22
TORSDOF 8
ENDMDL
MODEL 5
REMARK VINA RESULT:      -9.5      2.432      3.934
REMARK  8 active torsions:
REMARK  status: ('A' for Active; 'I' for Inactive)
REMARK    1  A    between atoms: C_2  and  O_3 
REMARK    2  A    between atoms: C_2  and  C_14 
REMARK    3  A    between atoms: O_3  and  C_4 
REMARK       I    between atoms: C_14  and  N_15 
REMARK    4  A    between atoms: N_15  and  N_16 
REMARK       I    between atoms: N_16  and  C_17 
REMARK    5  A    between atoms: C_17  and  C_18 
REMARK    6  A    between atoms: C_18  and  C_19 
REMARK    7  A    between atoms: C_19  and  C_20 
REMARK    8  A    between atoms: C_20  and  C_21 
ROOT
HETATM    1  N   UNL     1      40.890 -12.240   6.046  1.00  0.00    -0.267 N 
HETATM    2  C   UNL     1      39.649 -11.623   6.051  1.00  0.00     0.236 C 
HETATM    3  O   UNL     1      38.613 -12.183   5.708  1.00  0.00    -0.272 OA
HETATM    4  H   UNL     1      41.616 -11.873   6.662  1.00  0.00     0.190 HD
ENDROOT
BRANCH   1   5
HETATM    5  N   UNL     1      40.921 -13.638   5.899  1.00  0.00    -0.265 N 
HETATM    6  C   UNL     1      41.947 -14.162   5.125  1.00  0.00     0.265 C 
HETATM    7  O   UNL     1      42.724 -13.436   4.501  1.00  0.00    -0.269 OA
HETATM    8  H   UNL     1      40.511 -14.179   6.657  1.00  0.00     0.190 HD
BRANCH   6   9
HETATM    9  C   UNL     1      41.967 -15.694   5.069  1.00  0.00     0.218 C 
HETATM   10  C   UNL     1      41.344 -16.272   6.333  1.00  0.00     0.050 C 
BRANCH   9  11
HETATM   11  O   UNL     1      43.360 -16.014   5.003  1.00  0.00    -0.337 OA
BRANCH  11  12
HETATM   12  C   UNL     1      43.747 -17.310   4.833  1.00  0.00     0.070 A 
HETATM   13  C   UNL     1      43.354 -17.872   3.614  1.00  0.00     0.049 A 
HETATM   14  C   UNL     1      43.681 -19.194   3.277  1.00  0.00    -0.023 A 
HETATM   15  C   UNL     1      44.438 -19.967   4.185  1.00  0.00    -0.026 A 
HETATM   16  C   UNL     1      43.274 -19.765   2.060  1.00  0.00     0.012 A 
HETATM   17  C   UNL     1      44.839 -19.390   5.401  1.00  0.00     0.015 A 
HETATM   18  C   UNL     1      44.773 -21.289   3.847  1.00  0.00     0.012 A 
HETATM   19  C   UNL     1      44.496 -18.072   5.725  1.00  0.00     0.037 A 
HETATM   20  C   UNL     1      44.359 -21.842   2.633  1.00  0.00     0.001 A 
HETATM   21  C   UNL     1      43.609 -21.082   1.741  1.00  0.00     0.001 A 
ENDBRANCH  11  12
ENDBRANCH   9  11
ENDBRANCH   6   9
ENDBRANCH   1   5
BRANCH   2  22
HETATM   22  C   UNL     1      39.741 -10.170   6.481  1.00  0.00     0.105 C 
BRANCH  22  23
HETATM   23  C   UNL     1      39.118  -9.885   7.844  1.00  0.00     0.014 C 
BRANCH  23  24
HETATM   24  C   UNL     1      39.997  -8.976   8.708  1.00  0.00     0.039 C 
BRANCH  24  25
HETATM   25  C   UNL     1      40.904  -9.788   9.604  1.00  0.00    -0.056 A 
HETATM   26  C   UNL     1      42.153 -10.220   9.124  1.00  0.00     0.039 A 
HETATM   27  C   UNL     1      42.918 -10.984   9.973  1.00  0.00     0.063 A 
HETATM   28  C   UNL     1      42.491 -11.330  11.253  1.00  0.00     0.063 A 
HETATM   29  N   UNL     1      44.174 -11.547   9.774  1.00  0.00    -0.306 N 
HETATM   30  N   UNL     1      43.484 -12.105  11.842  1.00  0.00    -0.307 N 
HETATM   31  C   UNL     1      41.277 -10.928  11.754  1.00  0.00     0.032 A 
HETATM   32  C   UNL     1      44.540 -12.250  10.930  1.00  0.00     0.325 A 
HETATM   33  H   UNL     1      43.476 -12.514  12.761  1.00  0.00     0.170 HD
HETATM   34  O   UNL     1      45.574 -12.869  11.110  1.00  0.00    -0.247 OA
HETATM   35  C   UNL     1      40.477 -10.147  10.910  1.00  0.00     0.009 A 
HETATM   36  H   UNL     1      44.746 -11.482   8.950  1.00  0.00     0.170 HD
ENDBRANCH  24  25
ENDBRANCH  23  24
ENDBRANCH  22  23
ENDBRANCH   2  22
TORSDOF 8
ENDMDL
MODEL 6
REMARK VINA RESULT:      -9.4      2.134      3.144
REMARK  8 active torsions:
REMARK  status: ('A' for Active; 'I' for Inactive)
REMARK    1  A    between atoms: C_2  and  O_3 
REMARK    2  A    between atoms: C_2  and  C_14 
REMARK    3  A    between atoms: O_3  and  C_4 
REMARK       I    between atoms: C_14  and  N_15 
REMARK    4  A    between atoms: N_15  and  N_16 
REMARK       I    between atoms: N_16  and  C_17 
REMARK    5  A    between atoms: C_17  and  C_18 
REMARK    6  A    between atoms: C_18  and  C_19 
REMARK    7  A    between atoms: C_19  and  C_20 
REMARK    8  A    between atoms: C_20  and  C_21 
ROOT
HETATM    1  N   UNL     1      41.013 -12.617   6.480  1.00  0.00    -0.267 N 
HETATM    2  C   UNL     1      39.771 -12.008   6.567  1.00  0.00     0.236 C 
HETATM    3  O   UNL     1      38.727 -12.547   6.214  1.00  0.00    -0.272 OA
HETATM    4  H   UNL     1      41.757 -12.292   7.098  1.00  0.00     0.190 HD
ENDROOT
BRANCH   1   5
HETATM    5  N   UNL     1      41.044 -14.001   6.228  1.00  0.00    -0.265 N 
HETATM    6  C   UNL     1      41.791 -14.420   5.136  1.00  0.00     0.265 C 
HETATM    7  O   UNL     1      42.306 -13.618   4.356  1.00  0.00    -0.269 OA
HETATM    8  H   UNL     1      40.912 -14.606   7.036  1.00  0.00     0.190 HD
BRANCH   6   9
HETATM    9  C   UNL     1      41.844 -15.944   4.966  1.00  0.00     0.218 C 
HETATM   10  C   UNL     1      41.051 -16.623   6.075  1.00  0.00     0.050 C 
BRANCH   9  11
HETATM   11  O   UNL     1      43.237 -16.250   5.082  1.00  0.00    -0.337 OA
BRANCH  11  12
HETATM   12  C   UNL     1      43.667 -17.526   4.870  1.00  0.00     0.070 A 
HETATM   13  C   UNL     1      43.272 -18.068   3.642  1.00  0.00     0.049 A 
HETATM   14  C   UNL     1      43.641 -19.368   3.262  1.00  0.00    -0.023 A 
HETATM   15  C   UNL     1      44.439 -20.137   4.135  1.00  0.00    -0.026 A 
HETATM   16  C   UNL     1      43.233 -19.918   2.036  1.00  0.00     0.012 A 
HETATM   17  C   UNL     1      44.841 -19.581   5.361  1.00  0.00     0.015 A 
HETATM   18  C   UNL     1      44.815 -21.437   3.755  1.00  0.00     0.012 A 
HETATM   19  C   UNL     1      44.456 -18.286   5.727  1.00  0.00     0.037 A 
HETATM   20  C   UNL     1      44.400 -21.970   2.532  1.00  0.00     0.001 A 
HETATM   21  C   UNL     1      43.609 -21.213   1.675  1.00  0.00     0.001 A 
ENDBRANCH  11  12
ENDBRANCH   9  11
ENDBRANCH   6   9
ENDBRANCH   1   5
BRANCH   2  22
HETATM   22  C   UNL     1      39.872 -10.591   7.100  1.00  0.00     0.105 C 
BRANCH  22  23
HETATM   23  C   UNL     1      40.245 -10.508   8.578  1.00  0.00     0.014 C 
BRANCH  23  24
HETATM   24  C   UNL     1      41.644  -9.923   8.793  1.00  0.00     0.039 C 
BRANCH  24  25
HETATM   25  C   UNL     1      42.039  -9.979  10.251  1.00  0.00    -0.056 A 
HETATM   26  C   UNL     1      41.062  -9.798  11.245  1.00  0.00     0.039 A 
HETATM   27  C   UNL     1      41.488  -9.825  12.552  1.00  0.00     0.063 A 
HETATM   28  C   UNL     1      42.824 -10.018  12.896  1.00  0.00     0.063 A 
HETATM   29  N   UNL     1      40.761  -9.674  13.727  1.00  0.00    -0.306 N 
HETATM   30  N   UNL     1      42.919  -9.985  14.283  1.00  0.00    -0.307 N 
HETATM   31  C   UNL     1      43.805 -10.196  11.952  1.00  0.00     0.032 A 
HETATM   32  C   UNL     1      41.639  -9.769  14.816  1.00  0.00     0.325 A 
HETATM   33  H   UNL     1      43.749 -10.088  14.842  1.00  0.00     0.170 HD
HETATM   34  O   UNL     1      41.349  -9.682  15.996  1.00  0.00    -0.247 OA
HETATM   35  C   UNL     1      43.399 -10.173  10.612  1.00  0.00     0.009 A 
HETATM   36  H   UNL     1      39.771  -9.517  13.815  1.00  0.00     0.170 HD
ENDBRANCH  24  25
ENDBRANCH  23  24
ENDBRANCH  22  23
ENDBRANCH   2  22
TORSDOF 8
ENDMDL
MODEL 7
REMARK VINA RESULT:      -9.4      1.716      2.547
REMARK  8 active torsions:
REMARK  status: ('A' for Active; 'I' for Inactive)
REMARK    1  A    between atoms: C_2  and  O_3 
REMARK    2  A    between atoms: C_2  and  C_14 
REMARK    3  A    between atoms: O_3  and  C_4 
REMARK       I    between atoms: C_14  and  N_15 
REMARK    4  A    between atoms: N_15  and  N_16 
REMARK       I    between atoms: N_16  and  C_17 
REMARK    5  A    between atoms: C_17  and  C_18 
REMARK    6  A    between atoms: C_18  and  C_19 
REMARK    7  A    between atoms: C_19  and  C_20 
REMARK    8  A    between atoms: C_20  and  C_21 
ROOT
HETATM    1  N   UNL     1      44.136 -13.263   7.856  1.00  0.00    -0.267 N 
HETATM    2  C   UNL     1      45.464 -12.982   7.575  1.00  0.00     0.236 C 
HETATM    3  O   UNL     1      46.040 -13.375   6.566  1.00  0.00    -0.272 OA
HETATM    4  H   UNL     1      43.630 -12.635   8.482  1.00  0.00     0.190 HD
ENDROOT
BRANCH   1   5
HETATM    5  N   UNL     1      43.348 -13.789   6.817  1.00  0.00    -0.265 N 
HETATM    6  C   UNL     1      42.385 -12.948   6.276  1.00  0.00     0.265 C 
HETATM    7  O   UNL     1      42.151 -11.838   6.755  1.00  0.00    -0.269 OA
HETATM    8  H   UNL     1      43.776 -14.523   6.257  1.00  0.00     0.190 HD
BRANCH   6   9
HETATM    9  C   UNL     1      41.615 -13.559   5.098  1.00  0.00     0.218 C 
HETATM   10  C   UNL     1      40.422 -12.682   4.741  1.00  0.00     0.050 C 
BRANCH   9  11
HETATM   11  O   UNL     1      41.176 -14.825   5.599  1.00  0.00    -0.337 OA
BRANCH  11  12
HETATM   12  C   UNL     1      41.630 -15.974   5.022  1.00  0.00     0.070 A 
HETATM   13  C   UNL     1      42.239 -15.787   3.776  1.00  0.00     0.049 A 
HETATM   14  C   UNL     1      42.770 -16.866   3.052  1.00  0.00    -0.023 A 
HETATM   15  C   UNL     1      42.701 -18.163   3.603  1.00  0.00    -0.026 A 
HETATM   16  C   UNL     1      43.368 -16.683   1.794  1.00  0.00     0.012 A 
HETATM   17  C   UNL     1      42.100 -18.339   4.860  1.00  0.00     0.015 A 
HETATM   18  C   UNL     1      43.238 -19.244   2.883  1.00  0.00     0.012 A 
HETATM   19  C   UNL     1      41.567 -17.253   5.565  1.00  0.00     0.037 A 
HETATM   20  C   UNL     1      43.828 -19.045   1.632  1.00  0.00     0.001 A 
HETATM   21  C   UNL     1      43.891 -17.767   1.088  1.00  0.00     0.001 A 
ENDBRANCH  11  12
ENDBRANCH   9  11
ENDBRANCH   6   9
ENDBRANCH   1   5
BRANCH   2  22
HETATM   22  C   UNL     1      46.120 -12.181   8.685  1.00  0.00     0.105 C 
BRANCH  22  23
HETATM   23  C   UNL     1      45.385 -12.254  10.021  1.00  0.00     0.014 C 
BRANCH  23  24
HETATM   24  C   UNL     1      45.247 -10.881  10.685  1.00  0.00     0.039 C 
BRANCH  24  25
HETATM   25  C   UNL     1      43.797 -10.462  10.769  1.00  0.00    -0.056 A 
HETATM   26  C   UNL     1      42.860 -11.008   9.875  1.00  0.00     0.039 A 
HETATM   27  C   UNL     1      41.564 -10.562   9.979  1.00  0.00     0.063 A 
HETATM   28  C   UNL     1      41.177  -9.608  10.918  1.00  0.00     0.063 A 
HETATM   29  N   UNL     1      40.440 -10.914   9.239  1.00  0.00    -0.306 N 
HETATM   30  N   UNL     1      39.816  -9.373  10.756  1.00  0.00    -0.307 N 
HETATM   31  C   UNL     1      42.065  -9.051  11.805  1.00  0.00     0.032 A 
HETATM   32  C   UNL     1      39.342 -10.180   9.711  1.00  0.00     0.325 A 
HETATM   33  H   UNL     1      39.239  -8.736  11.277  1.00  0.00     0.170 HD
HETATM   34  O   UNL     1      38.199 -10.232   9.294  1.00  0.00    -0.247 OA
HETATM   35  C   UNL     1      43.393  -9.489  11.722  1.00  0.00     0.009 A 
HETATM   36  H   UNL     1      40.392 -11.576   8.484  1.00  0.00     0.170 HD
ENDBRANCH  24  25
ENDBRANCH  23  24
ENDBRANCH  22  23
ENDBRANCH   2  22
TORSDOF 8
ENDMDL
MODEL 8
REMARK VINA RESULT:      -9.3      2.429      3.061
REMARK  8 active torsions:
REMARK  status: ('A' for Active; 'I' for Inactive)
REMARK    1  A    between atoms: C_2  and  O_3 
REMARK    2  A    between atoms: C_2  and  C_14 
REMARK    3  A    between atoms: O_3  and  C_4 
REMARK       I    between atoms: C_14  and  N_15 
REMARK    4  A    between atoms: N_15  and  N_16 
REMARK       I    between atoms: N_16  and  C_17 
REMARK    5  A    between atoms: C_17  and  C_18 
REMARK    6  A    between atoms: C_18  and  C_19 
REMARK    7  A    between atoms: C_19  and  C_20 
REMARK    8  A    between atoms: C_20  and  C_21 
ROOT
HETATM    1  N   UNL     1      42.114 -13.193   6.182  1.00  0.00    -0.267 N 
HETATM    2  C   UNL     1      42.151 -12.728   4.877  1.00  0.00     0.236 C 
HETATM    3  O   UNL     1      42.909 -13.173   4.021  1.00  0.00    -0.272 OA
HETATM    4  H   UNL     1      41.258 -13.057   6.721  1.00  0.00     0.190 HD
ENDROOT
BRANCH   1   5
HETATM    5  N   UNL     1      42.780 -14.399   6.463  1.00  0.00    -0.265 N 
HETATM    6  C   UNL     1      42.029 -15.563   6.370  1.00  0.00     0.265 C 
HETATM    7  O   UNL     1      40.814 -15.536   6.167  1.00  0.00    -0.269 OA
HETATM    8  H   UNL     1      43.783 -14.409   6.290  1.00  0.00     0.190 HD
BRANCH   6   9
HETATM    9  C   UNL     1      42.834 -16.845   6.614  1.00  0.00     0.218 C 
HETATM   10  C   UNL     1      43.466 -16.812   7.999  1.00  0.00     0.050 C 
BRANCH   9  11
HETATM   11  O   UNL     1      43.843 -16.811   5.599  1.00  0.00    -0.337 OA
BRANCH  11  12
HETATM   12  C   UNL     1      43.784 -17.690   4.559  1.00  0.00     0.070 A 
HETATM   13  C   UNL     1      44.240 -18.976   4.869  1.00  0.00     0.049 A 
HETATM   14  C   UNL     1      44.237 -20.004   3.914  1.00  0.00    -0.023 A 
HETATM   15  C   UNL     1      43.748 -19.736   2.618  1.00  0.00    -0.026 A 
HETATM   16  C   UNL     1      44.709 -21.292   4.219  1.00  0.00     0.012 A 
HETATM   17  C   UNL     1      43.280 -18.445   2.319  1.00  0.00     0.015 A 
HETATM   18  C   UNL     1      43.737 -20.765   1.661  1.00  0.00     0.012 A 
HETATM   19  C   UNL     1      43.299 -17.429   3.282  1.00  0.00     0.037 A 
HETATM   20  C   UNL     1      44.211 -22.040   1.980  1.00  0.00     0.001 A 
HETATM   21  C   UNL     1      44.698 -22.302   3.256  1.00  0.00     0.001 A 
ENDBRANCH  11  12
ENDBRANCH   9  11
ENDBRANCH   6   9
ENDBRANCH   1   5
BRANCH   2  22
HETATM   22  C   UNL     1      41.185 -11.578   4.658  1.00  0.00     0.105 C 
BRANCH  22  23
HETATM   23  C   UNL     1      41.310 -10.458   5.687  1.00  0.00     0.014 C 
BRANCH  23  24
HETATM   24  C   UNL     1      39.953 -10.038   6.259  1.00  0.00     0.039 C 
BRANCH  24  25
HETATM   25  C   UNL     1      40.002  -9.948   7.767  1.00  0.00    -0.056 A 
HETATM   26  C   UNL     1      40.015 -11.124   8.536  1.00  0.00     0.039 A 
HETATM   27  C   UNL     1      40.025 -10.977   9.903  1.00  0.00     0.063 A 
HETATM   28  C   UNL     1      40.018  -9.728  10.518  1.00  0.00     0.063 A 
HETATM   29  N   UNL     1      40.035 -11.945  10.901  1.00  0.00    -0.306 N 
HETATM   30  N   UNL     1      40.023  -9.926  11.894  1.00  0.00    -0.307 N 
HETATM   31  C   UNL     1      40.003  -8.557   9.799  1.00  0.00     0.032 A 
HETATM   32  C   UNL     1      40.033 -11.305  12.148  1.00  0.00     0.325 A 
HETATM   33  H   UNL     1      40.016  -9.223  12.613  1.00  0.00     0.170 HD
HETATM   34  O   UNL     1      40.037 -11.842  13.242  1.00  0.00    -0.247 OA
HETATM   35  C   UNL     1      39.993  -8.678   8.403  1.00  0.00     0.009 A 
HETATM   36  H   UNL     1      40.039 -12.943  10.781  1.00  0.00     0.170 HD
ENDBRANCH  24  25
ENDBRANCH  23  24
ENDBRANCH  22  23
ENDBRANCH   2  22
TORSDOF 8
ENDMDL
MODEL 9
REMARK VINA RESULT:      -9.3      2.150      2.650
REMARK  8 active torsions:
REMARK  status: ('A' for Active; 'I' for Inactive)
REMARK    1  A    between atoms: C_2  and  O_3 
REMARK    2  A    between atoms: C_2  and  C_14 
REMARK    3  A    between atoms: O_3  and  C_4 
REMARK       I    between atoms: C_14  and  N_15 
REMARK    4  A    between atoms: N_15  and  N_16 
REMARK       I    between atoms: N_16  and  C_17 
REMARK    5  A    between atoms: C_17  and  C_18 
REMARK    6  A    between atoms: C_18  and  C_19 
REMARK    7  A    between atoms: C_19  and  C_20 
REMARK    8  A    between atoms: C_20  and  C_21 
ROOT
HETATM    1  N   UNL     1      44.617 -13.463   8.092  1.00  0.00    -0.267 N 
HETATM    2  C   UNL     1      45.693 -12.622   8.326  1.00  0.00     0.236 C 
HETATM    3  O   UNL     1      46.702 -12.602   7.627  1.00  0.00    -0.272 OA
HETATM    4  H   UNL     1      43.702 -13.192   8.453  1.00  0.00     0.190 HD
ENDROOT
BRANCH   1   5
HETATM    5  N   UNL     1      44.567 -14.127   6.853  1.00  0.00    -0.265 N 
HETATM    6  C   UNL     1      43.524 -13.786   6.003  1.00  0.00     0.265 C 
HETATM    7  O   UNL     1      42.621 -13.027   6.357  1.00  0.00    -0.269 OA
HETATM    8  H   UNL     1      45.457 -14.455   6.484  1.00  0.00     0.190 HD
BRANCH   6   9
HETATM    9  C   UNL     1      43.574 -14.490   4.642  1.00  0.00     0.218 C 
HETATM   10  C   UNL     1      43.120 -13.538   3.543  1.00  0.00     0.050 C 
BRANCH   9  11
HETATM   11  O   UNL     1      42.647 -15.571   4.785  1.00  0.00    -0.337 OA
BRANCH  11  12
HETATM   12  C   UNL     1      42.772 -16.676   3.996  1.00  0.00     0.070 A 
HETATM   13  C   UNL     1      43.591 -17.675   4.533  1.00  0.00     0.049 A 
HETATM   14  C   UNL     1      43.816 -18.882   3.853  1.00  0.00    -0.023 A 
HETATM   15  C   UNL     1      43.189 -19.095   2.607  1.00  0.00    -0.026 A 
HETATM   16  C   UNL     1      44.650 -19.880   4.384  1.00  0.00     0.012 A 
HETATM   17  C   UNL     1      42.359 -18.092   2.081  1.00  0.00     0.015 A 
HETATM   18  C   UNL     1      43.408 -20.305   1.927  1.00  0.00     0.012 A 
HETATM   19  C   UNL     1      42.152 -16.890   2.769  1.00  0.00     0.037 A 
HETATM   20  C   UNL     1      44.241 -21.287   2.468  1.00  0.00     0.001 A 
HETATM   21  C   UNL     1      44.863 -21.074   3.694  1.00  0.00     0.001 A 
ENDBRANCH  11  12
ENDBRANCH   9  11
ENDBRANCH   6   9
ENDBRANCH   1   5
BRANCH   2  22
HETATM   22  C   UNL     1      45.489 -11.775   9.569  1.00  0.00     0.105 C 
BRANCH  22  23
HETATM   23  C   UNL     1      44.178 -12.051  10.300  1.00  0.00     0.014 C 
BRANCH  23  24
HETATM   24  C   UNL     1      43.586 -10.787  10.930  1.00  0.00     0.039 C 
BRANCH  24  25
HETATM   25  C   UNL     1      42.362 -10.325  10.174  1.00  0.00    -0.056 A 
HETATM   26  C   UNL     1      42.139 -10.780   8.862  1.00  0.00     0.039 A 
HETATM   27  C   UNL     1      41.028 -10.297   8.214  1.00  0.00     0.063 A 
HETATM   28  C   UNL     1      40.151  -9.393   8.810  1.00  0.00     0.063 A 
HETATM   29  N   UNL     1      40.562 -10.562   6.931  1.00  0.00    -0.306 N 
HETATM   30  N   UNL     1      39.147  -9.101   7.894  1.00  0.00    -0.307 N 
HETATM   31  C   UNL     1      40.339  -8.925  10.087  1.00  0.00     0.032 A 
HETATM   32  C   UNL     1      39.390  -9.823   6.716  1.00  0.00     0.325 A 
HETATM   33  H   UNL     1      38.367  -8.479   8.019  1.00  0.00     0.170 HD
HETATM   34  O   UNL     1      38.713  -9.809   5.703  1.00  0.00    -0.247 OA
HETATM   35  C   UNL     1      41.464  -9.401  10.772  1.00  0.00     0.009 A 
HETATM   36  H   UNL     1      40.975 -11.173   6.247  1.00  0.00     0.170 HD
ENDBRANCH  24  25
ENDBRANCH  23  24
ENDBRANCH  22  23
ENDBRANCH   2  22
TORSDOF 8
ENDMDL
MODEL 10
REMARK VINA RESULT:      -9.2      4.442      8.040
REMARK  8 active torsions:
REMARK  status: ('A' for Active; 'I' for Inactive)
REMARK    1  A    between atoms: C_2  and  O_3 
REMARK    2  A    between atoms: C_2  and  C_14 
REMARK    3  A    between atoms: O_3  and  C_4 
REMARK       I    between atoms: C_14  and  N_15 
REMARK    4  A    between atoms: N_15  and  N_16 
REMARK       I    between atoms: N_16  and  C_17 
REMARK    5  A    between atoms: C_17  and  C_18 
REMARK    6  A    between atoms: C_18  and  C_19 
REMARK    7  A    between atoms: C_19  and  C_20 
REMARK    8  A    between atoms: C_20  and  C_21 
ROOT
HETATM    1  N   UNL     1      40.150 -13.656   5.781  1.00  0.00    -0.267 N 
HETATM    2  C   UNL     1      40.119 -12.271   5.749  1.00  0.00     0.236 C 
HETATM    3  O   UNL     1      40.952 -11.562   6.303  1.00  0.00    -0.272 OA
HETATM    4  H   UNL     1      39.679 -14.169   5.035  1.00  0.00     0.190 HD
ENDROOT
BRANCH   1   5
HETATM    5  N   UNL     1      41.330 -14.270   6.239  1.00  0.00    -0.265 N 
HETATM    6  C   UNL     1      41.689 -15.464   5.630  1.00  0.00     0.265 C 
HETATM    7  O   UNL     1      40.956 -16.021   4.812  1.00  0.00    -0.269 OA
HETATM    8  H   UNL     1      42.035 -13.650   6.631  1.00  0.00     0.190 HD
BRANCH   6   9
HETATM    9  C   UNL     1      43.023 -16.039   6.123  1.00  0.00     0.218 C 
HETATM   10  C   UNL     1      43.860 -14.941   6.767  1.00  0.00     0.050 C 
BRANCH   9  11
HETATM   11  O   UNL     1      43.650 -16.515   4.928  1.00  0.00    -0.337 OA
BRANCH  11  12
HETATM   12  C   UNL     1      43.952 -17.839   4.806  1.00  0.00     0.070 A 
HETATM   13  C   UNL     1      43.664 -18.379   3.548  1.00  0.00     0.049 A 
HETATM   14  C   UNL     1      43.925 -19.726   3.252  1.00  0.00    -0.023 A 
HETATM   15  C   UNL     1      44.504 -20.547   4.243  1.00  0.00    -0.026 A 
HETATM   16  C   UNL     1      43.623 -20.273   1.994  1.00  0.00     0.012 A 
HETATM   17  C   UNL     1      44.801 -19.993   5.499  1.00  0.00     0.015 A 
HETATM   18  C   UNL     1      44.772 -21.894   3.947  1.00  0.00     0.012 A 
HETATM   19  C   UNL     1      44.526 -18.649   5.780  1.00  0.00     0.037 A 
HETATM   20  C   UNL     1      44.464 -22.423   2.692  1.00  0.00     0.001 A 
HETATM   21  C   UNL     1      43.889 -21.615   1.717  1.00  0.00     0.001 A 
ENDBRANCH  11  12
ENDBRANCH   9  11
ENDBRANCH   6   9
ENDBRANCH   1   5
BRANCH   2  22
HETATM   22  C   UNL     1      38.909 -11.750   4.994  1.00  0.00     0.105 C 
BRANCH  22  23
HETATM   23  C   UNL     1      39.227 -11.233   3.594  1.00  0.00     0.014 C 
BRANCH  23  24
HETATM   24  C   UNL     1      38.368 -11.901   2.517  1.00  0.00     0.039 C 
BRANCH  24  25
HETATM   25  C   UNL     1      39.192 -12.845   1.671  1.00  0.00    -0.056 A 
HETATM   26  C   UNL     1      39.930 -13.870   2.288  1.00  0.00     0.039 A 
HETATM   27  C   UNL     1      40.687 -14.674   1.470  1.00  0.00     0.063 A 
HETATM   28  C   UNL     1      40.738 -14.495   0.090  1.00  0.00     0.063 A 
HETATM   29  N   UNL     1      41.509 -15.749   1.793  1.00  0.00    -0.306 N 
HETATM   30  N   UNL     1      41.592 -15.457  -0.437  1.00  0.00    -0.307 N 
HETATM   31  C   UNL     1      40.034 -13.503  -0.547  1.00  0.00     0.032 A 
HETATM   32  C   UNL     1      42.082 -16.247   0.614  1.00  0.00     0.325 A 
HETATM   33  H   UNL     1      41.843 -15.590  -1.402  1.00  0.00     0.170 HD
HETATM   34  O   UNL     1      42.855 -17.183   0.519  1.00  0.00    -0.247 OA
HETATM   35  C   UNL     1      39.252 -12.669   0.263  1.00  0.00     0.009 A 
HETATM   36  H   UNL     1      41.687 -16.125   2.708  1.00  0.00     0.170 HD
ENDBRANCH  24  25
ENDBRANCH  23  24
ENDBRANCH  22  23
ENDBRANCH   2  22
TORSDOF 8
ENDMDL
