MODEL 1
REMARK VINA RESULT:     -10.1      0.000      0.000
REMARK  8 active torsions:
REMARK  status: ('A' for Active; 'I' for Inactive)
REMARK    1  A    between atoms: C_6  and  S_7 
REMARK    2  A    between atoms: S_7  and  C_8 
REMARK    3  A    between atoms: C_8  and  C_9 
REMARK       I    between atoms: C_9  and  N_10 
REMARK    4  A    between atoms: N_10  and  C_11 
REMARK    5  A    between atoms: C_24  and  C_25 
REMARK    6  A    between atoms: C_25  and  C_26 
REMARK       I    between atoms: C_26  and  N_27 
REMARK    7  A    between atoms: N_27  and  C_28 
REMARK    8  A    between atoms: C_28  and  C_29 
ROOT
HETATM    1  C   UNL     1      39.249 -10.952   4.723  1.00  0.00     0.001 A 
HETATM    2  C   UNL     1      39.945 -12.056   5.213  1.00  0.00     0.018 A 
HETATM    3  C   UNL     1      40.074 -13.190   4.409  1.00  0.00     0.039 A 
HETATM    4  C   UNL     1      39.517 -13.246   3.123  1.00  0.00     0.073 A 
HETATM    5  N   UNL     1      39.670 -14.364   2.280  1.00  0.00    -0.223 NA
HETATM    6  C   UNL     1      40.316 -15.385   2.747  1.00  0.00     0.178 C 
HETATM    7  N   UNL     1      40.792 -15.455   4.044  1.00  0.00    -0.241 N 
HETATM    8  C   UNL     1      40.772 -14.388   4.878  1.00  0.00     0.147 C 
HETATM    9  N   UNL     1      41.370 -14.512   6.023  1.00  0.00    -0.256 NA
HETATM   10  C   UNL     1      41.316 -16.514   4.742  1.00  0.00     0.257 C 
HETATM   11  O   UNL     1      41.240 -17.702   4.477  1.00  0.00    -0.270 OA
HETATM   12  C   UNL     1      41.882 -15.920   6.022  1.00  0.00     0.211 C 
HETATM   13  C   UNL     1      38.827 -12.132   2.647  1.00  0.00     0.032 A 
HETATM   14  C   UNL     1      38.692 -10.990   3.443  1.00  0.00     0.002 A 
ENDROOT
BRANCH  12  15
HETATM   15  C   UNL     1      43.406 -15.931   6.001  1.00  0.00     0.140 C 
BRANCH  15  16
HETATM   16  C   UNL     1      43.896 -15.211   7.237  1.00  0.00     0.220 C 
HETATM   17  N   UNL     1      44.269 -13.906   7.017  1.00  0.00    -0.357 N 
HETATM   18  H   UNL     1      43.996 -13.426   6.171  1.00  0.00     0.162 HD
HETATM   19  O   UNL     1      44.035 -15.799   8.305  1.00  0.00    -0.274 OA
BRANCH  17  20
HETATM   20  C   UNL     1      45.113 -13.189   7.948  1.00  0.00     0.161 C 
BRANCH  20  21
HETATM   21  C   UNL     1      44.334 -12.366   8.939  1.00  0.00    -0.038 A 
HETATM   22  C   UNL     1      43.390 -11.423   8.499  1.00  0.00     0.048 A 
HETATM   23  C   UNL     1      42.765 -10.638   9.447  1.00  0.00     0.105 A 
HETATM   24  C   UNL     1      43.033 -10.768  10.790  1.00  0.00     0.105 A 
HETATM   25  O   UNL     1      41.856  -9.659   9.193  1.00  0.00    -0.323 OA
HETATM   26  O   UNL     1      42.327  -9.887  11.548  1.00  0.00    -0.323 OA
HETATM   27  C   UNL     1      43.936 -11.692  11.263  1.00  0.00     0.040 A 
HETATM   28  C   UNL     1      41.616  -9.160  10.526  1.00  0.00     0.352 A 
HETATM   29  C   UNL     1      44.594 -12.493  10.324  1.00  0.00     0.012 A 
ENDBRANCH  20  21
ENDBRANCH  17  20
ENDBRANCH  15  16
ENDBRANCH  12  15
BRANCH   6  30
HETATM   30  S   UNL     1      40.701 -16.687   1.658  1.00  0.00    -0.082 SA
BRANCH  30  31
HETATM   31  C   UNL     1      42.357 -16.167   1.155  1.00  0.00     0.185 C 
BRANCH  31  32
HETATM   32  C   UNL     1      43.353 -17.252   1.521  1.00  0.00     0.231 C 
HETATM   33  N   UNL     1      42.753 -18.383   2.053  1.00  0.00    -0.327 N 
HETATM   34  H   UNL     1      41.741 -18.384   2.109  1.00  0.00     0.169 HD
HETATM   35  O   UNL     1      44.557 -17.080   1.352  1.00  0.00    -0.272 OA
BRANCH  33  36
HETATM   36  C   UNL     1      43.393 -19.559   2.494  1.00  0.00     0.034 A 
HETATM   37  C   UNL     1      44.105 -19.657   3.693  1.00  0.00     0.032 A 
HETATM   38  C   UNL     1      44.715 -20.860   4.060  1.00  0.00     0.044 A 
HETATM   39  C   UNL     1      44.603 -21.967   3.229  1.00  0.00     0.116 A 
HETATM   40  F   UNL     1      45.181 -23.122   3.583  1.00  0.00    -0.206 F 
HETATM   41  C   UNL     1      43.900 -21.891   2.035  1.00  0.00     0.044 A 
HETATM   42  C   UNL     1      43.303 -20.684   1.662  1.00  0.00     0.032 A 
ENDBRANCH  33  36
ENDBRANCH  31  32
ENDBRANCH  30  31
ENDBRANCH   6  30
TORSDOF 8
ENDMDL
MODEL 2
REMARK VINA RESULT:      -9.9      3.475      9.549
REMARK  8 active torsions:
REMARK  status: ('A' for Active; 'I' for Inactive)
REMARK    1  A    between atoms: C_6  and  S_7 
REMARK    2  A    between atoms: S_7  and  C_8 
REMARK    3  A    between atoms: C_8  and  C_9 
REMARK       I    between atoms: C_9  and  N_10 
REMARK    4  A    between atoms: N_10  and  C_11 
REMARK    5  A    between atoms: C_24  and  C_25 
REMARK    6  A    between atoms: C_25  and  C_26 
REMARK       I    between atoms: C_26  and  N_27 
REMARK    7  A    between atoms: N_27  and  C_28 
REMARK    8  A    between atoms: C_28  and  C_29 
ROOT
HETATM    1  C   UNL     1      43.043 -18.158   7.086  1.00  0.00     0.001 A 
HETATM    2  C   UNL     1      42.283 -17.732   5.998  1.00  0.00     0.018 A 
HETATM    3  C   UNL     1      42.169 -16.364   5.743  1.00  0.00     0.039 A 
HETATM    4  C   UNL     1      42.797 -15.409   6.556  1.00  0.00     0.073 A 
HETATM    5  N   UNL     1      42.730 -14.028   6.293  1.00  0.00    -0.223 NA
HETATM    6  C   UNL     1      42.017 -13.643   5.282  1.00  0.00     0.178 C 
HETATM    7  N   UNL     1      41.271 -14.510   4.503  1.00  0.00    -0.241 N 
HETATM    8  C   UNL     1      41.365 -15.855   4.631  1.00  0.00     0.147 C 
HETATM    9  N   UNL     1      40.736 -16.583   3.761  1.00  0.00    -0.256 NA
HETATM   10  C   UNL     1      40.333 -14.252   3.536  1.00  0.00     0.257 C 
HETATM   11  O   UNL     1      39.740 -13.207   3.323  1.00  0.00    -0.270 OA
HETATM   12  C   UNL     1      40.049 -15.590   2.874  1.00  0.00     0.211 C 
HETATM   13  C   UNL     1      43.557 -15.853   7.638  1.00  0.00     0.032 A 
HETATM   14  C   UNL     1      43.679 -17.221   7.904  1.00  0.00     0.002 A 
ENDROOT
BRANCH  12  15
HETATM   15  C   UNL     1      40.635 -15.639   1.468  1.00  0.00     0.140 C 
BRANCH  15  16
HETATM   16  C   UNL     1      41.307 -16.981   1.288  1.00  0.00     0.220 C 
HETATM   17  N   UNL     1      42.674 -16.950   1.437  1.00  0.00    -0.357 N 
HETATM   18  H   UNL     1      43.129 -16.160   1.872  1.00  0.00     0.162 HD
HETATM   19  O   UNL     1      40.672 -17.971   0.936  1.00  0.00    -0.274 OA
BRANCH  17  20
HETATM   20  C   UNL     1      43.518 -18.008   0.928  1.00  0.00     0.161 C 
BRANCH  20  21
HETATM   21  C   UNL     1      43.969 -18.970   1.995  1.00  0.00    -0.038 A 
HETATM   22  C   UNL     1      43.968 -20.355   1.755  1.00  0.00     0.048 A 
HETATM   23  C   UNL     1      44.312 -21.195   2.795  1.00  0.00     0.105 A 
HETATM   24  C   UNL     1      44.663 -20.712   4.035  1.00  0.00     0.105 A 
HETATM   25  O   UNL     1      44.330 -22.554   2.744  1.00  0.00    -0.323 OA
HETATM   26  O   UNL     1      44.945 -21.706   4.918  1.00  0.00    -0.323 OA
HETATM   27  C   UNL     1      44.694 -19.363   4.304  1.00  0.00     0.040 A 
HETATM   28  C   UNL     1      44.690 -22.870   4.107  1.00  0.00     0.352 A 
HETATM   29  C   UNL     1      44.338 -18.488   3.273  1.00  0.00     0.012 A 
ENDBRANCH  20  21
ENDBRANCH  17  20
ENDBRANCH  15  16
ENDBRANCH  12  15
BRANCH   6  30
HETATM   30  S   UNL     1      42.090 -11.969   4.810  1.00  0.00    -0.082 SA
BRANCH  30  31
HETATM   31  C   UNL     1      40.876 -11.287   5.962  1.00  0.00     0.185 C 
BRANCH  31  32
HETATM   32  C   UNL     1      41.600 -10.539   7.066  1.00  0.00     0.231 C 
HETATM   33  N   UNL     1      41.864 -11.329   8.175  1.00  0.00    -0.327 N 
HETATM   34  H   UNL     1      41.585 -12.302   8.123  1.00  0.00     0.169 HD
HETATM   35  O   UNL     1      41.884  -9.352   6.937  1.00  0.00    -0.272 OA
BRANCH  33  36
HETATM   36  C   UNL     1      42.514 -10.939   9.363  1.00  0.00     0.034 A 
HETATM   37  C   UNL     1      43.889 -11.070   9.579  1.00  0.00     0.032 A 
HETATM   38  C   UNL     1      44.459 -10.661  10.789  1.00  0.00     0.044 A 
HETATM   39  C   UNL     1      43.653 -10.112  11.776  1.00  0.00     0.116 A 
HETATM   40  F   UNL     1      44.199  -9.714  12.932  1.00  0.00    -0.206 F 
HETATM   41  C   UNL     1      42.285  -9.973  11.581  1.00  0.00     0.044 A 
HETATM   42  C   UNL     1      41.715 -10.395  10.378  1.00  0.00     0.032 A 
ENDBRANCH  33  36
ENDBRANCH  31  32
ENDBRANCH  30  31
ENDBRANCH   6  30
TORSDOF 8
ENDMDL
MODEL 3
REMARK VINA RESULT:      -9.6      4.426     10.127
REMARK  8 active torsions:
REMARK  status: ('A' for Active; 'I' for Inactive)
REMARK    1  A    between atoms: C_6  and  S_7 
REMARK    2  A    between atoms: S_7  and  C_8 
REMARK    3  A    between atoms: C_8  and  C_9 
REMARK       I    between atoms: C_9  and  N_10 
REMARK    4  A    between atoms: N_10  and  C_11 
REMARK    5  A    between atoms: C_24  and  C_25 
REMARK    6  A    between atoms: C_25  and  C_26 
REMARK       I    between atoms: C_26  and  N_27 
REMARK    7  A    between atoms: N_27  and  C_28 
REMARK    8  A    between atoms: C_28  and  C_29 
ROOT
HETATM    1  C   UNL     1      43.610 -19.438   1.863  1.00  0.00     0.001 A 
HETATM    2  C   UNL     1      43.071 -18.170   2.075  1.00  0.00     0.018 A 
HETATM    3  C   UNL     1      43.214 -17.571   3.328  1.00  0.00     0.039 A 
HETATM    4  C   UNL     1      43.882 -18.215   4.379  1.00  0.00     0.073 A 
HETATM    5  N   UNL     1      44.074 -17.612   5.637  1.00  0.00    -0.223 NA
HETATM    6  C   UNL     1      43.565 -16.436   5.823  1.00  0.00     0.178 C 
HETATM    7  N   UNL     1      42.792 -15.783   4.879  1.00  0.00    -0.241 N 
HETATM    8  C   UNL     1      42.649 -16.251   3.616  1.00  0.00     0.147 C 
HETATM    9  N   UNL     1      42.023 -15.497   2.766  1.00  0.00    -0.256 NA
HETATM   10  C   UNL     1      42.036 -14.643   4.984  1.00  0.00     0.257 C 
HETATM   11  O   UNL     1      41.653 -14.086   6.000  1.00  0.00    -0.270 OA
HETATM   12  C   UNL     1      41.623 -14.294   3.564  1.00  0.00     0.211 C 
HETATM   13  C   UNL     1      44.419 -19.482   4.149  1.00  0.00     0.032 A 
HETATM   14  C   UNL     1      44.282 -20.092   2.898  1.00  0.00     0.002 A 
ENDROOT
BRANCH  12  15
HETATM   15  C   UNL     1      42.365 -13.058   3.068  1.00  0.00     0.140 C 
BRANCH  15  16
HETATM   16  C   UNL     1      41.692 -12.586   1.800  1.00  0.00     0.220 C 
HETATM   17  N   UNL     1      42.022 -13.317   0.682  1.00  0.00    -0.357 N 
HETATM   18  H   UNL     1      42.465 -14.222   0.769  1.00  0.00     0.162 HD
HETATM   19  O   UNL     1      41.000 -11.572   1.783  1.00  0.00    -0.274 OA
BRANCH  17  20
HETATM   20  C   UNL     1      41.810 -12.803  -0.652  1.00  0.00     0.161 C 
BRANCH  20  21
HETATM   21  C   UNL     1      40.680 -13.485  -1.376  1.00  0.00    -0.038 A 
HETATM   22  C   UNL     1      40.943 -14.427  -2.386  1.00  0.00     0.048 A 
HETATM   23  C   UNL     1      39.872 -14.960  -3.073  1.00  0.00     0.105 A 
HETATM   24  C   UNL     1      38.574 -14.604  -2.786  1.00  0.00     0.105 A 
HETATM   25  O   UNL     1      39.950 -15.853  -4.096  1.00  0.00    -0.323 OA
HETATM   26  O   UNL     1      37.674 -15.228  -3.592  1.00  0.00    -0.323 OA
HETATM   27  C   UNL     1      38.273 -13.700  -1.794  1.00  0.00     0.040 A 
HETATM   28  C   UNL     1      38.556 -15.984  -4.447  1.00  0.00     0.352 A 
HETATM   29  C   UNL     1      39.340 -13.134  -1.088  1.00  0.00     0.012 A 
ENDBRANCH  20  21
ENDBRANCH  17  20
ENDBRANCH  15  16
ENDBRANCH  12  15
BRANCH   6  30
HETATM   30  S   UNL     1      43.968 -15.585   7.287  1.00  0.00    -0.082 SA
BRANCH  30  31
HETATM   31  C   UNL     1      45.023 -14.291   6.594  1.00  0.00     0.185 C 
BRANCH  31  32
HETATM   32  C   UNL     1      45.243 -13.214   7.640  1.00  0.00     0.231 C 
HETATM   33  N   UNL     1      44.086 -12.878   8.327  1.00  0.00    -0.327 N 
HETATM   34  H   UNL     1      43.246 -13.394   8.092  1.00  0.00     0.169 HD
HETATM   35  O   UNL     1      46.355 -12.718   7.804  1.00  0.00    -0.272 OA
BRANCH  33  36
HETATM   36  C   UNL     1      43.952 -11.919   9.350  1.00  0.00     0.034 A 
HETATM   37  C   UNL     1      44.740 -11.893  10.505  1.00  0.00     0.032 A 
HETATM   38  C   UNL     1      44.542 -10.907  11.476  1.00  0.00     0.044 A 
HETATM   39  C   UNL     1      43.562  -9.943  11.286  1.00  0.00     0.116 A 
HETATM   40  F   UNL     1      43.377  -8.994  12.213  1.00  0.00    -0.206 F 
HETATM   41  C   UNL     1      42.770  -9.950  10.146  1.00  0.00     0.044 A 
HETATM   42  C   UNL     1      42.958 -10.943   9.182  1.00  0.00     0.032 A 
ENDBRANCH  33  36
ENDBRANCH  31  32
ENDBRANCH  30  31
ENDBRANCH   6  30
TORSDOF 8
ENDMDL
MODEL 4
REMARK VINA RESULT:      -9.6      1.901      4.031
REMARK  8 active torsions:
REMARK  status: ('A' for Active; 'I' for Inactive)
REMARK    1  A    between atoms: C_6  and  S_7 
REMARK    2  A    between atoms: S_7  and  C_8 
REMARK    3  A    between atoms: C_8  and  C_9 
REMARK       I    between atoms: C_9  and  N_10 
REMARK    4  A    between atoms: N_10  and  C_11 
REMARK    5  A    between atoms: C_24  and  C_25 
REMARK    6  A    between atoms: C_25  and  C_26 
REMARK       I    between atoms: C_26  and  N_27 
REMARK    7  A    between atoms: N_27  and  C_28 
REMARK    8  A    between atoms: C_28  and  C_29 
ROOT
HETATM    1  C   UNL     1      44.454 -14.502   7.345  1.00  0.00     0.001 A 
HETATM    2  C   UNL     1      43.690 -13.709   6.490  1.00  0.00     0.018 A 
HETATM    3  C   UNL     1      43.075 -14.299   5.384  1.00  0.00     0.039 A 
HETATM    4  C   UNL     1      43.211 -15.668   5.111  1.00  0.00     0.073 A 
HETATM    5  N   UNL     1      42.566 -16.291   4.025  1.00  0.00    -0.223 NA
HETATM    6  C   UNL     1      41.862 -15.543   3.235  1.00  0.00     0.178 C 
HETATM    7  N   UNL     1      41.774 -14.169   3.366  1.00  0.00    -0.241 N 
HETATM    8  C   UNL     1      42.281 -13.514   4.438  1.00  0.00     0.147 C 
HETATM    9  N   UNL     1      42.024 -12.246   4.540  1.00  0.00    -0.256 NA
HETATM   10  C   UNL     1      41.240 -13.229   2.523  1.00  0.00     0.257 C 
HETATM   11  O   UNL     1      40.958 -13.351   1.342  1.00  0.00    -0.270 OA
HETATM   12  C   UNL     1      41.219 -11.932   3.315  1.00  0.00     0.211 C 
HETATM   13  C   UNL     1      43.976 -16.447   5.979  1.00  0.00     0.032 A 
HETATM   14  C   UNL     1      44.596 -15.867   7.090  1.00  0.00     0.002 A 
ENDROOT
BRANCH  12  15
HETATM   15  C   UNL     1      39.795 -11.550   3.700  1.00  0.00     0.140 C 
BRANCH  15  16
HETATM   16  C   UNL     1      39.866 -10.596   4.870  1.00  0.00     0.220 C 
HETATM   17  N   UNL     1      39.839 -11.212   6.100  1.00  0.00    -0.357 N 
HETATM   18  H   UNL     1      40.011 -12.204   6.186  1.00  0.00     0.162 HD
HETATM   19  O   UNL     1      39.844  -9.380   4.706  1.00  0.00    -0.274 OA
BRANCH  17  20
HETATM   20  C   UNL     1      39.504 -10.486   7.306  1.00  0.00     0.161 C 
BRANCH  20  21
HETATM   21  C   UNL     1      40.558 -10.598   8.375  1.00  0.00    -0.038 A 
HETATM   22  C   UNL     1      41.920 -10.648   8.034  1.00  0.00     0.048 A 
HETATM   23  C   UNL     1      42.837 -10.834   9.047  1.00  0.00     0.105 A 
HETATM   24  C   UNL     1      42.454 -10.956  10.363  1.00  0.00     0.105 A 
HETATM   25  O   UNL     1      44.185 -10.939   8.889  1.00  0.00    -0.323 OA
HETATM   26  O   UNL     1      43.510 -11.153  11.196  1.00  0.00    -0.323 OA
HETATM   27  C   UNL     1      41.132 -10.895  10.740  1.00  0.00     0.040 A 
HETATM   28  C   UNL     1      44.598 -11.184  10.251  1.00  0.00     0.352 A 
HETATM   29  C   UNL     1      40.179 -10.719   9.733  1.00  0.00     0.012 A 
ENDBRANCH  20  21
ENDBRANCH  17  20
ENDBRANCH  15  16
ENDBRANCH  12  15
BRANCH   6  30
HETATM   30  S   UNL     1      40.888 -16.318   2.018  1.00  0.00    -0.082 SA
BRANCH  30  31
HETATM   31  C   UNL     1      42.145 -16.552   0.742  1.00  0.00     0.185 C 
BRANCH  31  32
HETATM   32  C   UNL     1      43.195 -17.526   1.248  1.00  0.00     0.231 C 
HETATM   33  N   UNL     1      42.652 -18.593   1.947  1.00  0.00    -0.327 N 
HETATM   34  H   UNL     1      41.642 -18.632   2.017  1.00  0.00     0.169 HD
HETATM   35  O   UNL     1      44.388 -17.325   1.039  1.00  0.00    -0.272 OA
BRANCH  33  36
HETATM   36  C   UNL     1      43.350 -19.661   2.545  1.00  0.00     0.034 A 
HETATM   37  C   UNL     1      43.637 -20.867   1.897  1.00  0.00     0.032 A 
HETATM   38  C   UNL     1      44.333 -21.881   2.562  1.00  0.00     0.044 A 
HETATM   39  C   UNL     1      44.751 -21.683   3.870  1.00  0.00     0.116 A 
HETATM   40  F   UNL     1      45.425 -22.651   4.505  1.00  0.00    -0.206 F 
HETATM   41  C   UNL     1      44.478 -20.493   4.531  1.00  0.00     0.044 A 
HETATM   42  C   UNL     1      43.770 -19.485   3.871  1.00  0.00     0.032 A 
ENDBRANCH  33  36
ENDBRANCH  31  32
ENDBRANCH  30  31
ENDBRANCH   6  30
TORSDOF 8
ENDMDL
MODEL 5
REMARK VINA RESULT:      -9.4      3.951     10.343
REMARK  8 active torsions:
REMARK  status: ('A' for Active; 'I' for Inactive)
REMARK    1  A    between atoms: C_6  and  S_7 
REMARK    2  A    between atoms: S_7  and  C_8 
REMARK    3  A    between atoms: C_8  and  C_9 
REMARK       I    between atoms: C_9  and  N_10 
REMARK    4  A    between atoms: N_10  and  C_11 
REMARK    5  A    between atoms: C_24  and  C_25 
REMARK    6  A    between atoms: C_25  and  C_26 
REMARK       I    between atoms: C_26  and  N_27 
REMARK    7  A    between atoms: N_27  and  C_28 
REMARK    8  A    between atoms: C_28  and  C_29 
ROOT
HETATM    1  C   UNL     1      43.095 -19.587   6.920  1.00  0.00     0.001 A 
HETATM    2  C   UNL     1      42.710 -18.587   6.028  1.00  0.00     0.018 A 
HETATM    3  C   UNL     1      43.067 -17.264   6.296  1.00  0.00     0.039 A 
HETATM    4  C   UNL     1      43.798 -16.918   7.441  1.00  0.00     0.073 A 
HETATM    5  N   UNL     1      44.204 -15.596   7.710  1.00  0.00    -0.223 NA
HETATM    6  C   UNL     1      43.838 -14.674   6.877  1.00  0.00     0.178 C 
HETATM    7  N   UNL     1      43.017 -14.915   5.789  1.00  0.00    -0.241 N 
HETATM    8  C   UNL     1      42.672 -16.168   5.410  1.00  0.00     0.147 C 
HETATM    9  N   UNL     1      42.018 -16.297   4.297  1.00  0.00    -0.256 NA
HETATM   10  C   UNL     1      42.393 -14.039   4.937  1.00  0.00     0.257 C 
HETATM   11  O   UNL     1      42.196 -12.846   5.096  1.00  0.00    -0.270 OA
HETATM   12  C   UNL     1      41.839 -14.892   3.808  1.00  0.00     0.211 C 
HETATM   13  C   UNL     1      44.178 -17.932   8.321  1.00  0.00     0.032 A 
HETATM   14  C   UNL     1      43.827 -19.260   8.063  1.00  0.00     0.002 A 
ENDROOT
BRANCH  12  15
HETATM   15  C   UNL     1      42.627 -14.674   2.521  1.00  0.00     0.140 C 
BRANCH  15  16
HETATM   16  C   UNL     1      42.575 -15.953   1.718  1.00  0.00     0.220 C 
HETATM   17  N   UNL     1      43.522 -16.883   2.079  1.00  0.00    -0.357 N 
HETATM   18  H   UNL     1      44.019 -16.802   2.955  1.00  0.00     0.162 HD
HETATM   19  O   UNL     1      41.811 -16.079   0.765  1.00  0.00    -0.274 OA
BRANCH  17  20
HETATM   20  C   UNL     1      43.890 -17.972   1.202  1.00  0.00     0.161 C 
BRANCH  20  21
HETATM   21  C   UNL     1      44.007 -19.293   1.916  1.00  0.00    -0.038 A 
HETATM   22  C   UNL     1      44.606 -19.369   3.185  1.00  0.00     0.048 A 
HETATM   23  C   UNL     1      44.761 -20.615   3.756  1.00  0.00     0.105 A 
HETATM   24  C   UNL     1      44.337 -21.762   3.127  1.00  0.00     0.105 A 
HETATM   25  O   UNL     1      45.347 -20.870   4.958  1.00  0.00    -0.323 OA
HETATM   26  O   UNL     1      44.604 -22.881   3.852  1.00  0.00    -0.323 OA
HETATM   27  C   UNL     1      43.731 -21.729   1.893  1.00  0.00     0.040 A 
HETATM   28  C   UNL     1      45.282 -22.311   4.990  1.00  0.00     0.352 A 
HETATM   29  C   UNL     1      43.570 -20.481   1.283  1.00  0.00     0.012 A 
ENDBRANCH  20  21
ENDBRANCH  17  20
ENDBRANCH  15  16
ENDBRANCH  12  15
BRANCH   6  30
HETATM   30  S   UNL     1      44.502 -13.077   7.070  1.00  0.00    -0.082 SA
BRANCH  30  31
HETATM   31  C   UNL     1      44.747 -13.076   8.860  1.00  0.00     0.185 C 
BRANCH  31  32
HETATM   32  C   UNL     1      44.036 -11.877   9.461  1.00  0.00     0.231 C 
HETATM   33  N   UNL     1      43.565 -12.112  10.744  1.00  0.00    -0.327 N 
HETATM   34  H   UNL     1      43.768 -13.019  11.150  1.00  0.00     0.169 HD
HETATM   35  O   UNL     1      43.909 -10.838   8.820  1.00  0.00    -0.272 OA
BRANCH  33  36
HETATM   36  C   UNL     1      42.863 -11.213  11.571  1.00  0.00     0.034 A 
HETATM   37  C   UNL     1      41.470 -11.089  11.584  1.00  0.00     0.032 A 
HETATM   38  C   UNL     1      40.848 -10.169  12.434  1.00  0.00     0.044 A 
HETATM   39  C   UNL     1      41.620  -9.382  13.276  1.00  0.00     0.116 A 
HETATM   40  F   UNL     1      41.024  -8.506  14.095  1.00  0.00    -0.206 F 
HETATM   41  C   UNL     1      43.004  -9.490  13.280  1.00  0.00     0.044 A 
HETATM   42  C   UNL     1      43.626 -10.399  12.421  1.00  0.00     0.032 A 
ENDBRANCH  33  36
ENDBRANCH  31  32
ENDBRANCH  30  31
ENDBRANCH   6  30
TORSDOF 8
ENDMDL
MODEL 6
REMARK VINA RESULT:      -9.4      3.552      9.180
REMARK  8 active torsions:
REMARK  status: ('A' for Active; 'I' for Inactive)
REMARK    1  A    between atoms: C_6  and  S_7 
REMARK    2  A    between atoms: S_7  and  C_8 
REMARK    3  A    between atoms: C_8  and  C_9 
REMARK       I    between atoms: C_9  and  N_10 
REMARK    4  A    between atoms: N_10  and  C_11 
REMARK    5  A    between atoms: C_24  and  C_25 
REMARK    6  A    between atoms: C_25  and  C_26 
REMARK       I    between atoms: C_26  and  N_27 
REMARK    7  A    between atoms: N_27  and  C_28 
REMARK    8  A    between atoms: C_28  and  C_29 
ROOT
HETATM    1  C   UNL     1      37.753 -14.222   0.880  1.00  0.00     0.001 A 
HETATM    2  C   UNL     1      38.698 -14.765   1.750  1.00  0.00     0.018 A 
HETATM    3  C   UNL     1      39.363 -13.921   2.641  1.00  0.00     0.039 A 
HETATM    4  C   UNL     1      39.108 -12.543   2.679  1.00  0.00     0.073 A 
HETATM    5  N   UNL     1      39.738 -11.681   3.598  1.00  0.00    -0.223 NA
HETATM    6  C   UNL     1      40.617 -12.195   4.398  1.00  0.00     0.178 C 
HETATM    7  N   UNL     1      41.012 -13.519   4.345  1.00  0.00    -0.241 N 
HETATM    8  C   UNL     1      40.383 -14.428   3.561  1.00  0.00     0.147 C 
HETATM    9  N   UNL     1      40.734 -15.671   3.687  1.00  0.00    -0.256 NA
HETATM   10  C   UNL     1      42.044 -14.165   4.977  1.00  0.00     0.257 C 
HETATM   11  O   UNL     1      43.017 -13.672   5.524  1.00  0.00    -0.270 OA
HETATM   12  C   UNL     1      41.822 -15.645   4.717  1.00  0.00     0.211 C 
HETATM   13  C   UNL     1      38.157 -12.018   1.805  1.00  0.00     0.032 A 
HETATM   14  C   UNL     1      37.483 -12.853   0.908  1.00  0.00     0.002 A 
ENDROOT
BRANCH  12  15
HETATM   15  C   UNL     1      41.369 -16.361   5.985  1.00  0.00     0.140 C 
BRANCH  15  16
HETATM   16  C   UNL     1      42.581 -17.008   6.615  1.00  0.00     0.220 C 
HETATM   17  N   UNL     1      43.562 -17.360   5.717  1.00  0.00    -0.357 N 
HETATM   18  H   UNL     1      43.562 -16.985   4.778  1.00  0.00     0.162 HD
HETATM   19  O   UNL     1      42.612 -17.277   7.812  1.00  0.00    -0.274 OA
BRANCH  17  20
HETATM   20  C   UNL     1      44.590 -18.319   6.052  1.00  0.00     0.161 C 
BRANCH  20  21
HETATM   21  C   UNL     1      44.616 -19.507   5.127  1.00  0.00    -0.038 A 
HETATM   22  C   UNL     1      44.311 -19.356   3.763  1.00  0.00     0.048 A 
HETATM   23  C   UNL     1      44.268 -20.490   2.978  1.00  0.00     0.105 A 
HETATM   24  C   UNL     1      44.526 -21.740   3.491  1.00  0.00     0.105 A 
HETATM   25  O   UNL     1      43.959 -20.528   1.654  1.00  0.00    -0.323 OA
HETATM   26  O   UNL     1      44.411 -22.720   2.555  1.00  0.00    -0.323 OA
HETATM   27  C   UNL     1      44.846 -21.928   4.816  1.00  0.00     0.040 A 
HETATM   28  C   UNL     1      44.009 -21.949   1.405  1.00  0.00     0.352 A 
HETATM   29  C   UNL     1      44.885 -20.798   5.639  1.00  0.00     0.012 A 
ENDBRANCH  20  21
ENDBRANCH  17  20
ENDBRANCH  15  16
ENDBRANCH  12  15
BRANCH   6  30
HETATM   30  S   UNL     1      41.249 -11.198   5.678  1.00  0.00    -0.082 SA
BRANCH  30  31
HETATM   31  C   UNL     1      39.954 -11.451   6.913  1.00  0.00     0.185 C 
BRANCH  31  32
HETATM   32  C   UNL     1      40.367 -10.784   8.213  1.00  0.00     0.231 C 
HETATM   33  N   UNL     1      41.580 -11.247   8.699  1.00  0.00    -0.327 N 
HETATM   34  H   UNL     1      42.068 -11.937   8.139  1.00  0.00     0.169 HD
HETATM   35  O   UNL     1      39.649  -9.937   8.737  1.00  0.00    -0.272 OA
BRANCH  33  36
HETATM   36  C   UNL     1      42.236 -10.838   9.878  1.00  0.00     0.034 A 
HETATM   37  C   UNL     1      43.598 -11.037  10.122  1.00  0.00     0.032 A 
HETATM   38  C   UNL     1      44.175 -10.603  11.319  1.00  0.00     0.044 A 
HETATM   39  C   UNL     1      43.389  -9.962  12.266  1.00  0.00     0.116 A 
HETATM   40  F   UNL     1      43.942  -9.540  13.410  1.00  0.00    -0.206 F 
HETATM   41  C   UNL     1      42.035  -9.753  12.043  1.00  0.00     0.044 A 
HETATM   42  C   UNL     1      41.456 -10.199  10.853  1.00  0.00     0.032 A 
ENDBRANCH  33  36
ENDBRANCH  31  32
ENDBRANCH  30  31
ENDBRANCH   6  30
TORSDOF 8
ENDMDL
MODEL 7
REMARK VINA RESULT:      -9.3      3.533      8.081
REMARK  8 active torsions:
REMARK  status: ('A' for Active; 'I' for Inactive)
REMARK    1  A    between atoms: C_6  and  S_7 
REMARK    2  A    between atoms: S_7  and  C_8 
REMARK    3  A    between atoms: C_8  and  C_9 
REMARK       I    between atoms: C_9  and  N_10 
REMARK    4  A    between atoms: N_10  and  C_11 
REMARK    5  A    between atoms: C_24  and  C_25 
REMARK    6  A    between atoms: C_25  and  C_26 
REMARK       I    between atoms: C_26  and  N_27 
REMARK    7  A    between atoms: N_27  and  C_28 
REMARK    8  A    between atoms: C_28  and  C_29 
ROOT
HETATM    1  C   UNL     1      44.118 -14.388   7.081  1.00  0.00     0.001 A 
HETATM    2  C   UNL     1      43.478 -13.658   6.081  1.00  0.00     0.018 A 
HETATM    3  C   UNL     1      42.934 -14.336   4.988  1.00  0.00     0.039 A 
HETATM    4  C   UNL     1      43.019 -15.730   4.870  1.00  0.00     0.073 A 
HETATM    5  N   UNL     1      42.442 -16.437   3.798  1.00  0.00    -0.223 NA
HETATM    6  C   UNL     1      41.854 -15.747   2.872  1.00  0.00     0.178 C 
HETATM    7  N   UNL     1      41.829 -14.364   2.853  1.00  0.00    -0.241 N 
HETATM    8  C   UNL     1      42.272 -13.621   3.895  1.00  0.00     0.147 C 
HETATM    9  N   UNL     1      42.076 -12.340   3.842  1.00  0.00    -0.256 NA
HETATM   10  C   UNL     1      41.425 -13.497   1.870  1.00  0.00     0.257 C 
HETATM   11  O   UNL     1      41.244 -13.731   0.686  1.00  0.00    -0.270 OA
HETATM   12  C   UNL     1      41.403 -12.123   2.520  1.00  0.00     0.211 C 
HETATM   13  C   UNL     1      43.660 -16.445   5.882  1.00  0.00     0.032 A 
HETATM   14  C   UNL     1      44.208 -15.778   6.982  1.00  0.00     0.002 A 
ENDROOT
BRANCH  12  15
HETATM   15  C   UNL     1      39.972 -11.639   2.727  1.00  0.00     0.140 C 
BRANCH  15  16
HETATM   16  C   UNL     1      39.550 -10.885   1.486  1.00  0.00     0.220 C 
HETATM   17  N   UNL     1      38.782 -11.622   0.615  1.00  0.00    -0.357 N 
HETATM   18  H   UNL     1      38.347 -12.485   0.911  1.00  0.00     0.162 HD
HETATM   19  O   UNL     1      39.959  -9.751   1.258  1.00  0.00    -0.274 OA
BRANCH  17  20
HETATM   20  C   UNL     1      38.615 -11.232  -0.768  1.00  0.00     0.161 C 
BRANCH  20  21
HETATM   21  C   UNL     1      38.997 -12.318  -1.739  1.00  0.00    -0.038 A 
HETATM   22  C   UNL     1      38.070 -13.310  -2.101  1.00  0.00     0.048 A 
HETATM   23  C   UNL     1      38.498 -14.328  -2.929  1.00  0.00     0.105 A 
HETATM   24  C   UNL     1      39.786 -14.382  -3.410  1.00  0.00     0.105 A 
HETATM   25  O   UNL     1      37.744 -15.380  -3.349  1.00  0.00    -0.323 OA
HETATM   26  O   UNL     1      40.004 -15.474  -4.190  1.00  0.00    -0.323 OA
HETATM   27  C   UNL     1      40.718 -13.421  -3.093  1.00  0.00     0.040 A 
HETATM   28  C   UNL     1      38.719 -16.123  -4.111  1.00  0.00     0.352 A 
HETATM   29  C   UNL     1      40.316 -12.383  -2.246  1.00  0.00     0.012 A 
ENDBRANCH  20  21
ENDBRANCH  17  20
ENDBRANCH  15  16
ENDBRANCH  12  15
BRANCH   6  30
HETATM   30  S   UNL     1      40.953 -16.603   1.653  1.00  0.00    -0.082 SA
BRANCH  30  31
HETATM   31  C   UNL     1      42.297 -16.982   0.506  1.00  0.00     0.185 C 
BRANCH  31  32
HETATM   32  C   UNL     1      43.343 -17.817   1.222  1.00  0.00     0.231 C 
HETATM   33  N   UNL     1      42.819 -18.961   1.805  1.00  0.00    -0.327 N 
HETATM   34  H   UNL     1      41.830 -19.135   1.669  1.00  0.00     0.169 HD
HETATM   35  O   UNL     1      44.516 -17.456   1.258  1.00  0.00    -0.272 OA
BRANCH  33  36
HETATM   36  C   UNL     1      43.519 -19.938   2.540  1.00  0.00     0.034 A 
HETATM   37  C   UNL     1      43.750 -21.240   2.086  1.00  0.00     0.032 A 
HETATM   38  C   UNL     1      44.452 -22.154   2.878  1.00  0.00     0.044 A 
HETATM   39  C   UNL     1      44.930 -21.760   4.120  1.00  0.00     0.116 A 
HETATM   40  F   UNL     1      45.609 -22.632   4.876  1.00  0.00    -0.206 F 
HETATM   41  C   UNL     1      44.712 -20.472   4.589  1.00  0.00     0.044 A 
HETATM   42  C   UNL     1      43.998 -19.564   3.803  1.00  0.00     0.032 A 
ENDBRANCH  33  36
ENDBRANCH  31  32
ENDBRANCH  30  31
ENDBRANCH   6  30
TORSDOF 8
ENDMDL
MODEL 8
REMARK VINA RESULT:      -9.3      4.221      8.925
REMARK  8 active torsions:
REMARK  status: ('A' for Active; 'I' for Inactive)
REMARK    1  A    between atoms: C_6  and  S_7 
REMARK    2  A    between atoms: S_7  and  C_8 
REMARK    3  A    between atoms: C_8  and  C_9 
REMARK       I    between atoms: C_9  and  N_10 
REMARK    4  A    between atoms: N_10  and  C_11 
REMARK    5  A    between atoms: C_24  and  C_25 
REMARK    6  A    between atoms: C_25  and  C_26 
REMARK       I    between atoms: C_26  and  N_27 
REMARK    7  A    between atoms: N_27  and  C_28 
REMARK    8  A    between atoms: C_28  and  C_29 
ROOT
HETATM    1  C   UNL     1      41.843  -9.734  15.428  1.00  0.00     0.001 A 
HETATM    2  C   UNL     1      42.527 -10.257  14.332  1.00  0.00     0.018 A 
HETATM    3  C   UNL     1      42.190  -9.820  13.050  1.00  0.00     0.039 A 
HETATM    4  C   UNL     1      41.179  -8.872  12.838  1.00  0.00     0.073 A 
HETATM    5  N   UNL     1      40.852  -8.386  11.557  1.00  0.00    -0.223 NA
HETATM    6  C   UNL     1      41.491  -8.882  10.546  1.00  0.00     0.178 C 
HETATM    7  N   UNL     1      42.417  -9.904  10.658  1.00  0.00    -0.241 N 
HETATM    8  C   UNL     1      42.856 -10.350  11.859  1.00  0.00     0.147 C 
HETATM    9  N   UNL     1      43.828 -11.210  11.858  1.00  0.00    -0.256 NA
HETATM   10  C   UNL     1      43.030 -10.658   9.689  1.00  0.00     0.257 C 
HETATM   11  O   UNL     1      42.706 -10.789   8.520  1.00  0.00    -0.270 OA
HETATM   12  C   UNL     1      44.115 -11.443  10.407  1.00  0.00     0.211 C 
HETATM   13  C   UNL     1      40.507  -8.356  13.947  1.00  0.00     0.032 A 
HETATM   14  C   UNL     1      40.836  -8.786  15.236  1.00  0.00     0.002 A 
ENDROOT
BRANCH  12  15
HETATM   15  C   UNL     1      45.499 -10.914  10.048  1.00  0.00     0.140 C 
BRANCH  15  16
HETATM   16  C   UNL     1      45.909 -11.529   8.730  1.00  0.00     0.220 C 
HETATM   17  N   UNL     1      45.141 -12.605   8.348  1.00  0.00    -0.357 N 
HETATM   18  H   UNL     1      44.250 -12.786   8.789  1.00  0.00     0.162 HD
HETATM   19  O   UNL     1      46.906 -11.144   8.128  1.00  0.00    -0.274 OA
BRANCH  17  20
HETATM   20  C   UNL     1      45.599 -13.551   7.355  1.00  0.00     0.161 C 
BRANCH  20  21
HETATM   21  C   UNL     1      44.474 -14.272   6.661  1.00  0.00    -0.038 A 
HETATM   22  C   UNL     1      43.845 -15.369   7.272  1.00  0.00     0.048 A 
HETATM   23  C   UNL     1      42.877 -16.044   6.556  1.00  0.00     0.105 A 
HETATM   24  C   UNL     1      42.512 -15.662   5.286  1.00  0.00     0.105 A 
HETATM   25  O   UNL     1      42.195 -17.142   6.982  1.00  0.00    -0.323 OA
HETATM   26  O   UNL     1      41.558 -16.470   4.754  1.00  0.00    -0.323 OA
HETATM   27  C   UNL     1      43.091 -14.582   4.661  1.00  0.00     0.040 A 
HETATM   28  C   UNL     1      41.393 -17.431   5.817  1.00  0.00     0.352 A 
HETATM   29  C   UNL     1      44.084 -13.886   5.357  1.00  0.00     0.012 A 
ENDBRANCH  20  21
ENDBRANCH  17  20
ENDBRANCH  15  16
ENDBRANCH  12  15
BRANCH   6  30
HETATM   30  S   UNL     1      41.258  -8.151   8.983  1.00  0.00    -0.082 SA
BRANCH  30  31
HETATM   31  C   UNL     1      39.464  -8.318   8.847  1.00  0.00     0.185 C 
BRANCH  31  32
HETATM   32  C   UNL     1      39.132  -9.176   7.640  1.00  0.00     0.231 C 
HETATM   33  N   UNL     1      40.014 -10.232   7.466  1.00  0.00    -0.327 N 
HETATM   34  H   UNL     1      40.746 -10.339   8.159  1.00  0.00     0.169 HD
HETATM   35  O   UNL     1      38.175  -8.903   6.920  1.00  0.00    -0.272 OA
BRANCH  33  36
HETATM   36  C   UNL     1      39.988 -11.204   6.446  1.00  0.00     0.034 A 
HETATM   37  C   UNL     1      39.513 -12.507   6.621  1.00  0.00     0.032 A 
HETATM   38  C   UNL     1      39.522 -13.415   5.558  1.00  0.00     0.044 A 
HETATM   39  C   UNL     1      39.998 -13.014   4.317  1.00  0.00     0.116 A 
HETATM   40  F   UNL     1      40.000 -13.880   3.297  1.00  0.00    -0.206 F 
HETATM   41  C   UNL     1      40.472 -11.724   4.121  1.00  0.00     0.044 A 
HETATM   42  C   UNL     1      40.476 -10.822   5.188  1.00  0.00     0.032 A 
ENDBRANCH  33  36
ENDBRANCH  31  32
ENDBRANCH  30  31
ENDBRANCH   6  30
TORSDOF 8
ENDMDL
MODEL 9
REMARK VINA RESULT:      -9.3      5.055     10.747
REMARK  8 active torsions:
REMARK  status: ('A' for Active; 'I' for Inactive)
REMARK    1  A    between atoms: C_6  and  S_7 
REMARK    2  A    between atoms: S_7  and  C_8 
REMARK    3  A    between atoms: C_8  and  C_9 
REMARK       I    between atoms: C_9  and  N_10 
REMARK    4  A    between atoms: N_10  and  C_11 
REMARK    5  A    between atoms: C_24  and  C_25 
REMARK    6  A    between atoms: C_25  and  C_26 
REMARK       I    between atoms: C_26  and  N_27 
REMARK    7  A    between atoms: N_27  and  C_28 
REMARK    8  A    between atoms: C_28  and  C_29 
ROOT
HETATM    1  C   UNL     1      44.162 -20.639   2.579  1.00  0.00     0.001 A 
HETATM    2  C   UNL     1      43.237 -19.633   2.306  1.00  0.00     0.018 A 
HETATM    3  C   UNL     1      43.116 -18.563   3.195  1.00  0.00     0.039 A 
HETATM    4  C   UNL     1      43.899 -18.478   4.355  1.00  0.00     0.073 A 
HETATM    5  N   UNL     1      43.822 -17.387   5.242  1.00  0.00    -0.223 NA
HETATM    6  C   UNL     1      42.955 -16.461   4.981  1.00  0.00     0.178 C 
HETATM    7  N   UNL     1      42.065 -16.527   3.925  1.00  0.00    -0.241 N 
HETATM    8  C   UNL     1      42.145 -17.489   2.975  1.00  0.00     0.147 C 
HETATM    9  N   UNL     1      41.357 -17.384   1.950  1.00  0.00    -0.256 NA
HETATM   10  C   UNL     1      40.981 -15.742   3.626  1.00  0.00     0.257 C 
HETATM   11  O   UNL     1      40.387 -14.969   4.359  1.00  0.00    -0.270 OA
HETATM   12  C   UNL     1      40.553 -16.151   2.226  1.00  0.00     0.211 C 
HETATM   13  C   UNL     1      44.822 -19.492   4.610  1.00  0.00     0.032 A 
HETATM   14  C   UNL     1      44.953 -20.568   3.727  1.00  0.00     0.002 A 
ENDROOT
BRANCH  12  15
HETATM   15  C   UNL     1      40.886 -15.062   1.213  1.00  0.00     0.140 C 
BRANCH  15  16
HETATM   16  C   UNL     1      39.589 -14.437   0.753  1.00  0.00     0.220 C 
HETATM   17  N   UNL     1      39.639 -13.906  -0.515  1.00  0.00    -0.357 N 
HETATM   18  H   UNL     1      40.390 -14.147  -1.147  1.00  0.00     0.162 HD
HETATM   19  O   UNL     1      38.626 -14.334   1.508  1.00  0.00    -0.274 OA
BRANCH  17  20
HETATM   20  C   UNL     1      38.664 -12.943  -0.974  1.00  0.00     0.161 C 
BRANCH  20  21
HETATM   21  C   UNL     1      37.967 -13.364  -2.241  1.00  0.00    -0.038 A 
HETATM   22  C   UNL     1      37.204 -12.442  -2.977  1.00  0.00     0.048 A 
HETATM   23  C   UNL     1      36.519 -12.901  -4.083  1.00  0.00     0.105 A 
HETATM   24  C   UNL     1      36.578 -14.217  -4.481  1.00  0.00     0.105 A 
HETATM   25  O   UNL     1      35.712 -12.154  -4.885  1.00  0.00    -0.323 OA
HETATM   26  O   UNL     1      35.817 -14.462  -5.580  1.00  0.00    -0.323 OA
HETATM   27  C   UNL     1      37.328 -15.146  -3.798  1.00  0.00     0.040 A 
HETATM   28  C   UNL     1      35.237 -13.161  -5.804  1.00  0.00     0.352 A 
HETATM   29  C   UNL     1      38.023 -14.712  -2.665  1.00  0.00     0.012 A 
ENDBRANCH  20  21
ENDBRANCH  17  20
ENDBRANCH  15  16
ENDBRANCH  12  15
BRANCH   6  30
HETATM   30  S   UNL     1      42.989 -15.007   5.939  1.00  0.00    -0.082 SA
BRANCH  30  31
HETATM   31  C   UNL     1      44.721 -15.034   6.452  1.00  0.00     0.185 C 
BRANCH  31  32
HETATM   32  C   UNL     1      45.031 -13.767   7.228  1.00  0.00     0.231 C 
HETATM   33  N   UNL     1      44.117 -13.512   8.239  1.00  0.00    -0.327 N 
HETATM   34  H   UNL     1      43.379 -14.194   8.375  1.00  0.00     0.169 HD
HETATM   35  O   UNL     1      46.000 -13.072   6.933  1.00  0.00    -0.272 OA
BRANCH  33  36
HETATM   36  C   UNL     1      44.119 -12.423   9.133  1.00  0.00     0.034 A 
HETATM   37  C   UNL     1      44.991 -12.306  10.220  1.00  0.00     0.032 A 
HETATM   38  C   UNL     1      44.928 -11.193  11.064  1.00  0.00     0.044 A 
HETATM   39  C   UNL     1      43.997 -10.194  10.813  1.00  0.00     0.116 A 
HETATM   40  F   UNL     1      43.940  -9.124  11.617  1.00  0.00    -0.206 F 
HETATM   41  C   UNL     1      43.123 -10.290   9.739  1.00  0.00     0.044 A 
HETATM   42  C   UNL     1      43.177 -11.409   8.905  1.00  0.00     0.032 A 
ENDBRANCH  33  36
ENDBRANCH  31  32
ENDBRANCH  30  31
ENDBRANCH   6  30
TORSDOF 8
ENDMDL
MODEL 10
REMARK VINA RESULT:      -9.2      5.239      8.777
REMARK  8 active torsions:
REMARK  status: ('A' for Active; 'I' for Inactive)
REMARK    1  A    between atoms: C_6  and  S_7 
REMARK    2  A    between atoms: S_7  and  C_8 
REMARK    3  A    between atoms: C_8  and  C_9 
REMARK       I    between atoms: C_9  and  N_10 
REMARK    4  A    between atoms: N_10  and  C_11 
REMARK    5  A    between atoms: C_24  and  C_25 
REMARK    6  A    between atoms: C_25  and  C_26 
REMARK       I    between atoms: C_26  and  N_27 
REMARK    7  A    between atoms: N_27  and  C_28 
REMARK    8  A    between atoms: C_28  and  C_29 
ROOT
HETATM    1  C   UNL     1      42.848 -11.743  -2.482  1.00  0.00     0.001 A 
HETATM    2  C   UNL     1      42.604 -12.547  -1.368  1.00  0.00     0.018 A 
HETATM    3  C   UNL     1      41.565 -12.207  -0.500  1.00  0.00     0.039 A 
HETATM    4  C   UNL     1      40.766 -11.076  -0.718  1.00  0.00     0.073 A 
HETATM    5  N   UNL     1      39.687 -10.738   0.123  1.00  0.00    -0.223 NA
HETATM    6  C   UNL     1      39.473 -11.489   1.156  1.00  0.00     0.178 C 
HETATM    7  N   UNL     1      40.287 -12.551   1.507  1.00  0.00    -0.241 N 
HETATM    8  C   UNL     1      41.277 -12.998   0.698  1.00  0.00     0.147 C 
HETATM    9  N   UNL     1      41.891 -14.086   1.048  1.00  0.00    -0.256 NA
HETATM   10  C   UNL     1      40.311 -13.313   2.647  1.00  0.00     0.257 C 
HETATM   11  O   UNL     1      39.804 -13.065   3.729  1.00  0.00    -0.270 OA
HETATM   12  C   UNL     1      41.250 -14.470   2.347  1.00  0.00     0.211 C 
HETATM   13  C   UNL     1      41.021 -10.285  -1.838  1.00  0.00     0.032 A 
HETATM   14  C   UNL     1      42.058 -10.616  -2.716  1.00  0.00     0.002 A 
ENDROOT
BRANCH  12  15
HETATM   15  C   UNL     1      40.476 -15.774   2.191  1.00  0.00     0.140 C 
BRANCH  15  16
HETATM   16  C   UNL     1      41.439 -16.836   1.711  1.00  0.00     0.220 C 
HETATM   17  N   UNL     1      42.597 -16.920   2.450  1.00  0.00    -0.357 N 
HETATM   18  H   UNL     1      42.661 -16.487   3.361  1.00  0.00     0.162 HD
HETATM   19  O   UNL     1      41.224 -17.478   0.688  1.00  0.00    -0.274 OA
BRANCH  17  20
HETATM   20  C   UNL     1      43.781 -17.571   1.935  1.00  0.00     0.161 C 
BRANCH  20  21
HETATM   21  C   UNL     1      43.933 -18.990   2.418  1.00  0.00    -0.038 A 
HETATM   22  C   UNL     1      44.365 -19.256   3.729  1.00  0.00     0.048 A 
HETATM   23  C   UNL     1      44.566 -20.571   4.092  1.00  0.00     0.105 A 
HETATM   24  C   UNL     1      44.344 -21.610   3.217  1.00  0.00     0.105 A 
HETATM   25  O   UNL     1      45.012 -21.001   5.303  1.00  0.00    -0.323 OA
HETATM   26  O   UNL     1      44.622 -22.821   3.767  1.00  0.00    -0.323 OA
HETATM   27  C   UNL     1      43.904 -21.392   1.932  1.00  0.00     0.040 A 
HETATM   28  C   UNL     1      45.086 -22.425   5.074  1.00  0.00     0.352 A 
HETATM   29  C   UNL     1      43.702 -20.068   1.532  1.00  0.00     0.012 A 
ENDBRANCH  20  21
ENDBRANCH  17  20
ENDBRANCH  15  16
ENDBRANCH  12  15
BRANCH   6  30
HETATM   30  S   UNL     1      38.025 -11.220   2.086  1.00  0.00    -0.082 SA
BRANCH  30  31
HETATM   31  C   UNL     1      36.792 -11.686   0.849  1.00  0.00     0.185 C 
BRANCH  31  32
HETATM   32  C   UNL     1      37.250 -12.947   0.139  1.00  0.00     0.231 C 
HETATM   33  N   UNL     1      37.586 -12.731  -1.189  1.00  0.00    -0.327 N 
HETATM   34  H   UNL     1      37.526 -11.778  -1.529  1.00  0.00     0.169 HD
HETATM   35  O   UNL     1      37.283 -14.022   0.731  1.00  0.00    -0.272 OA
BRANCH  33  36
HETATM   36  C   UNL     1      38.040 -13.687  -2.118  1.00  0.00     0.034 A 
HETATM   37  C   UNL     1      39.315 -14.262  -2.088  1.00  0.00     0.032 A 
HETATM   38  C   UNL     1      39.691 -15.204  -3.049  1.00  0.00     0.044 A 
HETATM   39  C   UNL     1      38.788 -15.578  -4.035  1.00  0.00     0.116 A 
HETATM   40  F   UNL     1      39.145 -16.485  -4.952  1.00  0.00    -0.206 F 
HETATM   41  C   UNL     1      37.517 -15.020  -4.082  1.00  0.00     0.044 A 
HETATM   42  C   UNL     1      37.147 -14.068  -3.130  1.00  0.00     0.032 A 
ENDBRANCH  33  36
ENDBRANCH  31  32
ENDBRANCH  30  31
ENDBRANCH   6  30
TORSDOF 8
ENDMDL
