MODEL 1
REMARK VINA RESULT:     -10.6      0.000      0.000
REMARK  8 active torsions:
REMARK  status: ('A' for Active; 'I' for Inactive)
REMARK    1  A    between atoms: C_4  and  C_5 
REMARK    2  A    between atoms: C_5  and  N_6 
REMARK    3  A    between atoms: C_5  and  C_36 
REMARK    4  A    between atoms: N_10  and  C_11 
REMARK    5  A    between atoms: C_13  and  C_14 
REMARK       I    between atoms: C_14  and  N_15 
REMARK    6  A    between atoms: N_15  and  C_16 
REMARK    7  A    between atoms: C_19  and  O_20 
REMARK    8  A    between atoms: O_20  and  C_21 
ROOT
HETATM    1  C   UNL     1      40.840 -14.033   2.339  1.00  0.00     0.181 C 
HETATM    2  N   UNL     1      41.785 -13.484   3.143  1.00  0.00    -0.249 NA
HETATM    3  C   UNL     1      41.647 -12.113   3.642  1.00  0.00     0.164 C 
HETATM    4  C   UNL     1      40.549 -11.337   2.967  1.00  0.00     0.134 C 
HETATM    5  C   UNL     1      39.429 -12.247   2.550  1.00  0.00     0.247 C 
HETATM    6  O   UNL     1      38.268 -11.853   2.620  1.00  0.00    -0.271 OA
HETATM    7  N   UNL     1      39.752 -13.447   1.972  1.00  0.00    -0.185 NA
HETATM    8  H   UNL     1      41.952 -14.104   3.943  1.00  0.00     0.131 HD
ENDROOT
BRANCH   1   9
HETATM    9  N   UNL     1      41.156 -15.310   1.917  1.00  0.00    -0.353 N 
HETATM   10  C   UNL     1      40.609 -16.530   2.535  1.00  0.00     0.153 C 
HETATM   11  C   UNL     1      41.603 -17.073   3.576  1.00  0.00     0.256 C 
HETATM   12  N   UNL     1      42.949 -17.344   2.900  1.00  0.00    -0.056 N 
HETATM   13  H   UNL     1      42.750 -17.975   2.119  1.00  0.00     0.281 HD
HETATM   14  C   UNL     1      43.488 -16.070   2.237  1.00  0.00     0.256 C 
HETATM   15  C   UNL     1      42.444 -15.541   1.225  1.00  0.00     0.153 C 
BRANCH  12  16
HETATM   16  C   UNL     1      43.913 -18.134   3.786  1.00  0.00     0.254 C 
BRANCH  16  17
HETATM   17  C   UNL     1      44.097 -19.593   3.378  1.00  0.00    -0.023 A 
HETATM   18  C   UNL     1      43.582 -20.030   2.141  1.00  0.00     0.009 A 
HETATM   19  C   UNL     1      43.703 -21.360   1.738  1.00  0.00     0.001 A 
HETATM   20  C   UNL     1      44.344 -22.281   2.559  1.00  0.00     0.000 A 
HETATM   21  C   UNL     1      44.871 -21.870   3.780  1.00  0.00     0.001 A 
HETATM   22  C   UNL     1      44.751 -20.539   4.186  1.00  0.00     0.009 A 
ENDBRANCH  16  17
BRANCH  16  23
HETATM   23  C   UNL     1      43.745 -17.824   5.274  1.00  0.00    -0.023 A 
HETATM   24  C   UNL     1      43.332 -18.773   6.223  1.00  0.00     0.009 A 
HETATM   25  C   UNL     1      43.221 -18.437   7.576  1.00  0.00     0.001 A 
HETATM   26  C   UNL     1      43.520 -17.150   8.009  1.00  0.00     0.000 A 
HETATM   27  C   UNL     1      43.942 -16.194   7.092  1.00  0.00     0.001 A 
HETATM   28  C   UNL     1      44.059 -16.527   5.740  1.00  0.00     0.009 A 
ENDBRANCH  16  23
ENDBRANCH  12  16
ENDBRANCH   1   9
BRANCH   3  29
HETATM   29  C   UNL     1      41.514 -12.148   5.177  1.00  0.00     0.240 C 
HETATM   30  N   UNL     1      40.702 -11.148   5.689  1.00  0.00    -0.326 N 
HETATM   31  H   UNL     1      40.238 -10.531   5.034  1.00  0.00     0.169 HD
HETATM   32  O   UNL     1      42.204 -12.936   5.824  1.00  0.00    -0.271 OA
BRANCH  30  33
HETATM   33  C   UNL     1      40.617 -10.752   7.044  1.00  0.00     0.034 A 
HETATM   34  C   UNL     1      39.674 -11.410   7.846  1.00  0.00     0.032 A 
HETATM   35  C   UNL     1      39.463 -11.015   9.172  1.00  0.00     0.039 A 
HETATM   36  C   UNL     1      40.228  -9.987   9.720  1.00  0.00     0.076 A 
HETATM   37  C   UNL     1      41.178  -9.339   8.933  1.00  0.00     0.039 A 
HETATM   38  C   UNL     1      41.376  -9.722   7.602  1.00  0.00     0.032 A 
BRANCH  36  39
HETATM   39  O   UNL     1      40.046  -9.484  10.986  1.00  0.00    -0.311 OA
BRANCH  39  40
HETATM   40  C   UNL     1      41.076  -9.564  11.895  1.00  0.00     0.076 A 
HETATM   41  C   UNL     1      41.736 -10.752  12.216  1.00  0.00     0.037 A 
HETATM   42  C   UNL     1      42.805 -10.732  13.111  1.00  0.00     0.003 A 
HETATM   43  C   UNL     1      43.233  -9.525  13.665  1.00  0.00     0.000 A 
HETATM   44  C   UNL     1      42.595  -8.334  13.320  1.00  0.00     0.003 A 
HETATM   45  C   UNL     1      41.519  -8.353  12.431  1.00  0.00     0.037 A 
ENDBRANCH  39  40
ENDBRANCH  36  39
ENDBRANCH  30  33
ENDBRANCH   3  29
TORSDOF 8
ENDMDL
MODEL 2
REMARK VINA RESULT:     -10.6      2.282     10.350
REMARK  8 active torsions:
REMARK  status: ('A' for Active; 'I' for Inactive)
REMARK    1  A    between atoms: C_4  and  C_5 
REMARK    2  A    between atoms: C_5  and  N_6 
REMARK    3  A    between atoms: C_5  and  C_36 
REMARK    4  A    between atoms: N_10  and  C_11 
REMARK    5  A    between atoms: C_13  and  C_14 
REMARK       I    between atoms: C_14  and  N_15 
REMARK    6  A    between atoms: N_15  and  C_16 
REMARK    7  A    between atoms: C_19  and  O_20 
REMARK    8  A    between atoms: O_20  and  C_21 
ROOT
HETATM    1  C   UNL     1      39.552 -10.576   6.354  1.00  0.00     0.181 C 
HETATM    2  N   UNL     1      39.620 -11.925   6.481  1.00  0.00    -0.249 NA
HETATM    3  C   UNL     1      39.494 -12.800   5.312  1.00  0.00     0.164 C 
HETATM    4  C   UNL     1      39.024 -12.085   4.075  1.00  0.00     0.134 C 
HETATM    5  C   UNL     1      39.495 -10.659   4.070  1.00  0.00     0.247 C 
HETATM    6  O   UNL     1      39.823 -10.131   3.011  1.00  0.00    -0.271 OA
HETATM    7  N   UNL     1      39.412  -9.946   5.238  1.00  0.00    -0.185 NA
HETATM    8  H   UNL     1      40.478 -12.177   6.982  1.00  0.00     0.131 HD
ENDROOT
BRANCH   1   9
HETATM    9  N   UNL     1      39.634  -9.908   7.560  1.00  0.00    -0.353 N 
HETATM   10  C   UNL     1      40.695  -8.940   7.885  1.00  0.00     0.153 C 
HETATM   11  C   UNL     1      41.816  -9.643   8.669  1.00  0.00     0.256 C 
HETATM   12  N   UNL     1      41.231 -10.276   9.934  1.00  0.00    -0.056 N 
HETATM   13  H   UNL     1      40.759  -9.519  10.435  1.00  0.00     0.281 HD
HETATM   14  C   UNL     1      40.108 -11.259   9.578  1.00  0.00     0.256 C 
HETATM   15  C   UNL     1      39.022 -10.518   8.762  1.00  0.00     0.153 C 
BRANCH  12  16
HETATM   16  C   UNL     1      42.304 -10.762  10.909  1.00  0.00     0.254 C 
BRANCH  16  17
HETATM   17  C   UNL     1      42.368  -9.983  12.220  1.00  0.00    -0.023 A 
HETATM   18  C   UNL     1      42.390 -10.693  13.438  1.00  0.00     0.009 A 
HETATM   19  C   UNL     1      42.422 -10.023  14.662  1.00  0.00     0.001 A 
HETATM   20  C   UNL     1      42.436  -8.633  14.696  1.00  0.00     0.000 A 
HETATM   21  C   UNL     1      42.426  -7.912  13.505  1.00  0.00     0.001 A 
HETATM   22  C   UNL     1      42.394  -8.580  12.279  1.00  0.00     0.009 A 
ENDBRANCH  16  17
BRANCH  16  23
HETATM   23  C   UNL     1      43.623 -11.109  10.218  1.00  0.00    -0.023 A 
HETATM   24  C   UNL     1      44.844 -10.483  10.517  1.00  0.00     0.009 A 
HETATM   25  C   UNL     1      46.024 -10.861   9.869  1.00  0.00     0.001 A 
HETATM   26  C   UNL     1      46.011 -11.871   8.914  1.00  0.00     0.000 A 
HETATM   27  C   UNL     1      44.818 -12.515   8.608  1.00  0.00     0.001 A 
HETATM   28  C   UNL     1      43.637 -12.143   9.255  1.00  0.00     0.009 A 
ENDBRANCH  16  23
ENDBRANCH  12  16
ENDBRANCH   1   9
BRANCH   3  29
HETATM   29  C   UNL     1      40.819 -13.561   5.110  1.00  0.00     0.240 C 
HETATM   30  N   UNL     1      40.654 -14.843   4.607  1.00  0.00    -0.326 N 
HETATM   31  H   UNL     1      39.716 -15.145   4.375  1.00  0.00     0.169 HD
HETATM   32  O   UNL     1      41.870 -13.059   5.508  1.00  0.00    -0.271 OA
BRANCH  30  33
HETATM   33  C   UNL     1      41.632 -15.864   4.585  1.00  0.00     0.034 A 
HETATM   34  C   UNL     1      41.592 -16.811   5.618  1.00  0.00     0.032 A 
HETATM   35  C   UNL     1      42.578 -17.799   5.722  1.00  0.00     0.039 A 
HETATM   36  C   UNL     1      43.586 -17.876   4.762  1.00  0.00     0.076 A 
HETATM   37  C   UNL     1      43.622 -16.948   3.723  1.00  0.00     0.039 A 
HETATM   38  C   UNL     1      42.647 -15.949   3.632  1.00  0.00     0.032 A 
BRANCH  36  39
HETATM   39  O   UNL     1      44.634 -18.764   4.816  1.00  0.00    -0.311 OA
BRANCH  39  40
HETATM   40  C   UNL     1      44.572 -19.922   4.076  1.00  0.00     0.076 A 
HETATM   41  C   UNL     1      44.768 -21.196   4.613  1.00  0.00     0.037 A 
HETATM   42  C   UNL     1      44.636 -22.321   3.797  1.00  0.00     0.003 A 
HETATM   43  C   UNL     1      44.281 -22.175   2.455  1.00  0.00     0.000 A 
HETATM   44  C   UNL     1      44.054 -20.904   1.927  1.00  0.00     0.003 A 
HETATM   45  C   UNL     1      44.195 -19.778   2.739  1.00  0.00     0.037 A 
ENDBRANCH  39  40
ENDBRANCH  36  39
ENDBRANCH  30  33
ENDBRANCH   3  29
TORSDOF 8
ENDMDL
MODEL 3
REMARK VINA RESULT:     -10.3      1.422      1.950
REMARK  8 active torsions:
REMARK  status: ('A' for Active; 'I' for Inactive)
REMARK    1  A    between atoms: C_4  and  C_5 
REMARK    2  A    between atoms: C_5  and  N_6 
REMARK    3  A    between atoms: C_5  and  C_36 
REMARK    4  A    between atoms: N_10  and  C_11 
REMARK    5  A    between atoms: C_13  and  C_14 
REMARK       I    between atoms: C_14  and  N_15 
REMARK    6  A    between atoms: N_15  and  C_16 
REMARK    7  A    between atoms: C_19  and  O_20 
REMARK    8  A    between atoms: O_20  and  C_21 
ROOT
HETATM    1  C   UNL     1      40.598 -14.423   0.853  1.00  0.00     0.181 C 
HETATM    2  N   UNL     1      41.288 -13.741   1.802  1.00  0.00    -0.249 NA
HETATM    3  C   UNL     1      41.355 -12.278   1.780  1.00  0.00     0.164 C 
HETATM    4  C   UNL     1      40.842 -11.673   0.502  1.00  0.00     0.134 C 
HETATM    5  C   UNL     1      39.754 -12.521  -0.092  1.00  0.00     0.247 C 
HETATM    6  O   UNL     1      38.805 -11.984  -0.656  1.00  0.00    -0.271 OA
HETATM    7  N   UNL     1      39.928 -13.881  -0.104  1.00  0.00    -0.185 NA
HETATM    8  H   UNL     1      40.971 -14.037   2.731  1.00  0.00     0.131 HD
ENDROOT
BRANCH   1   9
HETATM    9  N   UNL     1      40.686 -15.795   0.993  1.00  0.00    -0.353 N 
HETATM   10  C   UNL     1      40.197 -16.526   2.174  1.00  0.00     0.153 C 
HETATM   11  C   UNL     1      41.360 -16.767   3.152  1.00  0.00     0.256 C 
HETATM   12  N   UNL     1      42.472 -17.538   2.437  1.00  0.00    -0.056 N 
HETATM   13  H   UNL     1      42.034 -18.385   2.066  1.00  0.00     0.281 HD
HETATM   14  C   UNL     1      42.948 -16.776   1.194  1.00  0.00     0.256 C 
HETATM   15  C   UNL     1      41.741 -16.526   0.257  1.00  0.00     0.153 C 
BRANCH  12  16
HETATM   16  C   UNL     1      43.547 -18.058   3.394  1.00  0.00     0.254 C 
BRANCH  16  17
HETATM   17  C   UNL     1      43.898 -19.531   3.212  1.00  0.00    -0.023 A 
HETATM   18  C   UNL     1      43.513 -20.187   2.025  1.00  0.00     0.009 A 
HETATM   19  C   UNL     1      43.788 -21.541   1.826  1.00  0.00     0.001 A 
HETATM   20  C   UNL     1      44.457 -22.267   2.806  1.00  0.00     0.000 A 
HETATM   21  C   UNL     1      44.857 -21.637   3.982  1.00  0.00     0.001 A 
HETATM   22  C   UNL     1      44.582 -20.282   4.183  1.00  0.00     0.009 A 
ENDBRANCH  16  17
BRANCH  16  23
HETATM   23  C   UNL     1      43.379 -17.533   4.820  1.00  0.00    -0.023 A 
HETATM   24  C   UNL     1      42.662 -18.213   5.818  1.00  0.00     0.009 A 
HETATM   25  C   UNL     1      42.563 -17.696   7.113  1.00  0.00     0.001 A 
HETATM   26  C   UNL     1      43.178 -16.492   7.440  1.00  0.00     0.000 A 
HETATM   27  C   UNL     1      43.903 -15.805   6.474  1.00  0.00     0.001 A 
HETATM   28  C   UNL     1      44.008 -16.320   5.179  1.00  0.00     0.009 A 
ENDBRANCH  16  23
ENDBRANCH  12  16
ENDBRANCH   1   9
BRANCH   3  29
HETATM   29  C   UNL     1      40.659 -11.725   3.039  1.00  0.00     0.240 C 
HETATM   30  N   UNL     1      41.526 -11.115   3.933  1.00  0.00    -0.326 N 
HETATM   31  H   UNL     1      42.502 -11.040   3.672  1.00  0.00     0.169 HD
HETATM   32  O   UNL     1      39.465 -11.962   3.223  1.00  0.00    -0.271 OA
BRANCH  30  33
HETATM   33  C   UNL     1      41.241 -10.775   5.275  1.00  0.00     0.034 A 
HETATM   34  C   UNL     1      41.512  -9.458   5.674  1.00  0.00     0.032 A 
HETATM   35  C   UNL     1      41.345  -9.066   7.007  1.00  0.00     0.039 A 
HETATM   36  C   UNL     1      40.859  -9.978   7.943  1.00  0.00     0.076 A 
HETATM   37  C   UNL     1      40.573 -11.284   7.550  1.00  0.00     0.039 A 
HETATM   38  C   UNL     1      40.758 -11.680   6.222  1.00  0.00     0.032 A 
BRANCH  36  39
HETATM   39  O   UNL     1      40.728  -9.707   9.285  1.00  0.00    -0.311 OA
BRANCH  39  40
HETATM   40  C   UNL     1      41.606 -10.281  10.174  1.00  0.00     0.076 A 
HETATM   41  C   UNL     1      42.993 -10.276  10.007  1.00  0.00     0.037 A 
HETATM   42  C   UNL     1      43.812 -10.838  10.987  1.00  0.00     0.003 A 
HETATM   43  C   UNL     1      43.251 -11.379  12.144  1.00  0.00     0.000 A 
HETATM   44  C   UNL     1      41.868 -11.355  12.326  1.00  0.00     0.003 A 
HETATM   45  C   UNL     1      41.047 -10.802  11.343  1.00  0.00     0.037 A 
ENDBRANCH  39  40
ENDBRANCH  36  39
ENDBRANCH  30  33
ENDBRANCH   3  29
TORSDOF 8
ENDMDL
MODEL 4
REMARK VINA RESULT:     -10.2      4.021      9.716
REMARK  8 active torsions:
REMARK  status: ('A' for Active; 'I' for Inactive)
REMARK    1  A    between atoms: C_4  and  C_5 
REMARK    2  A    between atoms: C_5  and  N_6 
REMARK    3  A    between atoms: C_5  and  C_36 
REMARK    4  A    between atoms: N_10  and  C_11 
REMARK    5  A    between atoms: C_13  and  C_14 
REMARK       I    between atoms: C_14  and  N_15 
REMARK    6  A    between atoms: N_15  and  C_16 
REMARK    7  A    between atoms: C_19  and  O_20 
REMARK    8  A    between atoms: O_20  and  C_21 
ROOT
HETATM    1  C   UNL     1      39.510 -12.519   3.275  1.00  0.00     0.181 C 
HETATM    2  N   UNL     1      40.793 -12.530   2.833  1.00  0.00    -0.249 NA
HETATM    3  C   UNL     1      41.915 -12.534   3.775  1.00  0.00     0.164 C 
HETATM    4  C   UNL     1      41.507 -12.253   5.196  1.00  0.00     0.134 C 
HETATM    5  C   UNL     1      40.120 -12.762   5.464  1.00  0.00     0.247 C 
HETATM    6  O   UNL     1      39.851 -13.242   6.562  1.00  0.00    -0.271 OA
HETATM    7  N   UNL     1      39.156 -12.546   4.514  1.00  0.00    -0.185 NA
HETATM    8  H   UNL     1      40.919 -13.307   2.176  1.00  0.00     0.131 HD
ENDROOT
BRANCH   1   9
HETATM    9  N   UNL     1      38.581 -12.461   2.254  1.00  0.00    -0.353 N 
HETATM   10  C   UNL     1      38.198 -13.621   1.433  1.00  0.00     0.153 C 
HETATM   11  C   UNL     1      39.017 -13.625   0.130  1.00  0.00     0.256 C 
HETATM   12  N   UNL     1      38.786 -12.311  -0.618  1.00  0.00    -0.056 N 
HETATM   13  H   UNL     1      37.773 -12.231  -0.742  1.00  0.00     0.281 HD
HETATM   14  C   UNL     1      39.161 -11.112   0.263  1.00  0.00     0.256 C 
HETATM   15  C   UNL     1      38.341 -11.168   1.574  1.00  0.00     0.153 C 
BRANCH  12  16
HETATM   16  C   UNL     1      39.338 -12.332  -2.044  1.00  0.00     0.254 C 
BRANCH  16  17
HETATM   17  C   UNL     1      39.198 -13.672  -2.760  1.00  0.00    -0.023 A 
HETATM   18  C   UNL     1      37.936 -14.054  -3.259  1.00  0.00     0.009 A 
HETATM   19  C   UNL     1      37.753 -15.282  -3.897  1.00  0.00     0.001 A 
HETATM   20  C   UNL     1      38.827 -16.153  -4.051  1.00  0.00     0.000 A 
HETATM   21  C   UNL     1      40.084 -15.792  -3.575  1.00  0.00     0.001 A 
HETATM   22  C   UNL     1      40.269 -14.563  -2.937  1.00  0.00     0.009 A 
ENDBRANCH  16  17
BRANCH  16  23
HETATM   23  C   UNL     1      40.666 -11.585  -2.180  1.00  0.00    -0.023 A 
HETATM   24  C   UNL     1      41.839 -11.958  -1.504  1.00  0.00     0.009 A 
HETATM   25  C   UNL     1      43.031 -11.251  -1.687  1.00  0.00     0.001 A 
HETATM   26  C   UNL     1      43.078 -10.160  -2.548  1.00  0.00     0.000 A 
HETATM   27  C   UNL     1      41.935  -9.777  -3.238  1.00  0.00     0.001 A 
HETATM   28  C   UNL     1      40.742 -10.483  -3.062  1.00  0.00     0.009 A 
ENDBRANCH  16  23
ENDBRANCH  12  16
ENDBRANCH   1   9
BRANCH   3  29
HETATM   29  C   UNL     1      42.699 -13.851   3.616  1.00  0.00     0.240 C 
HETATM   30  N   UNL     1      42.395 -14.544   2.454  1.00  0.00    -0.326 N 
HETATM   31  H   UNL     1      41.745 -14.120   1.804  1.00  0.00     0.169 HD
HETATM   32  O   UNL     1      43.408 -14.247   4.541  1.00  0.00    -0.271 OA
BRANCH  30  33
HETATM   33  C   UNL     1      42.727 -15.889   2.172  1.00  0.00     0.034 A 
HETATM   34  C   UNL     1      41.752 -16.860   2.441  1.00  0.00     0.032 A 
HETATM   35  C   UNL     1      42.033 -18.221   2.277  1.00  0.00     0.039 A 
HETATM   36  C   UNL     1      43.280 -18.620   1.796  1.00  0.00     0.076 A 
HETATM   37  C   UNL     1      44.248 -17.659   1.511  1.00  0.00     0.039 A 
HETATM   38  C   UNL     1      43.973 -16.300   1.693  1.00  0.00     0.032 A 
BRANCH  36  39
HETATM   39  O   UNL     1      43.671 -19.931   1.668  1.00  0.00    -0.311 OA
BRANCH  39  40
HETATM   40  C   UNL     1      44.135 -20.604   2.774  1.00  0.00     0.076 A 
HETATM   41  C   UNL     1      44.359 -19.997   4.013  1.00  0.00     0.037 A 
HETATM   42  C   UNL     1      44.781 -20.767   5.097  1.00  0.00     0.003 A 
HETATM   43  C   UNL     1      44.952 -22.145   4.953  1.00  0.00     0.000 A 
HETATM   44  C   UNL     1      44.698 -22.756   3.725  1.00  0.00     0.003 A 
HETATM   45  C   UNL     1      44.284 -21.985   2.637  1.00  0.00     0.037 A 
ENDBRANCH  39  40
ENDBRANCH  36  39
ENDBRANCH  30  33
ENDBRANCH   3  29
TORSDOF 8
ENDMDL
MODEL 5
REMARK VINA RESULT:     -10.1      2.996      8.457
REMARK  8 active torsions:
REMARK  status: ('A' for Active; 'I' for Inactive)
REMARK    1  A    between atoms: C_4  and  C_5 
REMARK    2  A    between atoms: C_5  and  N_6 
REMARK    3  A    between atoms: C_5  and  C_36 
REMARK    4  A    between atoms: N_10  and  C_11 
REMARK    5  A    between atoms: C_13  and  C_14 
REMARK       I    between atoms: C_14  and  N_15 
REMARK    6  A    between atoms: N_15  and  C_16 
REMARK    7  A    between atoms: C_19  and  O_20 
REMARK    8  A    between atoms: O_20  and  C_21 
ROOT
HETATM    1  C   UNL     1      42.089 -12.988   6.410  1.00  0.00     0.181 C 
HETATM    2  N   UNL     1      40.878 -13.452   6.013  1.00  0.00    -0.249 NA
HETATM    3  C   UNL     1      39.676 -12.624   6.138  1.00  0.00     0.164 C 
HETATM    4  C   UNL     1      39.882 -11.388   6.970  1.00  0.00     0.134 C 
HETATM    5  C   UNL     1      41.293 -10.891   6.847  1.00  0.00     0.247 C 
HETATM    6  O   UNL     1      41.513  -9.683   6.840  1.00  0.00    -0.271 OA
HETATM    7  N   UNL     1      42.309 -11.811   6.885  1.00  0.00    -0.185 NA
HETATM    8  H   UNL     1      40.942 -13.786   5.045  1.00  0.00     0.131 HD
ENDROOT
BRANCH   1   9
HETATM    9  N   UNL     1      43.103 -13.918   6.273  1.00  0.00    -0.353 N 
HETATM   10  C   UNL     1      44.216 -13.774   5.320  1.00  0.00     0.153 C 
HETATM   11  C   UNL     1      43.895 -14.546   4.028  1.00  0.00     0.256 C 
HETATM   12  N   UNL     1      43.634 -16.015   4.367  1.00  0.00    -0.056 N 
HETATM   13  H   UNL     1      44.464 -16.339   4.871  1.00  0.00     0.281 HD
HETATM   14  C   UNL     1      42.492 -16.143   5.383  1.00  0.00     0.256 C 
HETATM   15  C   UNL     1      42.842 -15.326   6.649  1.00  0.00     0.153 C 
BRANCH  12  16
HETATM   16  C   UNL     1      43.574 -16.910   3.128  1.00  0.00     0.254 C 
BRANCH  16  17
HETATM   17  C   UNL     1      42.362 -16.674   2.233  1.00  0.00    -0.023 A 
HETATM   18  C   UNL     1      42.563 -16.263   0.899  1.00  0.00     0.009 A 
HETATM   19  C   UNL     1      41.484 -16.009   0.051  1.00  0.00     0.001 A 
HETATM   20  C   UNL     1      40.182 -16.162   0.516  1.00  0.00     0.000 A 
HETATM   21  C   UNL     1      39.959 -16.578   1.825  1.00  0.00     0.001 A 
HETATM   22  C   UNL     1      41.038 -16.833   2.676  1.00  0.00     0.009 A 
ENDBRANCH  16  17
BRANCH  16  23
HETATM   23  C   UNL     1      43.977 -18.356   3.419  1.00  0.00    -0.023 A 
HETATM   24  C   UNL     1      44.377 -18.811   4.686  1.00  0.00     0.009 A 
HETATM   25  C   UNL     1      44.710 -20.152   4.898  1.00  0.00     0.001 A 
HETATM   26  C   UNL     1      44.650 -21.067   3.852  1.00  0.00     0.000 A 
HETATM   27  C   UNL     1      44.247 -20.645   2.590  1.00  0.00     0.001 A 
HETATM   28  C   UNL     1      43.909 -19.307   2.375  1.00  0.00     0.009 A 
ENDBRANCH  16  23
ENDBRANCH  12  16
ENDBRANCH   1   9
BRANCH   3  29
HETATM   29  C   UNL     1      39.122 -12.327   4.731  1.00  0.00     0.240 C 
HETATM   30  N   UNL     1      39.656 -13.136   3.739  1.00  0.00    -0.326 N 
HETATM   31  H   UNL     1      40.304 -13.863   4.017  1.00  0.00     0.169 HD
HETATM   32  O   UNL     1      38.381 -11.358   4.566  1.00  0.00    -0.271 OA
BRANCH  30  33
HETATM   33  C   UNL     1      39.566 -12.919   2.344  1.00  0.00     0.034 A 
HETATM   34  C   UNL     1      38.317 -13.135   1.743  1.00  0.00     0.032 A 
HETATM   35  C   UNL     1      38.165 -13.033   0.355  1.00  0.00     0.039 A 
HETATM   36  C   UNL     1      39.252 -12.668  -0.437  1.00  0.00     0.076 A 
HETATM   37  C   UNL     1      40.491 -12.436   0.156  1.00  0.00     0.039 A 
HETATM   38  C   UNL     1      40.648 -12.557   1.541  1.00  0.00     0.032 A 
BRANCH  36  39
HETATM   39  O   UNL     1      39.218 -12.610  -1.810  1.00  0.00    -0.311 OA
BRANCH  39  40
HETATM   40  C   UNL     1      39.023 -13.768  -2.526  1.00  0.00     0.076 A 
HETATM   41  C   UNL     1      37.783 -14.168  -3.031  1.00  0.00     0.037 A 
HETATM   42  C   UNL     1      37.687 -15.333  -3.792  1.00  0.00     0.003 A 
HETATM   43  C   UNL     1      38.830 -16.084  -4.072  1.00  0.00     0.000 A 
HETATM   44  C   UNL     1      40.072 -15.667  -3.595  1.00  0.00     0.003 A 
HETATM   45  C   UNL     1      40.169 -14.506  -2.826  1.00  0.00     0.037 A 
ENDBRANCH  39  40
ENDBRANCH  36  39
ENDBRANCH  30  33
ENDBRANCH   3  29
TORSDOF 8
ENDMDL
MODEL 6
REMARK VINA RESULT:     -10.0      3.322      9.388
REMARK  8 active torsions:
REMARK  status: ('A' for Active; 'I' for Inactive)
REMARK    1  A    between atoms: C_4  and  C_5 
REMARK    2  A    between atoms: C_5  and  N_6 
REMARK    3  A    between atoms: C_5  and  C_36 
REMARK    4  A    between atoms: N_10  and  C_11 
REMARK    5  A    between atoms: C_13  and  C_14 
REMARK       I    between atoms: C_14  and  N_15 
REMARK    6  A    between atoms: N_15  and  C_16 
REMARK    7  A    between atoms: C_19  and  O_20 
REMARK    8  A    between atoms: O_20  and  C_21 
ROOT
HETATM    1  C   UNL     1      40.429 -11.730   0.466  1.00  0.00     0.181 C 
HETATM    2  N   UNL     1      39.865 -12.925   0.158  1.00  0.00    -0.249 NA
HETATM    3  C   UNL     1      40.366 -13.730  -0.958  1.00  0.00     0.164 C 
HETATM    4  C   UNL     1      41.331 -12.991  -1.845  1.00  0.00     0.134 C 
HETATM    5  C   UNL     1      42.114 -11.980  -1.057  1.00  0.00     0.247 C 
HETATM    6  O   UNL     1      43.293 -11.775  -1.333  1.00  0.00    -0.271 OA
HETATM    7  N   UNL     1      41.443 -11.214  -0.140  1.00  0.00    -0.185 NA
HETATM    8  H   UNL     1      39.839 -13.514   0.997  1.00  0.00     0.131 HD
ENDROOT
BRANCH   1   9
HETATM    9  N   UNL     1      39.798 -11.080   1.510  1.00  0.00    -0.353 N 
HETATM   10  C   UNL     1      40.504 -10.241   2.493  1.00  0.00     0.153 C 
HETATM   11  C   UNL     1      40.822 -11.072   3.748  1.00  0.00     0.256 C 
HETATM   12  N   UNL     1      39.522 -11.637   4.325  1.00  0.00    -0.056 N 
HETATM   13  H   UNL     1      38.910 -10.832   4.481  1.00  0.00     0.281 HD
HETATM   14  C   UNL     1      38.786 -12.483   3.278  1.00  0.00     0.256 C 
HETATM   15  C   UNL     1      38.518 -11.618   2.023  1.00  0.00     0.153 C 
BRANCH  12  16
HETATM   16  C   UNL     1      39.703 -12.246   5.716  1.00  0.00     0.254 C 
BRANCH  16  17
HETATM   17  C   UNL     1      39.526 -11.262   6.868  1.00  0.00    -0.023 A 
HETATM   18  C   UNL     1      39.539  -9.878   6.596  1.00  0.00     0.009 A 
HETATM   19  C   UNL     1      39.407  -8.940   7.621  1.00  0.00     0.001 A 
HETATM   20  C   UNL     1      39.256  -9.363   8.937  1.00  0.00     0.000 A 
HETATM   21  C   UNL     1      39.229 -10.724   9.228  1.00  0.00     0.001 A 
HETATM   22  C   UNL     1      39.361 -11.665   8.204  1.00  0.00     0.009 A 
ENDBRANCH  16  17
BRANCH  16  23
HETATM   23  C   UNL     1      40.873 -13.228   5.789  1.00  0.00    -0.023 A 
HETATM   24  C   UNL     1      42.216 -12.829   5.890  1.00  0.00     0.009 A 
HETATM   25  C   UNL     1      43.244 -13.773   5.979  1.00  0.00     0.001 A 
HETATM   26  C   UNL     1      42.953 -15.133   5.969  1.00  0.00     0.000 A 
HETATM   27  C   UNL     1      41.632 -15.555   5.881  1.00  0.00     0.001 A 
HETATM   28  C   UNL     1      40.602 -14.615   5.797  1.00  0.00     0.009 A 
ENDBRANCH  16  23
ENDBRANCH  12  16
ENDBRANCH   1   9
BRANCH   3  29
HETATM   29  C   UNL     1      40.934 -15.053  -0.408  1.00  0.00     0.240 C 
HETATM   30  N   UNL     1      41.166 -15.034   0.959  1.00  0.00    -0.326 N 
HETATM   31  H   UNL     1      40.905 -14.202   1.474  1.00  0.00     0.169 HD
HETATM   32  O   UNL     1      41.252 -15.946  -1.193  1.00  0.00    -0.271 OA
BRANCH  30  33
HETATM   33  C   UNL     1      41.932 -15.971   1.691  1.00  0.00     0.034 A 
HETATM   34  C   UNL     1      41.230 -16.909   2.462  1.00  0.00     0.032 A 
HETATM   35  C   UNL     1      41.913 -17.811   3.286  1.00  0.00     0.039 A 
HETATM   36  C   UNL     1      43.307 -17.813   3.309  1.00  0.00     0.076 A 
HETATM   37  C   UNL     1      44.010 -16.894   2.532  1.00  0.00     0.039 A 
HETATM   38  C   UNL     1      43.327 -15.980   1.723  1.00  0.00     0.032 A 
BRANCH  36  39
HETATM   39  O   UNL     1      44.062 -18.611   4.135  1.00  0.00    -0.311 OA
BRANCH  39  40
HETATM   40  C   UNL     1      44.203 -19.945   3.834  1.00  0.00     0.076 A 
HETATM   41  C   UNL     1      44.045 -20.471   2.550  1.00  0.00     0.037 A 
HETATM   42  C   UNL     1      44.258 -21.831   2.326  1.00  0.00     0.003 A 
HETATM   43  C   UNL     1      44.654 -22.661   3.375  1.00  0.00     0.000 A 
HETATM   44  C   UNL     1      44.843 -22.130   4.651  1.00  0.00     0.003 A 
HETATM   45  C   UNL     1      44.622 -20.771   4.879  1.00  0.00     0.037 A 
ENDBRANCH  39  40
ENDBRANCH  36  39
ENDBRANCH  30  33
ENDBRANCH   3  29
TORSDOF 8
ENDMDL
MODEL 7
REMARK VINA RESULT:     -10.0      3.916     10.088
REMARK  8 active torsions:
REMARK  status: ('A' for Active; 'I' for Inactive)
REMARK    1  A    between atoms: C_4  and  C_5 
REMARK    2  A    between atoms: C_5  and  N_6 
REMARK    3  A    between atoms: C_5  and  C_36 
REMARK    4  A    between atoms: N_10  and  C_11 
REMARK    5  A    between atoms: C_13  and  C_14 
REMARK       I    between atoms: C_14  and  N_15 
REMARK    6  A    between atoms: N_15  and  C_16 
REMARK    7  A    between atoms: C_19  and  O_20 
REMARK    8  A    between atoms: O_20  and  C_21 
ROOT
HETATM    1  C   UNL     1      39.320 -11.927   3.146  1.00  0.00     0.181 C 
HETATM    2  N   UNL     1      40.665 -12.050   3.020  1.00  0.00    -0.249 NA
HETATM    3  C   UNL     1      41.530 -12.114   4.200  1.00  0.00     0.164 C 
HETATM    4  C   UNL     1      40.825 -11.759   5.481  1.00  0.00     0.134 C 
HETATM    5  C   UNL     1      39.377 -12.150   5.420  1.00  0.00     0.247 C 
HETATM    6  O   UNL     1      38.819 -12.575   6.428  1.00  0.00    -0.271 OA
HETATM    7  N   UNL     1      38.684 -11.889   4.266  1.00  0.00    -0.185 NA
HETATM    8  H   UNL     1      40.877 -12.854   2.420  1.00  0.00     0.131 HD
ENDROOT
BRANCH   1   9
HETATM    9  N   UNL     1      38.663 -11.826   1.934  1.00  0.00    -0.353 N 
HETATM   10  C   UNL     1      38.123 -12.984   1.203  1.00  0.00     0.153 C 
HETATM   11  C   UNL     1      39.139 -13.448   0.145  1.00  0.00     0.256 C 
HETATM   12  N   UNL     1      39.454 -12.287  -0.801  1.00  0.00    -0.056 N 
HETATM   13  H   UNL     1      38.553 -11.973  -1.172  1.00  0.00     0.281 HD
HETATM   14  C   UNL     1      39.987 -11.080  -0.018  1.00  0.00     0.256 C 
HETATM   15  C   UNL     1      38.950 -10.670   1.055  1.00  0.00     0.153 C 
BRANCH  12  16
HETATM   16  C   UNL     1      40.240 -12.722  -2.038  1.00  0.00     0.254 C 
BRANCH  16  17
HETATM   17  C   UNL     1      40.720 -11.573  -2.921  1.00  0.00    -0.023 A 
HETATM   18  C   UNL     1      42.096 -11.269  -2.961  1.00  0.00     0.009 A 
HETATM   19  C   UNL     1      42.578 -10.210  -3.733  1.00  0.00     0.001 A 
HETATM   20  C   UNL     1      41.698  -9.437  -4.482  1.00  0.00     0.000 A 
HETATM   21  C   UNL     1      40.336  -9.727  -4.466  1.00  0.00     0.001 A 
HETATM   22  C   UNL     1      39.851 -10.785  -3.694  1.00  0.00     0.009 A 
ENDBRANCH  16  17
BRANCH  16  23
HETATM   23  C   UNL     1      39.638 -13.948  -2.725  1.00  0.00    -0.023 A 
HETATM   24  C   UNL     1      38.318 -14.001  -3.202  1.00  0.00     0.009 A 
HETATM   25  C   UNL     1      37.829 -15.142  -3.846  1.00  0.00     0.001 A 
HETATM   26  C   UNL     1      38.647 -16.252  -4.028  1.00  0.00     0.000 A 
HETATM   27  C   UNL     1      39.961 -16.222  -3.576  1.00  0.00     0.001 A 
HETATM   28  C   UNL     1      40.454 -15.082  -2.936  1.00  0.00     0.009 A 
ENDBRANCH  16  23
ENDBRANCH  12  16
ENDBRANCH   1   9
BRANCH   3  29
HETATM   29  C   UNL     1      42.218 -13.492   4.245  1.00  0.00     0.240 C 
HETATM   30  N   UNL     1      42.271 -14.129   3.015  1.00  0.00    -0.326 N 
HETATM   31  H   UNL     1      41.912 -13.634   2.208  1.00  0.00     0.169 HD
HETATM   32  O   UNL     1      42.542 -13.970   5.332  1.00  0.00    -0.271 OA
BRANCH  30  33
HETATM   33  C   UNL     1      42.574 -15.492   2.791  1.00  0.00     0.034 A 
HETATM   34  C   UNL     1      43.794 -15.782   2.165  1.00  0.00     0.032 A 
HETATM   35  C   UNL     1      44.128 -17.098   1.824  1.00  0.00     0.039 A 
HETATM   36  C   UNL     1      43.262 -18.141   2.152  1.00  0.00     0.076 A 
HETATM   37  C   UNL     1      42.055 -17.860   2.789  1.00  0.00     0.039 A 
HETATM   38  C   UNL     1      41.713 -16.544   3.112  1.00  0.00     0.032 A 
BRANCH  36  39
HETATM   39  O   UNL     1      43.470 -19.453   1.798  1.00  0.00    -0.311 OA
BRANCH  39  40
HETATM   40  C   UNL     1      44.013 -20.318   2.719  1.00  0.00     0.076 A 
HETATM   41  C   UNL     1      44.427 -19.932   3.996  1.00  0.00     0.037 A 
HETATM   42  C   UNL     1      44.918 -20.888   4.885  1.00  0.00     0.003 A 
HETATM   43  C   UNL     1      44.972 -22.231   4.511  1.00  0.00     0.000 A 
HETATM   44  C   UNL     1      44.529 -22.622   3.248  1.00  0.00     0.003 A 
HETATM   45  C   UNL     1      44.045 -21.666   2.354  1.00  0.00     0.037 A 
ENDBRANCH  39  40
ENDBRANCH  36  39
ENDBRANCH  30  33
ENDBRANCH   3  29
TORSDOF 8
ENDMDL
MODEL 8
REMARK VINA RESULT:      -9.9      3.400      9.145
REMARK  8 active torsions:
REMARK  status: ('A' for Active; 'I' for Inactive)
REMARK    1  A    between atoms: C_4  and  C_5 
REMARK    2  A    between atoms: C_5  and  N_6 
REMARK    3  A    between atoms: C_5  and  C_36 
REMARK    4  A    between atoms: N_10  and  C_11 
REMARK    5  A    between atoms: C_13  and  C_14 
REMARK       I    between atoms: C_14  and  N_15 
REMARK    6  A    between atoms: N_15  and  C_16 
REMARK    7  A    between atoms: C_19  and  O_20 
REMARK    8  A    between atoms: O_20  and  C_21 
ROOT
HETATM    1  C   UNL     1      39.539 -11.523  -0.084  1.00  0.00     0.181 C 
HETATM    2  N   UNL     1      39.077 -12.790  -0.230  1.00  0.00    -0.249 NA
HETATM    3  C   UNL     1      39.405 -13.580  -1.420  1.00  0.00     0.164 C 
HETATM    4  C   UNL     1      40.036 -12.772  -2.521  1.00  0.00     0.134 C 
HETATM    5  C   UNL     1      40.843 -11.639  -1.957  1.00  0.00     0.247 C 
HETATM    6  O   UNL     1      41.890 -11.306  -2.507  1.00  0.00    -0.271 OA
HETATM    7  N   UNL     1      40.310 -10.918  -0.920  1.00  0.00    -0.185 NA
HETATM    8  H   UNL     1      39.322 -13.340   0.600  1.00  0.00     0.131 HD
ENDROOT
BRANCH   1   9
HETATM    9  N   UNL     1      39.088 -10.907   1.068  1.00  0.00    -0.353 N 
HETATM   10  C   UNL     1      39.764  -9.758   1.694  1.00  0.00     0.153 C 
HETATM   11  C   UNL     1      40.693 -10.252   2.816  1.00  0.00     0.256 C 
HETATM   12  N   UNL     1      39.877 -11.046   3.838  1.00  0.00    -0.056 N 
HETATM   13  H   UNL     1      39.123 -10.424   4.141  1.00  0.00     0.281 HD
HETATM   14  C   UNL     1      39.157 -12.220   3.163  1.00  0.00     0.256 C 
HETATM   15  C   UNL     1      38.262 -11.680   2.021  1.00  0.00     0.153 C 
BRANCH  12  16
HETATM   16  C   UNL     1      40.655 -11.346   5.120  1.00  0.00     0.254 C 
BRANCH  16  17
HETATM   17  C   UNL     1      41.062 -12.806   5.288  1.00  0.00    -0.023 A 
HETATM   18  C   UNL     1      42.359 -13.205   4.905  1.00  0.00     0.009 A 
HETATM   19  C   UNL     1      42.767 -14.536   5.016  1.00  0.00     0.001 A 
HETATM   20  C   UNL     1      41.891 -15.494   5.513  1.00  0.00     0.000 A 
HETATM   21  C   UNL     1      40.609 -15.121   5.907  1.00  0.00     0.001 A 
HETATM   22  C   UNL     1      40.198 -13.790   5.798  1.00  0.00     0.009 A 
ENDBRANCH  16  17
BRANCH  16  23
HETATM   23  C   UNL     1      40.096 -10.614   6.341  1.00  0.00    -0.023 A 
HETATM   24  C   UNL     1      40.379 -10.986   7.665  1.00  0.00     0.009 A 
HETATM   25  C   UNL     1      39.859 -10.262   8.743  1.00  0.00     0.001 A 
HETATM   26  C   UNL     1      39.049  -9.154   8.522  1.00  0.00     0.000 A 
HETATM   27  C   UNL     1      38.762  -8.758   7.221  1.00  0.00     0.001 A 
HETATM   28  C   UNL     1      39.284  -9.475   6.141  1.00  0.00     0.009 A 
ENDBRANCH  16  23
ENDBRANCH  12  16
ENDBRANCH   1   9
BRANCH   3  29
HETATM   29  C   UNL     1      40.250 -14.798  -0.997  1.00  0.00     0.240 C 
HETATM   30  N   UNL     1      40.270 -15.014   0.373  1.00  0.00    -0.326 N 
HETATM   31  H   UNL     1      39.707 -14.408   0.957  1.00  0.00     0.169 HD
HETATM   32  O   UNL     1      40.922 -15.389  -1.842  1.00  0.00    -0.271 OA
BRANCH  30  33
HETATM   33  C   UNL     1      41.164 -15.856   1.073  1.00  0.00     0.034 A 
HETATM   34  C   UNL     1      40.604 -16.786   1.961  1.00  0.00     0.032 A 
HETATM   35  C   UNL     1      41.422 -17.592   2.761  1.00  0.00     0.039 A 
HETATM   36  C   UNL     1      42.809 -17.507   2.644  1.00  0.00     0.076 A 
HETATM   37  C   UNL     1      43.370 -16.596   1.752  1.00  0.00     0.039 A 
HETATM   38  C   UNL     1      42.553 -15.777   0.966  1.00  0.00     0.032 A 
BRANCH  36  39
HETATM   39  O   UNL     1      43.692 -18.205   3.433  1.00  0.00    -0.311 OA
BRANCH  39  40
HETATM   40  C   UNL     1      43.887 -19.546   3.197  1.00  0.00     0.076 A 
HETATM   41  C   UNL     1      43.584 -20.172   1.986  1.00  0.00     0.037 A 
HETATM   42  C   UNL     1      43.864 -21.529   1.816  1.00  0.00     0.003 A 
HETATM   43  C   UNL     1      44.470 -22.253   2.843  1.00  0.00     0.000 A 
HETATM   44  C   UNL     1      44.802 -21.620   4.041  1.00  0.00     0.003 A 
HETATM   45  C   UNL     1      44.515 -20.266   4.216  1.00  0.00     0.037 A 
ENDBRANCH  39  40
ENDBRANCH  36  39
ENDBRANCH  30  33
ENDBRANCH   3  29
TORSDOF 8
ENDMDL
MODEL 9
REMARK VINA RESULT:      -9.9      2.945      8.215
REMARK  8 active torsions:
REMARK  status: ('A' for Active; 'I' for Inactive)
REMARK    1  A    between atoms: C_4  and  C_5 
REMARK    2  A    between atoms: C_5  and  N_6 
REMARK    3  A    between atoms: C_5  and  C_36 
REMARK    4  A    between atoms: N_10  and  C_11 
REMARK    5  A    between atoms: C_13  and  C_14 
REMARK       I    between atoms: C_14  and  N_15 
REMARK    6  A    between atoms: N_15  and  C_16 
REMARK    7  A    between atoms: C_19  and  O_20 
REMARK    8  A    between atoms: O_20  and  C_21 
ROOT
HETATM    1  C   UNL     1      42.038 -12.931   6.420  1.00  0.00     0.181 C 
HETATM    2  N   UNL     1      40.741 -13.149   6.089  1.00  0.00    -0.249 NA
HETATM    3  C   UNL     1      39.713 -12.141   6.361  1.00  0.00     0.164 C 
HETATM    4  C   UNL     1      40.187 -11.027   7.255  1.00  0.00     0.134 C 
HETATM    5  C   UNL     1      41.653 -10.769   7.055  1.00  0.00     0.247 C 
HETATM    6  O   UNL     1      42.081  -9.620   7.111  1.00  0.00    -0.271 OA
HETATM    7  N   UNL     1      42.492 -11.849   6.953  1.00  0.00    -0.185 NA
HETATM    8  H   UNL     1      40.682 -13.412   5.100  1.00  0.00     0.131 HD
ENDROOT
BRANCH   1   9
HETATM    9  N   UNL     1      42.862 -14.005   6.143  1.00  0.00    -0.353 N 
HETATM   10  C   UNL     1      43.693 -14.104   4.932  1.00  0.00     0.153 C 
HETATM   11  C   UNL     1      42.952 -14.926   3.862  1.00  0.00     0.256 C 
HETATM   12  N   UNL     1      42.618 -16.309   4.425  1.00  0.00    -0.056 N 
HETATM   13  H   UNL     1      43.507 -16.707   4.741  1.00  0.00     0.281 HD
HETATM   14  C   UNL     1      41.778 -16.185   5.703  1.00  0.00     0.256 C 
HETATM   15  C   UNL     1      42.545 -15.325   6.736  1.00  0.00     0.153 C 
BRANCH  12  16
HETATM   16  C   UNL     1      42.127 -17.285   3.356  1.00  0.00     0.254 C 
BRANCH  16  17
HETATM   17  C   UNL     1      42.998 -18.526   3.182  1.00  0.00    -0.023 A 
HETATM   18  C   UNL     1      43.985 -18.812   4.147  1.00  0.00     0.009 A 
HETATM   19  C   UNL     1      44.823 -19.920   4.016  1.00  0.00     0.001 A 
HETATM   20  C   UNL     1      44.691 -20.768   2.922  1.00  0.00     0.000 A 
HETATM   21  C   UNL     1      43.716 -20.511   1.962  1.00  0.00     0.001 A 
HETATM   22  C   UNL     1      42.876 -19.402   2.090  1.00  0.00     0.009 A 
ENDBRANCH  16  17
BRANCH  16  23
HETATM   23  C   UNL     1      41.623 -16.583   2.094  1.00  0.00    -0.023 A 
HETATM   24  C   UNL     1      42.358 -16.513   0.899  1.00  0.00     0.009 A 
HETATM   25  C   UNL     1      41.834 -15.878  -0.231  1.00  0.00     0.001 A 
HETATM   26  C   UNL     1      40.569 -15.303  -0.193  1.00  0.00     0.000 A 
HETATM   27  C   UNL     1      39.817 -15.367   0.973  1.00  0.00     0.001 A 
HETATM   28  C   UNL     1      40.334 -16.004   2.104  1.00  0.00     0.009 A 
ENDBRANCH  16  23
ENDBRANCH  12  16
ENDBRANCH   1   9
BRANCH   3  29
HETATM   29  C   UNL     1      39.130 -11.645   5.024  1.00  0.00     0.240 C 
HETATM   30  N   UNL     1      39.365 -12.502   3.960  1.00  0.00    -0.326 N 
HETATM   31  H   UNL     1      39.838 -13.377   4.151  1.00  0.00     0.169 HD
HETATM   32  O   UNL     1      38.635 -10.519   4.962  1.00  0.00    -0.271 OA
BRANCH  30  33
HETATM   33  C   UNL     1      39.210 -12.196   2.589  1.00  0.00     0.034 A 
HETATM   34  C   UNL     1      37.936 -12.377   2.032  1.00  0.00     0.032 A 
HETATM   35  C   UNL     1      37.720 -12.186   0.662  1.00  0.00     0.039 A 
HETATM   36  C   UNL     1      38.769 -11.764  -0.153  1.00  0.00     0.076 A 
HETATM   37  C   UNL     1      40.034 -11.566   0.397  1.00  0.00     0.039 A 
HETATM   38  C   UNL     1      40.253 -11.776   1.762  1.00  0.00     0.032 A 
BRANCH  36  39
HETATM   39  O   UNL     1      38.672 -11.616  -1.516  1.00  0.00    -0.311 OA
BRANCH  39  40
HETATM   40  C   UNL     1      38.978 -12.681  -2.330  1.00  0.00     0.076 A 
HETATM   41  C   UNL     1      40.225 -12.862  -2.933  1.00  0.00     0.037 A 
HETATM   42  C   UNL     1      40.466 -14.001  -3.703  1.00  0.00     0.003 A 
HETATM   43  C   UNL     1      39.473 -14.970  -3.849  1.00  0.00     0.000 A 
HETATM   44  C   UNL     1      38.239 -14.806  -3.220  1.00  0.00     0.003 A 
HETATM   45  C   UNL     1      37.993 -13.663  -2.457  1.00  0.00     0.037 A 
ENDBRANCH  39  40
ENDBRANCH  36  39
ENDBRANCH  30  33
ENDBRANCH   3  29
TORSDOF 8
ENDMDL
MODEL 10
REMARK VINA RESULT:      -9.6      1.575      2.314
REMARK  8 active torsions:
REMARK  status: ('A' for Active; 'I' for Inactive)
REMARK    1  A    between atoms: C_4  and  C_5 
REMARK    2  A    between atoms: C_5  and  N_6 
REMARK    3  A    between atoms: C_5  and  C_36 
REMARK    4  A    between atoms: N_10  and  C_11 
REMARK    5  A    between atoms: C_13  and  C_14 
REMARK       I    between atoms: C_14  and  N_15 
REMARK    6  A    between atoms: N_15  and  C_16 
REMARK    7  A    between atoms: C_19  and  O_20 
REMARK    8  A    between atoms: O_20  and  C_21 
ROOT
HETATM    1  C   UNL     1      40.518 -14.137   1.218  1.00  0.00     0.181 C 
HETATM    2  N   UNL     1      41.305 -13.531   2.142  1.00  0.00    -0.249 NA
HETATM    3  C   UNL     1      41.367 -12.071   2.238  1.00  0.00     0.164 C 
HETATM    4  C   UNL     1      40.719 -11.364   1.078  1.00  0.00     0.134 C 
HETATM    5  C   UNL     1      39.576 -12.170   0.533  1.00  0.00     0.247 C 
HETATM    6  O   UNL     1      38.571 -11.597   0.120  1.00  0.00    -0.271 OA
HETATM    7  N   UNL     1      39.748 -13.522   0.386  1.00  0.00    -0.185 NA
HETATM    8  H   UNL     1      41.089 -13.907   3.071  1.00  0.00     0.131 HD
ENDROOT
BRANCH   1   9
HETATM    9  N   UNL     1      40.621 -15.515   1.230  1.00  0.00    -0.353 N 
HETATM   10  C   UNL     1      40.150 -16.357   2.341  1.00  0.00     0.153 C 
HETATM   11  C   UNL     1      41.323 -16.673   3.285  1.00  0.00     0.256 C 
HETATM   12  N   UNL     1      42.438 -17.362   2.495  1.00  0.00    -0.056 N 
HETATM   13  H   UNL     1      42.006 -18.177   2.051  1.00  0.00     0.281 HD
HETATM   14  C   UNL     1      42.896 -16.484   1.324  1.00  0.00     0.256 C 
HETATM   15  C   UNL     1      41.679 -16.163   0.422  1.00  0.00     0.153 C 
BRANCH  12  16
HETATM   16  C   UNL     1      43.525 -17.956   3.392  1.00  0.00     0.254 C 
BRANCH  16  17
HETATM   17  C   UNL     1      43.817 -19.432   3.143  1.00  0.00    -0.023 A 
HETATM   18  C   UNL     1      44.612 -20.140   4.068  1.00  0.00     0.009 A 
HETATM   19  C   UNL     1      44.928 -21.484   3.868  1.00  0.00     0.001 A 
HETATM   20  C   UNL     1      44.454 -22.151   2.744  1.00  0.00     0.000 A 
HETATM   21  C   UNL     1      43.658 -21.476   1.823  1.00  0.00     0.001 A 
HETATM   22  C   UNL     1      43.341 -20.130   2.020  1.00  0.00     0.009 A 
ENDBRANCH  16  17
BRANCH  16  23
HETATM   23  C   UNL     1      43.425 -17.481   4.842  1.00  0.00    -0.023 A 
HETATM   24  C   UNL     1      43.905 -16.238   5.287  1.00  0.00     0.009 A 
HETATM   25  C   UNL     1      43.763 -15.847   6.622  1.00  0.00     0.001 A 
HETATM   26  C   UNL     1      43.138 -16.686   7.539  1.00  0.00     0.000 A 
HETATM   27  C   UNL     1      42.644 -17.916   7.122  1.00  0.00     0.001 A 
HETATM   28  C   UNL     1      42.780 -18.309   5.788  1.00  0.00     0.009 A 
ENDBRANCH  16  23
ENDBRANCH  12  16
ENDBRANCH   1   9
BRANCH   3  29
HETATM   29  C   UNL     1      40.809 -11.633   3.606  1.00  0.00     0.240 C 
HETATM   30  N   UNL     1      41.625 -10.737   4.281  1.00  0.00    -0.326 N 
HETATM   31  H   UNL     1      42.465 -10.416   3.814  1.00  0.00     0.169 HD
HETATM   32  O   UNL     1      39.796 -12.176   4.047  1.00  0.00    -0.271 OA
BRANCH  30  33
HETATM   33  C   UNL     1      41.529 -10.384   5.646  1.00  0.00     0.034 A 
HETATM   34  C   UNL     1      41.282  -9.036   5.942  1.00  0.00     0.032 A 
HETATM   35  C   UNL     1      41.265  -8.586   7.268  1.00  0.00     0.039 A 
HETATM   36  C   UNL     1      41.448  -9.494   8.311  1.00  0.00     0.076 A 
HETATM   37  C   UNL     1      41.679 -10.837   8.023  1.00  0.00     0.039 A 
HETATM   38  C   UNL     1      41.715 -11.282   6.698  1.00  0.00     0.032 A 
BRANCH  36  39
HETATM   39  O   UNL     1      41.517  -9.138   9.637  1.00  0.00    -0.311 OA
BRANCH  39  40
HETATM   40  C   UNL     1      40.352  -8.928  10.337  1.00  0.00     0.076 A 
HETATM   41  C   UNL     1      39.126  -9.501   9.990  1.00  0.00     0.037 A 
HETATM   42  C   UNL     1      38.004  -9.275  10.788  1.00  0.00     0.003 A 
HETATM   43  C   UNL     1      38.111  -8.501  11.944  1.00  0.00     0.000 A 
HETATM   44  C   UNL     1      39.342  -7.955  12.308  1.00  0.00     0.003 A 
HETATM   45  C   UNL     1      40.463  -8.173  11.506  1.00  0.00     0.037 A 
ENDBRANCH  39  40
ENDBRANCH  36  39
ENDBRANCH  30  33
ENDBRANCH   3  29
TORSDOF 8
ENDMDL
