MODEL 1
REMARK VINA RESULT:      -7.5      0.000      0.000
REMARK  6 active torsions:
REMARK  status: ('A' for Active; 'I' for Inactive)
REMARK    1  A    between atoms: C_8  and  N_9 
REMARK       I    between atoms: N_9  and  C_10 
REMARK    2  A    between atoms: C_10  and  C_11 
REMARK    3  A    between atoms: C_11  and  N_12 
REMARK    4  A    between atoms: N_12  and  C_13 
REMARK    5  A    between atoms: C_13  and  C_14 
REMARK    6  A    between atoms: C_13  and  C_17 
ROOT
HETATM    1  C   UNL     1      43.284 -16.800   1.527  1.00  0.00     0.372 C 
ENDROOT
BRANCH   1   2
HETATM    2  C   UNL     1      43.127 -18.258   1.971  1.00  0.00     0.250 C 
HETATM    3  N   UNL     1      44.281 -18.741   2.553  1.00  0.00    -0.322 N 
HETATM    4  H   UNL     1      45.088 -18.130   2.477  1.00  0.00     0.169 HD
HETATM    5  O   UNL     1      42.059 -18.845   1.834  1.00  0.00    -0.271 OA
BRANCH   3   6
HETATM    6  C   UNL     1      44.471 -19.962   3.177  1.00  0.00     0.085 A 
HETATM    7  C   UNL     1      44.834 -20.043   4.509  1.00  0.00     0.052 A 
HETATM    8  C   UNL     1      45.093 -19.013   5.542  1.00  0.00     0.072 C 
HETATM    9  N   UNL     1      44.924 -21.375   4.791  1.00  0.00    -0.280 N 
HETATM   10  H   UNL     1      45.167 -21.815   5.673  1.00  0.00     0.189 HD
HETATM   11  N   UNL     1      44.643 -22.168   3.756  1.00  0.00    -0.177 NA
HETATM   12  C   UNL     1      44.357 -21.320   2.755  1.00  0.00     0.079 A 
HETATM   13  C   UNL     1      43.983 -21.899   1.440  1.00  0.00     0.075 C 
ENDBRANCH   3   6
ENDBRANCH   1   2
BRANCH   1  14
HETATM   14  N   UNL     1      43.620 -15.952   2.687  1.00  0.00     0.101 N 
HETATM   15  H   UNL     1      43.956 -15.054   2.335  1.00  0.00     0.317 HD
BRANCH  14  16
HETATM   16  C   UNL     1      42.448 -15.732   3.566  1.00  0.00     0.259 C 
BRANCH  16  17
HETATM   17  C   UNL     1      41.788 -14.321   3.424  1.00  0.00     0.015 C 
HETATM   18  C   UNL     1      42.557 -13.335   2.536  1.00  0.00     0.012 C 
HETATM   19  C   UNL     1      40.338 -14.414   2.934  1.00  0.00     0.012 C 
ENDBRANCH  16  17
BRANCH  16  20
HETATM   20  C   UNL     1      42.799 -16.031   5.027  1.00  0.00    -0.003 A 
HETATM   21  C   UNL     1      42.123 -17.020   5.769  1.00  0.00     0.042 A 
HETATM   22 CL   UNL     1      40.871 -17.999   5.086  1.00  0.00    -0.084 Cl
HETATM   23  C   UNL     1      42.437 -17.248   7.115  1.00  0.00     0.024 A 
HETATM   24  C   UNL     1      43.421 -16.492   7.748  1.00  0.00     0.002 A 
HETATM   25  C   UNL     1      44.097 -15.508   7.037  1.00  0.00     0.001 A 
HETATM   26  C   UNL     1      43.790 -15.281   5.693  1.00  0.00     0.011 A 
ENDBRANCH  16  20
ENDBRANCH  14  16
ENDBRANCH   1  14
TORSDOF 6
ENDMDL
MODEL 2
REMARK VINA RESULT:      -7.5      2.674      5.682
REMARK  6 active torsions:
REMARK  status: ('A' for Active; 'I' for Inactive)
REMARK    1  A    between atoms: C_8  and  N_9 
REMARK       I    between atoms: N_9  and  C_10 
REMARK    2  A    between atoms: C_10  and  C_11 
REMARK    3  A    between atoms: C_11  and  N_12 
REMARK    4  A    between atoms: N_12  and  C_13 
REMARK    5  A    between atoms: C_13  and  C_14 
REMARK    6  A    between atoms: C_13  and  C_17 
ROOT
HETATM    1  C   UNL     1      41.725 -16.284   5.550  1.00  0.00     0.372 C 
ENDROOT
BRANCH   1   2
HETATM    2  C   UNL     1      41.783 -15.565   4.198  1.00  0.00     0.250 C 
HETATM    3  N   UNL     1      41.661 -16.449   3.145  1.00  0.00    -0.322 N 
HETATM    4  H   UNL     1      41.693 -17.430   3.403  1.00  0.00     0.169 HD
HETATM    5  O   UNL     1      41.883 -14.344   4.140  1.00  0.00    -0.271 OA
BRANCH   3   6
HETATM    6  C   UNL     1      41.548 -16.154   1.798  1.00  0.00     0.085 A 
HETATM    7  C   UNL     1      42.478 -16.609   0.880  1.00  0.00     0.052 A 
HETATM    8  C   UNL     1      43.701 -17.432   1.016  1.00  0.00     0.072 C 
HETATM    9  N   UNL     1      42.059 -16.147  -0.335  1.00  0.00    -0.280 N 
HETATM   10  H   UNL     1      42.492 -16.286  -1.242  1.00  0.00     0.189 HD
HETATM   11  N   UNL     1      40.931 -15.436  -0.285  1.00  0.00    -0.177 NA
HETATM   12  C   UNL     1      40.597 -15.433   1.016  1.00  0.00     0.079 A 
HETATM   13  C   UNL     1      39.357 -14.721   1.413  1.00  0.00     0.075 C 
ENDBRANCH   3   6
ENDBRANCH   1   2
BRANCH   1  14
HETATM   14  N   UNL     1      41.766 -17.745   5.348  1.00  0.00     0.101 N 
HETATM   15  H   UNL     1      42.016 -17.923   4.374  1.00  0.00     0.317 HD
BRANCH  14  16
HETATM   16  C   UNL     1      42.755 -18.397   6.239  1.00  0.00     0.259 C 
BRANCH  16  17
HETATM   17  C   UNL     1      43.728 -17.408   6.960  1.00  0.00     0.015 C 
HETATM   18  C   UNL     1      43.518 -17.285   8.475  1.00  0.00     0.012 C 
HETATM   19  C   UNL     1      45.198 -17.744   6.683  1.00  0.00     0.012 C 
ENDBRANCH  16  17
BRANCH  16  20
HETATM   20  C   UNL     1      43.531 -19.484   5.489  1.00  0.00    -0.003 A 
HETATM   21  C   UNL     1      43.926 -20.684   6.113  1.00  0.00     0.042 A 
HETATM   22 CL   UNL     1      43.539 -21.045   7.760  1.00  0.00    -0.084 Cl
HETATM   23  C   UNL     1      44.669 -21.646   5.416  1.00  0.00     0.024 A 
HETATM   24  C   UNL     1      45.038 -21.428   4.090  1.00  0.00     0.002 A 
HETATM   25  C   UNL     1      44.664 -20.249   3.456  1.00  0.00     0.001 A 
HETATM   26  C   UNL     1      43.919 -19.289   4.147  1.00  0.00     0.011 A 
ENDBRANCH  16  20
ENDBRANCH  14  16
ENDBRANCH   1  14
TORSDOF 6
ENDMDL
MODEL 3
REMARK VINA RESULT:      -7.3      2.654      6.537
REMARK  6 active torsions:
REMARK  status: ('A' for Active; 'I' for Inactive)
REMARK    1  A    between atoms: C_8  and  N_9 
REMARK       I    between atoms: N_9  and  C_10 
REMARK    2  A    between atoms: C_10  and  C_11 
REMARK    3  A    between atoms: C_11  and  N_12 
REMARK    4  A    between atoms: N_12  and  C_13 
REMARK    5  A    between atoms: C_13  and  C_14 
REMARK    6  A    between atoms: C_13  and  C_17 
ROOT
HETATM    1  C   UNL     1      42.011 -17.216   5.006  1.00  0.00     0.372 C 
ENDROOT
BRANCH   1   2
HETATM    2  C   UNL     1      41.814 -15.806   4.438  1.00  0.00     0.250 C 
HETATM    3  N   UNL     1      40.487 -15.550   4.159  1.00  0.00    -0.322 N 
HETATM    4  H   UNL     1      39.871 -16.354   4.232  1.00  0.00     0.169 HD
HETATM    5  O   UNL     1      42.763 -15.040   4.316  1.00  0.00    -0.271 OA
BRANCH   3   6
HETATM    6  C   UNL     1      39.919 -14.356   3.753  1.00  0.00     0.085 A 
HETATM    7  C   UNL     1      39.692 -13.324   4.647  1.00  0.00     0.052 A 
HETATM    8  C   UNL     1      39.944 -13.184   6.100  1.00  0.00     0.072 C 
HETATM    9  N   UNL     1      39.140 -12.312   3.917  1.00  0.00    -0.280 N 
HETATM   10  H   UNL     1      38.843 -11.396   4.239  1.00  0.00     0.189 HD
HETATM   11  N   UNL     1      38.996 -12.595   2.622  1.00  0.00    -0.177 NA
HETATM   12  C   UNL     1      39.474 -13.844   2.498  1.00  0.00     0.079 A 
HETATM   13  C   UNL     1      39.466 -14.460   1.148  1.00  0.00     0.075 C 
ENDBRANCH   3   6
ENDBRANCH   1   2
BRANCH   1  14
HETATM   14  N   UNL     1      41.918 -18.215   3.923  1.00  0.00     0.101 N 
HETATM   15  H   UNL     1      41.179 -17.920   3.284  1.00  0.00     0.317 HD
BRANCH  14  16
HETATM   16  C   UNL     1      43.194 -18.341   3.179  1.00  0.00     0.259 C 
BRANCH  16  17
HETATM   17  C   UNL     1      43.144 -17.803   1.712  1.00  0.00     0.015 C 
HETATM   18  C   UNL     1      41.746 -17.412   1.215  1.00  0.00     0.012 C 
HETATM   19  C   UNL     1      44.100 -16.623   1.501  1.00  0.00     0.012 C 
ENDBRANCH  16  17
BRANCH  16  20
HETATM   20  C   UNL     1      43.708 -19.783   3.220  1.00  0.00    -0.003 A 
HETATM   21  C   UNL     1      44.414 -20.294   4.327  1.00  0.00     0.042 A 
HETATM   22 CL   UNL     1      44.727 -19.350   5.743  1.00  0.00    -0.084 Cl
HETATM   23  C   UNL     1      44.907 -21.605   4.323  1.00  0.00     0.024 A 
HETATM   24  C   UNL     1      44.713 -22.428   3.215  1.00  0.00     0.002 A 
HETATM   25  C   UNL     1      44.025 -21.944   2.109  1.00  0.00     0.001 A 
HETATM   26  C   UNL     1      43.528 -20.638   2.112  1.00  0.00     0.011 A 
ENDBRANCH  16  20
ENDBRANCH  14  16
ENDBRANCH   1  14
TORSDOF 6
ENDMDL
MODEL 4
REMARK VINA RESULT:      -7.2      2.913      5.954
REMARK  6 active torsions:
REMARK  status: ('A' for Active; 'I' for Inactive)
REMARK    1  A    between atoms: C_8  and  N_9 
REMARK       I    between atoms: N_9  and  C_10 
REMARK    2  A    between atoms: C_10  and  C_11 
REMARK    3  A    between atoms: C_11  and  N_12 
REMARK    4  A    between atoms: N_12  and  C_13 
REMARK    5  A    between atoms: C_13  and  C_14 
REMARK    6  A    between atoms: C_13  and  C_17 
ROOT
HETATM    1  C   UNL     1      43.084 -17.793   1.317  1.00  0.00     0.372 C 
ENDROOT
BRANCH   1   2
HETATM    2  C   UNL     1      41.803 -17.040   0.939  1.00  0.00     0.250 C 
HETATM    3  N   UNL     1      42.077 -15.905   0.204  1.00  0.00    -0.322 N 
HETATM    4  H   UNL     1      43.061 -15.661   0.143  1.00  0.00     0.169 HD
HETATM    5  O   UNL     1      40.702 -17.480   1.250  1.00  0.00    -0.271 OA
BRANCH   3   6
HETATM    6  C   UNL     1      41.177 -15.052  -0.408  1.00  0.00     0.085 A 
HETATM    7  C   UNL     1      40.543 -14.044   0.297  1.00  0.00     0.052 A 
HETATM    8  C   UNL     1      40.613 -13.614   1.713  1.00  0.00     0.072 C 
HETATM    9  N   UNL     1      39.745 -13.402  -0.605  1.00  0.00    -0.280 N 
HETATM   10  H   UNL     1      39.132 -12.609  -0.448  1.00  0.00     0.189 HD
HETATM   11  N   UNL     1      39.811 -13.903  -1.840  1.00  0.00    -0.177 NA
HETATM   12  C   UNL     1      40.689 -14.914  -1.742  1.00  0.00     0.079 A 
HETATM   13  C   UNL     1      41.001 -15.685  -2.972  1.00  0.00     0.075 C 
ENDBRANCH   3   6
ENDBRANCH   1   2
BRANCH   1  14
HETATM   14  N   UNL     1      42.841 -18.641   2.500  1.00  0.00     0.101 N 
HETATM   15  H   UNL     1      43.229 -19.566   2.312  1.00  0.00     0.317 HD
BRANCH  14  16
HETATM   16  C   UNL     1      43.470 -18.080   3.719  1.00  0.00     0.259 C 
BRANCH  16  17
HETATM   17  C   UNL     1      44.103 -19.147   4.671  1.00  0.00     0.015 C 
HETATM   18  C   UNL     1      44.850 -20.284   3.960  1.00  0.00     0.012 C 
HETATM   19  C   UNL     1      45.032 -18.509   5.710  1.00  0.00     0.012 C 
ENDBRANCH  16  17
BRANCH  16  20
HETATM   20  C   UNL     1      42.488 -17.181   4.475  1.00  0.00    -0.003 A 
HETATM   21  C   UNL     1      42.519 -15.777   4.360  1.00  0.00     0.042 A 
HETATM   22 CL   UNL     1      43.643 -14.956   3.332  1.00  0.00    -0.084 Cl
HETATM   23  C   UNL     1      41.635 -14.975   5.093  1.00  0.00     0.024 A 
HETATM   24  C   UNL     1      40.709 -15.555   5.957  1.00  0.00     0.002 A 
HETATM   25  C   UNL     1      40.663 -16.937   6.092  1.00  0.00     0.001 A 
HETATM   26  C   UNL     1      41.541 -17.740   5.359  1.00  0.00     0.011 A 
ENDBRANCH  16  20
ENDBRANCH  14  16
ENDBRANCH   1  14
TORSDOF 6
ENDMDL
MODEL 5
REMARK VINA RESULT:      -7.2      3.774      6.508
REMARK  6 active torsions:
REMARK  status: ('A' for Active; 'I' for Inactive)
REMARK    1  A    between atoms: C_8  and  N_9 
REMARK       I    between atoms: N_9  and  C_10 
REMARK    2  A    between atoms: C_10  and  C_11 
REMARK    3  A    between atoms: C_11  and  N_12 
REMARK    4  A    between atoms: N_12  and  C_13 
REMARK    5  A    between atoms: C_13  and  C_14 
REMARK    6  A    between atoms: C_13  and  C_17 
ROOT
HETATM    1  C   UNL     1      38.979 -14.928   1.657  1.00  0.00     0.372 C 
ENDROOT
BRANCH   1   2
HETATM    2  C   UNL     1      39.195 -14.357   0.252  1.00  0.00     0.250 C 
HETATM    3  N   UNL     1      40.390 -14.782  -0.293  1.00  0.00    -0.322 N 
HETATM    4  H   UNL     1      41.001 -15.278   0.348  1.00  0.00     0.169 HD
HETATM    5  O   UNL     1      38.344 -13.651  -0.277  1.00  0.00    -0.271 OA
BRANCH   3   6
HETATM    6  C   UNL     1      40.860 -14.571  -1.577  1.00  0.00     0.085 A 
HETATM    7  C   UNL     1      41.740 -13.542  -1.864  1.00  0.00     0.052 A 
HETATM    8  C   UNL     1      42.369 -12.498  -1.023  1.00  0.00     0.072 C 
HETATM    9  N   UNL     1      41.997 -13.633  -3.201  1.00  0.00    -0.280 N 
HETATM   10  H   UNL     1      42.601 -13.044  -3.765  1.00  0.00     0.189 HD
HETATM   11  N   UNL     1      41.364 -14.638  -3.808  1.00  0.00    -0.177 NA
HETATM   12  C   UNL     1      40.664 -15.231  -2.827  1.00  0.00     0.079 A 
HETATM   13  C   UNL     1      39.845 -16.418  -3.178  1.00  0.00     0.075 C 
ENDBRANCH   3   6
ENDBRANCH   1   2
BRANCH   1  14
HETATM   14  N   UNL     1      39.614 -16.256   1.766  1.00  0.00     0.101 N 
HETATM   15  H   UNL     1      40.146 -16.423   0.911  1.00  0.00     0.317 HD
BRANCH  14  16
HETATM   16  C   UNL     1      40.519 -16.340   2.936  1.00  0.00     0.259 C 
BRANCH  16  17
HETATM   17  C   UNL     1      40.895 -14.958   3.564  1.00  0.00     0.015 C 
HETATM   18  C   UNL     1      40.655 -14.848   5.076  1.00  0.00     0.012 C 
HETATM   19  C   UNL     1      42.344 -14.563   3.256  1.00  0.00     0.012 C 
ENDBRANCH  16  17
BRANCH  16  20
HETATM   20  C   UNL     1      41.773 -17.151   2.599  1.00  0.00    -0.003 A 
HETATM   21  C   UNL     1      42.400 -17.985   3.546  1.00  0.00     0.042 A 
HETATM   22 CL   UNL     1      41.788 -18.190   5.151  1.00  0.00    -0.084 Cl
HETATM   23  C   UNL     1      43.569 -18.687   3.224  1.00  0.00     0.024 A 
HETATM   24  C   UNL     1      44.138 -18.565   1.958  1.00  0.00     0.002 A 
HETATM   25  C   UNL     1      43.541 -17.744   1.010  1.00  0.00     0.001 A 
HETATM   26  C   UNL     1      42.372 -17.046   1.326  1.00  0.00     0.011 A 
ENDBRANCH  16  20
ENDBRANCH  14  16
ENDBRANCH   1  14
TORSDOF 6
ENDMDL
MODEL 6
REMARK VINA RESULT:      -7.2      3.818      6.776
REMARK  6 active torsions:
REMARK  status: ('A' for Active; 'I' for Inactive)
REMARK    1  A    between atoms: C_8  and  N_9 
REMARK       I    between atoms: N_9  and  C_10 
REMARK    2  A    between atoms: C_10  and  C_11 
REMARK    3  A    between atoms: C_11  and  N_12 
REMARK    4  A    between atoms: N_12  and  C_13 
REMARK    5  A    between atoms: C_13  and  C_14 
REMARK    6  A    between atoms: C_13  and  C_17 
ROOT
HETATM    1  C   UNL     1      39.144 -14.697   1.429  1.00  0.00     0.372 C 
ENDROOT
BRANCH   1   2
HETATM    2  C   UNL     1      39.510 -14.031   0.098  1.00  0.00     0.250 C 
HETATM    3  N   UNL     1      40.857 -14.149  -0.178  1.00  0.00    -0.322 N 
HETATM    4  H   UNL     1      41.419 -14.521   0.581  1.00  0.00     0.169 HD
HETATM    5  O   UNL     1      38.647 -13.515  -0.604  1.00  0.00    -0.271 OA
BRANCH   3   6
HETATM    6  C   UNL     1      41.522 -13.782  -1.334  1.00  0.00     0.085 A 
HETATM    7  C   UNL     1      41.468 -14.560  -2.477  1.00  0.00     0.052 A 
HETATM    8  C   UNL     1      40.787 -15.838  -2.787  1.00  0.00     0.072 C 
HETATM    9  N   UNL     1      42.218 -13.905  -3.410  1.00  0.00    -0.280 N 
HETATM   10  H   UNL     1      42.404 -14.179  -4.370  1.00  0.00     0.189 HD
HETATM   11  N   UNL     1      42.749 -12.762  -2.974  1.00  0.00    -0.177 NA
HETATM   12  C   UNL     1      42.329 -12.664  -1.702  1.00  0.00     0.079 A 
HETATM   13  C   UNL     1      42.746 -11.471  -0.923  1.00  0.00     0.075 C 
ENDBRANCH   3   6
ENDBRANCH   1   2
BRANCH   1  14
HETATM   14  N   UNL     1      39.754 -16.039   1.507  1.00  0.00     0.101 N 
HETATM   15  H   UNL     1      40.364 -16.157   0.697  1.00  0.00     0.317 HD
BRANCH  14  16
HETATM   16  C   UNL     1      40.543 -16.214   2.749  1.00  0.00     0.259 C 
BRANCH  16  17
HETATM   17  C   UNL     1      40.928 -14.878   3.465  1.00  0.00     0.015 C 
HETATM   18  C   UNL     1      40.457 -14.767   4.922  1.00  0.00     0.012 C 
HETATM   19  C   UNL     1      42.435 -14.607   3.403  1.00  0.00     0.012 C 
ENDBRANCH  16  17
BRANCH  16  20
HETATM   20  C   UNL     1      41.781 -17.077   2.492  1.00  0.00    -0.003 A 
HETATM   21  C   UNL     1      42.310 -17.937   3.475  1.00  0.00     0.042 A 
HETATM   22 CL   UNL     1      41.586 -18.115   5.037  1.00  0.00    -0.084 Cl
HETATM   23  C   UNL     1      43.466 -18.687   3.228  1.00  0.00     0.024 A 
HETATM   24  C   UNL     1      44.121 -18.590   2.002  1.00  0.00     0.002 A 
HETATM   25  C   UNL     1      43.622 -17.744   1.019  1.00  0.00     0.001 A 
HETATM   26  C   UNL     1      42.465 -16.998   1.261  1.00  0.00     0.011 A 
ENDBRANCH  16  20
ENDBRANCH  14  16
ENDBRANCH   1  14
TORSDOF 6
ENDMDL
MODEL 7
REMARK VINA RESULT:      -7.0      1.350      2.483
REMARK  6 active torsions:
REMARK  status: ('A' for Active; 'I' for Inactive)
REMARK    1  A    between atoms: C_8  and  N_9 
REMARK       I    between atoms: N_9  and  C_10 
REMARK    2  A    between atoms: C_10  and  C_11 
REMARK    3  A    between atoms: C_11  and  N_12 
REMARK    4  A    between atoms: N_12  and  C_13 
REMARK    5  A    between atoms: C_13  and  C_14 
REMARK    6  A    between atoms: C_13  and  C_17 
ROOT
HETATM    1  C   UNL     1      42.344 -17.226   0.769  1.00  0.00     0.372 C 
ENDROOT
BRANCH   1   2
HETATM    2  C   UNL     1      43.491 -17.834   1.584  1.00  0.00     0.250 C 
HETATM    3  N   UNL     1      43.069 -18.918   2.326  1.00  0.00    -0.322 N 
HETATM    4  H   UNL     1      42.065 -19.066   2.337  1.00  0.00     0.169 HD
HETATM    5  O   UNL     1      44.628 -17.383   1.501  1.00  0.00    -0.271 OA
BRANCH   3   6
HETATM    6  C   UNL     1      43.842 -19.784   3.079  1.00  0.00     0.085 A 
HETATM    7  C   UNL     1      44.133 -21.062   2.638  1.00  0.00     0.052 A 
HETATM    8  C   UNL     1      43.772 -21.804   1.408  1.00  0.00     0.072 C 
HETATM    9  N   UNL     1      44.910 -21.625   3.609  1.00  0.00    -0.280 N 
HETATM   10  H   UNL     1      45.314 -22.556   3.629  1.00  0.00     0.189 HD
HETATM   11  N   UNL     1      45.155 -20.817   4.642  1.00  0.00    -0.177 NA
HETATM   12  C   UNL     1      44.513 -19.678   4.334  1.00  0.00     0.079 A 
HETATM   13  C   UNL     1      44.600 -18.550   5.295  1.00  0.00     0.075 C 
ENDBRANCH   3   6
ENDBRANCH   1   2
BRANCH   1  14
HETATM   14  N   UNL     1      42.244 -15.778   1.040  1.00  0.00     0.101 N 
HETATM   15  H   UNL     1      41.899 -15.321   0.195  1.00  0.00     0.317 HD
BRANCH  14  16
HETATM   16  C   UNL     1      41.327 -15.491   2.168  1.00  0.00     0.259 C 
BRANCH  16  17
HETATM   17  C   UNL     1      40.248 -14.400   1.863  1.00  0.00     0.015 C 
HETATM   18  C   UNL     1      40.492 -13.590   0.583  1.00  0.00     0.012 C 
HETATM   19  C   UNL     1      38.833 -14.989   1.822  1.00  0.00     0.012 C 
ENDBRANCH  16  17
BRANCH  16  20
HETATM   20  C   UNL     1      42.114 -15.148   3.436  1.00  0.00    -0.003 A 
HETATM   21  C   UNL     1      42.026 -15.932   4.604  1.00  0.00     0.042 A 
HETATM   22 CL   UNL     1      41.055 -17.361   4.691  1.00  0.00    -0.084 Cl
HETATM   23  C   UNL     1      42.726 -15.575   5.763  1.00  0.00     0.024 A 
HETATM   24  C   UNL     1      43.519 -14.429   5.784  1.00  0.00     0.002 A 
HETATM   25  C   UNL     1      43.616 -13.638   4.647  1.00  0.00     0.001 A 
HETATM   26  C   UNL     1      42.923 -13.993   3.486  1.00  0.00     0.011 A 
ENDBRANCH  16  20
ENDBRANCH  14  16
ENDBRANCH   1  14
TORSDOF 6
ENDMDL
MODEL 8
REMARK VINA RESULT:      -7.0      3.532      6.065
REMARK  6 active torsions:
REMARK  status: ('A' for Active; 'I' for Inactive)
REMARK    1  A    between atoms: C_8  and  N_9 
REMARK       I    between atoms: N_9  and  C_10 
REMARK    2  A    between atoms: C_10  and  C_11 
REMARK    3  A    between atoms: C_11  and  N_12 
REMARK    4  A    between atoms: N_12  and  C_13 
REMARK    5  A    between atoms: C_13  and  C_14 
REMARK    6  A    between atoms: C_13  and  C_17 
ROOT
HETATM    1  C   UNL     1      40.120 -15.772   1.902  1.00  0.00     0.372 C 
ENDROOT
BRANCH   1   2
HETATM    2  C   UNL     1      40.900 -15.800   0.583  1.00  0.00     0.250 C 
HETATM    3  N   UNL     1      40.280 -15.044  -0.392  1.00  0.00    -0.322 N 
HETATM    4  H   UNL     1      39.355 -14.707  -0.149  1.00  0.00     0.169 HD
HETATM    5  O   UNL     1      41.962 -16.406   0.495  1.00  0.00    -0.271 OA
BRANCH   3   6
HETATM    6  C   UNL     1      40.751 -14.740  -1.657  1.00  0.00     0.085 A 
HETATM    7  C   UNL     1      41.615 -13.680  -1.870  1.00  0.00     0.052 A 
HETATM    8  C   UNL     1      42.224 -12.685  -0.958  1.00  0.00     0.072 C 
HETATM    9  N   UNL     1      41.877 -13.676  -3.209  1.00  0.00    -0.280 N 
HETATM   10  H   UNL     1      42.473 -13.040  -3.730  1.00  0.00     0.189 HD
HETATM   11  N   UNL     1      41.262 -14.648  -3.885  1.00  0.00    -0.177 NA
HETATM   12  C   UNL     1      40.569 -15.317  -2.949  1.00  0.00     0.079 A 
HETATM   13  C   UNL     1      39.769 -16.490  -3.382  1.00  0.00     0.075 C 
ENDBRANCH   3   6
ENDBRANCH   1   2
BRANCH   1  14
HETATM   14  N   UNL     1      40.410 -16.989   2.686  1.00  0.00     0.101 N 
HETATM   15  H   UNL     1      40.971 -17.613   2.105  1.00  0.00     0.317 HD
BRANCH  14  16
HETATM   16  C   UNL     1      41.147 -16.678   3.933  1.00  0.00     0.259 C 
BRANCH  16  17
HETATM   17  C   UNL     1      41.738 -15.231   3.992  1.00  0.00     0.015 C 
HETATM   18  C   UNL     1      41.319 -14.412   5.220  1.00  0.00     0.012 C 
HETATM   19  C   UNL     1      43.268 -15.232   3.888  1.00  0.00     0.012 C 
ENDBRANCH  16  17
BRANCH  16  20
HETATM   20  C   UNL     1      42.229 -17.727   4.202  1.00  0.00    -0.003 A 
HETATM   21  C   UNL     1      42.647 -18.051   5.509  1.00  0.00     0.042 A 
HETATM   22 CL   UNL     1      41.950 -17.319   6.914  1.00  0.00    -0.084 Cl
HETATM   23  C   UNL     1      43.667 -18.986   5.726  1.00  0.00     0.024 A 
HETATM   24  C   UNL     1      44.293 -19.609   4.650  1.00  0.00     0.002 A 
HETATM   25  C   UNL     1      43.902 -19.302   3.353  1.00  0.00     0.001 A 
HETATM   26  C   UNL     1      42.882 -18.373   3.131  1.00  0.00     0.011 A 
ENDBRANCH  16  20
ENDBRANCH  14  16
ENDBRANCH   1  14
TORSDOF 6
ENDMDL
MODEL 9
REMARK VINA RESULT:      -7.0      3.356      5.727
REMARK  6 active torsions:
REMARK  status: ('A' for Active; 'I' for Inactive)
REMARK    1  A    between atoms: C_8  and  N_9 
REMARK       I    between atoms: N_9  and  C_10 
REMARK    2  A    between atoms: C_10  and  C_11 
REMARK    3  A    between atoms: C_11  and  N_12 
REMARK    4  A    between atoms: N_12  and  C_13 
REMARK    5  A    between atoms: C_13  and  C_14 
REMARK    6  A    between atoms: C_13  and  C_17 
ROOT
HETATM    1  C   UNL     1      43.695 -14.146   3.359  1.00  0.00     0.372 C 
ENDROOT
BRANCH   1   2
HETATM    2  C   UNL     1      42.541 -13.613   2.503  1.00  0.00     0.250 C 
HETATM    3  N   UNL     1      42.257 -14.457   1.448  1.00  0.00    -0.322 N 
HETATM    4  H   UNL     1      42.922 -15.211   1.311  1.00  0.00     0.169 HD
HETATM    5  O   UNL     1      41.960 -12.578   2.807  1.00  0.00    -0.271 OA
BRANCH   3   6
HETATM    6  C   UNL     1      41.212 -14.366   0.546  1.00  0.00     0.085 A 
HETATM    7  C   UNL     1      39.939 -14.803   0.868  1.00  0.00     0.052 A 
HETATM    8  C   UNL     1      39.369 -15.413   2.092  1.00  0.00     0.072 C 
HETATM    9  N   UNL     1      39.170 -14.558  -0.233  1.00  0.00    -0.280 N 
HETATM   10  H   UNL     1      38.182 -14.747  -0.362  1.00  0.00     0.189 HD
HETATM   11  N   UNL     1      39.834 -13.991  -1.241  1.00  0.00    -0.177 NA
HETATM   12  C   UNL     1      41.089 -13.859  -0.782  1.00  0.00     0.079 A 
HETATM   13  C   UNL     1      42.095 -13.237  -1.679  1.00  0.00     0.075 C 
ENDBRANCH   3   6
ENDBRANCH   1   2
BRANCH   1  14
HETATM   14  N   UNL     1      43.245 -14.333   4.753  1.00  0.00     0.101 N 
HETATM   15  H   UNL     1      42.676 -13.527   5.012  1.00  0.00     0.317 HD
BRANCH  14  16
HETATM   16  C   UNL     1      42.449 -15.572   4.913  1.00  0.00     0.259 C 
BRANCH  16  17
HETATM   17  C   UNL     1      41.337 -15.491   6.010  1.00  0.00     0.015 C 
HETATM   18  C   UNL     1      40.294 -14.387   5.791  1.00  0.00     0.012 C 
HETATM   19  C   UNL     1      40.618 -16.831   6.199  1.00  0.00     0.012 C 
ENDBRANCH  16  17
BRANCH  16  20
HETATM   20  C   UNL     1      43.361 -16.781   5.142  1.00  0.00    -0.003 A 
HETATM   21  C   UNL     1      43.376 -17.883   4.265  1.00  0.00     0.042 A 
HETATM   22 CL   UNL     1      42.395 -17.948   2.840  1.00  0.00    -0.084 Cl
HETATM   23  C   UNL     1      44.192 -18.993   4.518  1.00  0.00     0.024 A 
HETATM   24  C   UNL     1      45.000 -19.030   5.652  1.00  0.00     0.002 A 
HETATM   25  C   UNL     1      44.998 -17.957   6.535  1.00  0.00     0.001 A 
HETATM   26  C   UNL     1      44.189 -16.846   6.283  1.00  0.00     0.011 A 
ENDBRANCH  16  20
ENDBRANCH  14  16
ENDBRANCH   1  14
TORSDOF 6
ENDMDL
MODEL 10
REMARK VINA RESULT:      -7.0      3.196      7.012
REMARK  6 active torsions:
REMARK  status: ('A' for Active; 'I' for Inactive)
REMARK    1  A    between atoms: C_8  and  N_9 
REMARK       I    between atoms: N_9  and  C_10 
REMARK    2  A    between atoms: C_10  and  C_11 
REMARK    3  A    between atoms: C_11  and  N_12 
REMARK    4  A    between atoms: N_12  and  C_13 
REMARK    5  A    between atoms: C_13  and  C_14 
REMARK    6  A    between atoms: C_13  and  C_17 
ROOT
HETATM    1  C   UNL     1      42.682 -14.890   2.583  1.00  0.00     0.372 C 
ENDROOT
BRANCH   1   2
HETATM    2  C   UNL     1      42.046 -13.673   3.263  1.00  0.00     0.250 C 
HETATM    3  N   UNL     1      40.674 -13.668   3.119  1.00  0.00    -0.322 N 
HETATM    4  H   UNL     1      40.307 -14.368   2.482  1.00  0.00     0.169 HD
HETATM    5  O   UNL     1      42.734 -12.869   3.882  1.00  0.00    -0.271 OA
BRANCH   3   6
HETATM    6  C   UNL     1      39.763 -12.801   3.696  1.00  0.00     0.085 A 
HETATM    7  C   UNL     1      38.933 -12.007   2.925  1.00  0.00     0.052 A 
HETATM    8  C   UNL     1      38.772 -11.851   1.461  1.00  0.00     0.072 C 
HETATM    9  N   UNL     1      38.171 -11.297   3.807  1.00  0.00    -0.280 N 
HETATM   10  H   UNL     1      37.448 -10.613   3.604  1.00  0.00     0.189 HD
HETATM   11  N   UNL     1      38.429 -11.568   5.087  1.00  0.00    -0.177 NA
HETATM   12  C   UNL     1      39.401 -12.494   5.042  1.00  0.00     0.079 A 
HETATM   13  C   UNL     1      39.914 -13.026   6.329  1.00  0.00     0.075 C 
ENDBRANCH   3   6
ENDBRANCH   1   2
BRANCH   1  14
HETATM   14  N   UNL     1      43.426 -15.692   3.574  1.00  0.00     0.101 N 
HETATM   15  H   UNL     1      43.671 -15.082   4.355  1.00  0.00     0.317 HD
BRANCH  14  16
HETATM   16  C   UNL     1      42.625 -16.835   4.071  1.00  0.00     0.259 C 
BRANCH  16  17
HETATM   17  C   UNL     1      42.416 -16.854   5.621  1.00  0.00     0.015 C 
HETATM   18  C   UNL     1      43.062 -15.683   6.374  1.00  0.00     0.012 C 
HETATM   19  C   UNL     1      40.933 -16.936   5.998  1.00  0.00     0.012 C 
ENDBRANCH  16  17
BRANCH  16  20
HETATM   20  C   UNL     1      43.206 -18.163   3.578  1.00  0.00    -0.003 A 
HETATM   21  C   UNL     1      42.798 -18.752   2.364  1.00  0.00     0.042 A 
HETATM   22 CL   UNL     1      41.638 -18.010   1.317  1.00  0.00    -0.084 Cl
HETATM   23  C   UNL     1      43.317 -19.987   1.955  1.00  0.00     0.024 A 
HETATM   24  C   UNL     1      44.244 -20.661   2.747  1.00  0.00     0.002 A 
HETATM   25  C   UNL     1      44.657 -20.102   3.950  1.00  0.00     0.001 A 
HETATM   26  C   UNL     1      44.145 -18.868   4.360  1.00  0.00     0.011 A 
ENDBRANCH  16  20
ENDBRANCH  14  16
ENDBRANCH   1  14
TORSDOF 6
ENDMDL
