MODEL 1
REMARK VINA RESULT:      -8.4      0.000      0.000
REMARK  5 active torsions:
REMARK  status: ('A' for Active; 'I' for Inactive)
REMARK    1  A    between atoms: C_2  and  N_3 
REMARK       I    between atoms: N_3  and  C_4 
REMARK       I    between atoms: C_4  and  N_5 
REMARK    2  A    between atoms: C_7  and  C_8 
REMARK    3  A    between atoms: C_13  and  N_14 
REMARK       I    between atoms: N_14  and  C_15 
REMARK    4  A    between atoms: C_15  and  C_16 
REMARK    5  A    between atoms: C_19  and  O_20 
ROOT
HETATM    1  C   UNL     1      40.039 -14.353   4.429  1.00  0.00     0.088 A 
HETATM    2  N   UNL     1      39.615 -13.491   5.375  1.00  0.00    -0.177 NA
HETATM    3  N   UNL     1      40.024 -14.027   6.531  1.00  0.00    -0.287 N 
HETATM    4  H   UNL     1      39.794 -13.539   7.391  1.00  0.00     0.188 HD
HETATM    5  C   UNL     1      40.746 -15.170   6.380  1.00  0.00     0.141 A 
HETATM    6  C   UNL     1      40.702 -15.464   5.039  1.00  0.00     0.079 A 
ENDROOT
BRANCH   1   7
HETATM    7  C   UNL     1      39.960 -13.953   2.966  1.00  0.00     0.060 C 
HETATM    8  C   UNL     1      39.212 -14.952   2.071  1.00  0.00     0.138 C 
HETATM    9  N   UNL     1      39.184 -14.511   0.672  1.00  0.00    -0.334 N 
HETATM   10  C   UNL     1      40.143 -15.028  -0.190  1.00  0.00     0.318 C 
HETATM   11  C   UNL     1      38.530 -13.221   0.469  1.00  0.00     0.127 C 
HETATM   12  N   UNL     1      39.961 -14.675  -1.505  1.00  0.00    -0.339 N 
HETATM   13  O   UNL     1      41.060 -15.758   0.178  1.00  0.00    -0.247 OA
HETATM   14  H   UNL     1      38.991 -14.541  -1.747  1.00  0.00     0.164 HD
HETATM   15  C   UNL     1      39.254 -12.151   1.283  1.00  0.00     0.021 C 
HETATM   16  C   UNL     1      39.343 -12.543   2.760  1.00  0.00     0.014 C 
BRANCH  12  17
HETATM   17  C   UNL     1      40.808 -15.223  -2.556  1.00  0.00     0.078 C 
HETATM   18  C   UNL     1      41.448 -14.086  -3.347  1.00  0.00     0.032 C 
HETATM   19  C   UNL     1      40.006 -16.136  -3.482  1.00  0.00     0.032 C 
ENDBRANCH  12  17
ENDBRANCH   1   7
BRANCH   6  20
HETATM   20  N   UNL     1      41.286 -16.592   4.491  1.00  0.00    -0.320 N 
HETATM   21  C   UNL     1      42.638 -16.579   4.181  1.00  0.00     0.256 C 
HETATM   22  O   UNL     1      43.396 -15.624   4.311  1.00  0.00    -0.267 OA
HETATM   23  H   UNL     1      40.729 -17.084   3.802  1.00  0.00     0.169 HD
BRANCH  21  24
HETATM   24  C   UNL     1      43.146 -17.836   3.577  1.00  0.00     0.032 A 
HETATM   25  C   UNL     1      43.935 -18.690   4.352  1.00  0.00     0.020 A 
HETATM   26  C   UNL     1      44.396 -19.890   3.806  1.00  0.00     0.038 A 
HETATM   27  C   UNL     1      44.048 -20.257   2.503  1.00  0.00     0.068 A 
HETATM   28  C   UNL     1      43.259 -19.401   1.732  1.00  0.00     0.038 A 
HETATM   29  C   UNL     1      42.804 -18.192   2.268  1.00  0.00     0.020 A 
BRANCH  27  30
HETATM   30  O   UNL     1      44.543 -21.465   2.094  1.00  0.00    -0.356 OA
HETATM   31  C   UNL     1      44.592 -22.487   3.085  1.00  0.00     0.210 C 
ENDBRANCH  27  30
ENDBRANCH  21  24
ENDBRANCH   6  20
TORSDOF 5
ENDMDL
MODEL 2
REMARK VINA RESULT:      -8.1      2.535      5.710
REMARK  5 active torsions:
REMARK  status: ('A' for Active; 'I' for Inactive)
REMARK    1  A    between atoms: C_2  and  N_3 
REMARK       I    between atoms: N_3  and  C_4 
REMARK       I    between atoms: C_4  and  N_5 
REMARK    2  A    between atoms: C_7  and  C_8 
REMARK    3  A    between atoms: C_13  and  N_14 
REMARK       I    between atoms: N_14  and  C_15 
REMARK    4  A    between atoms: C_15  and  C_16 
REMARK    5  A    between atoms: C_19  and  O_20 
ROOT
HETATM    1  C   UNL     1      41.917 -14.718   1.297  1.00  0.00     0.088 A 
HETATM    2  N   UNL     1      41.530 -13.906   0.294  1.00  0.00    -0.177 NA
HETATM    3  N   UNL     1      41.292 -14.727  -0.736  1.00  0.00    -0.287 N 
HETATM    4  H   UNL     1      40.997 -14.317  -1.615  1.00  0.00     0.188 HD
HETATM    5  C   UNL     1      41.449 -16.044  -0.433  1.00  0.00     0.141 A 
HETATM    6  C   UNL     1      41.941 -16.076   0.849  1.00  0.00     0.079 A 
ENDROOT
BRANCH   1   7
HETATM    7  C   UNL     1      42.045 -14.157   2.703  1.00  0.00     0.060 C 
HETATM    8  C   UNL     1      40.983 -14.661   3.690  1.00  0.00     0.138 C 
HETATM    9  N   UNL     1      41.159 -14.073   5.023  1.00  0.00    -0.334 N 
HETATM   10  C   UNL     1      40.392 -12.959   5.345  1.00  0.00     0.318 C 
HETATM   11  C   UNL     1      42.450 -14.367   5.637  1.00  0.00     0.127 C 
HETATM   12  N   UNL     1      40.513 -12.558   6.653  1.00  0.00    -0.339 N 
HETATM   13  O   UNL     1      39.650 -12.394   4.546  1.00  0.00    -0.247 OA
HETATM   14  H   UNL     1      40.702 -13.322   7.285  1.00  0.00     0.164 HD
HETATM   15  C   UNL     1      43.569 -13.841   4.742  1.00  0.00     0.021 C 
HETATM   16  C   UNL     1      43.450 -14.397   3.320  1.00  0.00     0.014 C 
BRANCH  12  17
HETATM   17  C   UNL     1      39.695 -11.479   7.189  1.00  0.00     0.078 C 
HETATM   18  C   UNL     1      40.490 -10.177   7.185  1.00  0.00     0.032 C 
HETATM   19  C   UNL     1      39.212 -11.809   8.601  1.00  0.00     0.032 C 
ENDBRANCH  12  17
ENDBRANCH   1   7
BRANCH   6  20
HETATM   20  N   UNL     1      42.278 -17.247   1.502  1.00  0.00    -0.320 N 
HETATM   21  C   UNL     1      43.613 -17.603   1.622  1.00  0.00     0.256 C 
HETATM   22  O   UNL     1      44.566 -16.984   1.160  1.00  0.00    -0.267 OA
HETATM   23  H   UNL     1      41.674 -18.041   1.321  1.00  0.00     0.169 HD
BRANCH  21  24
HETATM   24  C   UNL     1      43.850 -18.891   2.321  1.00  0.00     0.032 A 
HETATM   25  C   UNL     1      43.760 -20.082   1.598  1.00  0.00     0.020 A 
HETATM   26  C   UNL     1      44.009 -21.299   2.236  1.00  0.00     0.038 A 
HETATM   27  C   UNL     1      44.380 -21.331   3.584  1.00  0.00     0.068 A 
HETATM   28  C   UNL     1      44.469 -20.138   4.304  1.00  0.00     0.038 A 
HETATM   29  C   UNL     1      44.208 -18.916   3.674  1.00  0.00     0.020 A 
BRANCH  27  30
HETATM   30  O   UNL     1      44.618 -22.581   4.085  1.00  0.00    -0.356 OA
HETATM   31  C   UNL     1      45.319 -22.633   5.323  1.00  0.00     0.210 C 
ENDBRANCH  27  30
ENDBRANCH  21  24
ENDBRANCH   6  20
TORSDOF 5
ENDMDL
MODEL 3
REMARK VINA RESULT:      -8.0      2.139      2.693
REMARK  5 active torsions:
REMARK  status: ('A' for Active; 'I' for Inactive)
REMARK    1  A    between atoms: C_2  and  N_3 
REMARK       I    between atoms: N_3  and  C_4 
REMARK       I    between atoms: C_4  and  N_5 
REMARK    2  A    between atoms: C_7  and  C_8 
REMARK    3  A    between atoms: C_13  and  N_14 
REMARK       I    between atoms: N_14  and  C_15 
REMARK    4  A    between atoms: C_15  and  C_16 
REMARK    5  A    between atoms: C_19  and  O_20 
ROOT
HETATM    1  C   UNL     1      40.279 -14.465   4.095  1.00  0.00     0.088 A 
HETATM    2  N   UNL     1      39.756 -13.574   4.960  1.00  0.00    -0.177 NA
HETATM    3  N   UNL     1      39.943 -14.122   6.167  1.00  0.00    -0.287 N 
HETATM    4  H   UNL     1      39.604 -13.616   6.978  1.00  0.00     0.188 HD
HETATM    5  C   UNL     1      40.616 -15.303   6.133  1.00  0.00     0.141 A 
HETATM    6  C   UNL     1      40.774 -15.605   4.802  1.00  0.00     0.079 A 
ENDROOT
BRANCH   1   7
HETATM    7  C   UNL     1      40.460 -14.073   2.638  1.00  0.00     0.060 C 
HETATM    8  C   UNL     1      41.891 -13.664   2.261  1.00  0.00     0.138 C 
HETATM    9  N   UNL     1      41.992 -13.287   0.847  1.00  0.00    -0.334 N 
HETATM   10  C   UNL     1      41.922 -11.936   0.530  1.00  0.00     0.318 C 
HETATM   11  C   UNL     1      41.621 -14.352  -0.080  1.00  0.00     0.127 C 
HETATM   12  N   UNL     1      42.165 -11.659  -0.794  1.00  0.00    -0.339 N 
HETATM   13  O   UNL     1      41.689 -11.058   1.357  1.00  0.00    -0.247 OA
HETATM   14  H   UNL     1      42.803 -12.312  -1.222  1.00  0.00     0.164 HD
HETATM   15  C   UNL     1      40.180 -14.779   0.189  1.00  0.00     0.021 C 
HETATM   16  C   UNL     1      39.983 -15.176   1.655  1.00  0.00     0.014 C 
BRANCH  12  17
HETATM   17  C   UNL     1      42.242 -10.287  -1.274  1.00  0.00     0.078 C 
HETATM   18  C   UNL     1      41.597 -10.185  -2.653  1.00  0.00     0.032 C 
HETATM   19  C   UNL     1      43.693  -9.807  -1.325  1.00  0.00     0.032 C 
ENDBRANCH  12  17
ENDBRANCH   1   7
BRANCH   6  20
HETATM   20  N   UNL     1      41.377 -16.767   4.355  1.00  0.00    -0.320 N 
HETATM   21  C   UNL     1      42.744 -16.782   4.124  1.00  0.00     0.256 C 
HETATM   22  O   UNL     1      43.504 -15.826   4.243  1.00  0.00    -0.267 OA
HETATM   23  H   UNL     1      40.856 -17.295   3.665  1.00  0.00     0.169 HD
BRANCH  21  24
HETATM   24  C   UNL     1      43.273 -18.076   3.625  1.00  0.00     0.032 A 
HETATM   25  C   UNL     1      43.994 -18.895   4.495  1.00  0.00     0.020 A 
HETATM   26  C   UNL     1      44.472 -20.128   4.048  1.00  0.00     0.038 A 
HETATM   27  C   UNL     1      44.209 -20.561   2.745  1.00  0.00     0.068 A 
HETATM   28  C   UNL     1      43.488 -19.739   1.876  1.00  0.00     0.038 A 
HETATM   29  C   UNL     1      43.017 -18.497   2.315  1.00  0.00     0.020 A 
BRANCH  27  30
HETATM   30  O   UNL     1      44.712 -21.795   2.436  1.00  0.00    -0.356 OA
HETATM   31  C   UNL     1      44.693 -22.757   3.484  1.00  0.00     0.210 C 
ENDBRANCH  27  30
ENDBRANCH  21  24
ENDBRANCH   6  20
TORSDOF 5
ENDMDL
MODEL 4
REMARK VINA RESULT:      -8.0      2.709      5.910
REMARK  5 active torsions:
REMARK  status: ('A' for Active; 'I' for Inactive)
REMARK    1  A    between atoms: C_2  and  N_3 
REMARK       I    between atoms: N_3  and  C_4 
REMARK       I    between atoms: C_4  and  N_5 
REMARK    2  A    between atoms: C_7  and  C_8 
REMARK    3  A    between atoms: C_13  and  N_14 
REMARK       I    between atoms: N_14  and  C_15 
REMARK    4  A    between atoms: C_15  and  C_16 
REMARK    5  A    between atoms: C_19  and  O_20 
ROOT
HETATM    1  C   UNL     1      40.224 -14.421   3.346  1.00  0.00     0.088 A 
HETATM    2  N   UNL     1      39.331 -13.774   2.572  1.00  0.00    -0.177 NA
HETATM    3  N   UNL     1      39.002 -14.657   1.620  1.00  0.00    -0.287 N 
HETATM    4  H   UNL     1      38.341 -14.367   0.908  1.00  0.00     0.188 HD
HETATM    5  C   UNL     1      39.597 -15.871   1.772  1.00  0.00     0.141 A 
HETATM    6  C   UNL     1      40.465 -15.732   2.827  1.00  0.00     0.079 A 
ENDROOT
BRANCH   1   7
HETATM    7  C   UNL     1      40.644 -13.809   4.671  1.00  0.00     0.060 C 
HETATM    8  C   UNL     1      41.915 -12.951   4.602  1.00  0.00     0.138 C 
HETATM    9  N   UNL     1      42.270 -12.401   5.916  1.00  0.00    -0.334 N 
HETATM   10  C   UNL     1      43.220 -13.082   6.667  1.00  0.00     0.318 C 
HETATM   11  C   UNL     1      41.240 -11.548   6.500  1.00  0.00     0.127 C 
HETATM   12  N   UNL     1      43.596 -12.429   7.816  1.00  0.00    -0.339 N 
HETATM   13  O   UNL     1      43.704 -14.160   6.331  1.00  0.00    -0.247 OA
HETATM   14  H   UNL     1      43.549 -11.424   7.732  1.00  0.00     0.164 HD
HETATM   15  C   UNL     1      39.949 -12.347   6.661  1.00  0.00     0.021 C 
HETATM   16  C   UNL     1      39.515 -12.972   5.332  1.00  0.00     0.014 C 
BRANCH  12  17
HETATM   17  C   UNL     1      44.663 -12.946   8.661  1.00  0.00     0.078 C 
HETATM   18  C   UNL     1      44.474 -12.450  10.092  1.00  0.00     0.032 C 
HETATM   19  C   UNL     1      46.033 -12.532   8.126  1.00  0.00     0.032 C 
ENDBRANCH  12  17
ENDBRANCH   1   7
BRANCH   6  20
HETATM   20  N   UNL     1      41.298 -16.747   3.262  1.00  0.00    -0.320 N 
HETATM   21  C   UNL     1      42.533 -16.925   2.658  1.00  0.00     0.256 C 
HETATM   22  O   UNL     1      42.972 -16.275   1.715  1.00  0.00    -0.267 OA
HETATM   23  H   UNL     1      40.841 -17.623   3.487  1.00  0.00     0.169 HD
BRANCH  21  24
HETATM   24  C   UNL     1      43.327 -18.059   3.193  1.00  0.00     0.032 A 
HETATM   25  C   UNL     1      43.637 -18.088   4.554  1.00  0.00     0.020 A 
HETATM   26  C   UNL     1      44.357 -19.163   5.077  1.00  0.00     0.038 A 
HETATM   27  C   UNL     1      44.743 -20.226   4.255  1.00  0.00     0.068 A 
HETATM   28  C   UNL     1      44.432 -20.194   2.894  1.00  0.00     0.038 A 
HETATM   29  C   UNL     1      43.720 -19.114   2.361  1.00  0.00     0.020 A 
BRANCH  27  30
HETATM   30  O   UNL     1      45.423 -21.229   4.891  1.00  0.00    -0.356 OA
HETATM   31  C   UNL     1      44.852 -22.529   4.794  1.00  0.00     0.210 C 
ENDBRANCH  27  30
ENDBRANCH  21  24
ENDBRANCH   6  20
TORSDOF 5
ENDMDL
MODEL 5
REMARK VINA RESULT:      -7.8      2.864      6.609
REMARK  5 active torsions:
REMARK  status: ('A' for Active; 'I' for Inactive)
REMARK    1  A    between atoms: C_2  and  N_3 
REMARK       I    between atoms: N_3  and  C_4 
REMARK       I    between atoms: C_4  and  N_5 
REMARK    2  A    between atoms: C_7  and  C_8 
REMARK    3  A    between atoms: C_13  and  N_14 
REMARK       I    between atoms: N_14  and  C_15 
REMARK    4  A    between atoms: C_15  and  C_16 
REMARK    5  A    between atoms: C_19  and  O_20 
ROOT
HETATM    1  C   UNL     1      43.103 -17.600   5.437  1.00  0.00     0.088 A 
HETATM    2  N   UNL     1      43.818 -18.572   6.036  1.00  0.00    -0.177 NA
HETATM    3  N   UNL     1      43.624 -18.379   7.347  1.00  0.00    -0.287 N 
HETATM    4  H   UNL     1      44.092 -19.003   7.995  1.00  0.00     0.188 HD
HETATM    5  C   UNL     1      42.767 -17.361   7.629  1.00  0.00     0.141 A 
HETATM    6  C   UNL     1      42.477 -16.773   6.422  1.00  0.00     0.079 A 
ENDROOT
BRANCH   1   7
HETATM    7  C   UNL     1      42.894 -17.646   3.933  1.00  0.00     0.060 C 
HETATM    8  C   UNL     1      43.518 -16.472   3.166  1.00  0.00     0.138 C 
HETATM    9  N   UNL     1      43.270 -16.573   1.724  1.00  0.00    -0.334 N 
HETATM   10  C   UNL     1      42.198 -15.860   1.200  1.00  0.00     0.318 C 
HETATM   11  C   UNL     1      43.807 -17.784   1.112  1.00  0.00     0.127 C 
HETATM   12  N   UNL     1      42.121 -15.896  -0.171  1.00  0.00    -0.339 N 
HETATM   13  O   UNL     1      41.402 -15.229   1.890  1.00  0.00    -0.247 OA
HETATM   14  H   UNL     1      43.023 -15.978  -0.616  1.00  0.00     0.164 HD
HETATM   15  C   UNL     1      43.188 -19.009   1.780  1.00  0.00     0.021 C 
HETATM   16  C   UNL     1      43.390 -18.974   3.298  1.00  0.00     0.014 C 
BRANCH  12  17
HETATM   17  C   UNL     1      41.127 -15.111  -0.890  1.00  0.00     0.078 C 
HETATM   18  C   UNL     1      40.868 -15.734  -2.259  1.00  0.00     0.032 C 
HETATM   19  C   UNL     1      41.582 -13.659  -1.040  1.00  0.00     0.032 C 
ENDBRANCH  12  17
ENDBRANCH   1   7
BRANCH   6  20
HETATM   20  N   UNL     1      41.666 -15.659   6.297  1.00  0.00    -0.320 N 
HETATM   21  C   UNL     1      42.229 -14.436   5.965  1.00  0.00     0.256 C 
HETATM   22  O   UNL     1      43.425 -14.218   5.799  1.00  0.00    -0.267 OA
HETATM   23  H   UNL     1      40.925 -15.577   6.984  1.00  0.00     0.169 HD
BRANCH  21  24
HETATM   24  C   UNL     1      41.264 -13.312   5.884  1.00  0.00     0.032 A 
HETATM   25  C   UNL     1      41.743 -12.002   5.941  1.00  0.00     0.020 A 
HETATM   26  C   UNL     1      40.850 -10.933   5.836  1.00  0.00     0.038 A 
HETATM   27  C   UNL     1      39.486 -11.166   5.642  1.00  0.00     0.068 A 
HETATM   28  C   UNL     1      39.010 -12.478   5.586  1.00  0.00     0.038 A 
HETATM   29  C   UNL     1      39.898 -13.552   5.702  1.00  0.00     0.020 A 
BRANCH  27  30
HETATM   30  O   UNL     1      38.719 -10.038   5.532  1.00  0.00    -0.356 OA
HETATM   31  C   UNL     1      39.067  -8.961   6.396  1.00  0.00     0.210 C 
ENDBRANCH  27  30
ENDBRANCH  21  24
ENDBRANCH   6  20
TORSDOF 5
ENDMDL
MODEL 6
REMARK VINA RESULT:      -7.7      2.534      3.066
REMARK  5 active torsions:
REMARK  status: ('A' for Active; 'I' for Inactive)
REMARK    1  A    between atoms: C_2  and  N_3 
REMARK       I    between atoms: N_3  and  C_4 
REMARK       I    between atoms: C_4  and  N_5 
REMARK    2  A    between atoms: C_7  and  C_8 
REMARK    3  A    between atoms: C_13  and  N_14 
REMARK       I    between atoms: N_14  and  C_15 
REMARK    4  A    between atoms: C_15  and  C_16 
REMARK    5  A    between atoms: C_19  and  O_20 
ROOT
HETATM    1  C   UNL     1      42.515 -14.060   5.331  1.00  0.00     0.088 A 
HETATM    2  N   UNL     1      42.408 -12.876   5.966  1.00  0.00    -0.177 NA
HETATM    3  N   UNL     1      43.263 -12.961   6.992  1.00  0.00    -0.287 N 
HETATM    4  H   UNL     1      43.333 -12.169   7.622  1.00  0.00     0.188 HD
HETATM    5  C   UNL     1      43.967 -14.124   7.022  1.00  0.00     0.141 A 
HETATM    6  C   UNL     1      43.448 -14.901   6.015  1.00  0.00     0.079 A 
ENDROOT
BRANCH   1   7
HETATM    7  C   UNL     1      41.861 -14.240   3.972  1.00  0.00     0.060 C 
HETATM    8  C   UNL     1      42.841 -14.518   2.824  1.00  0.00     0.138 C 
HETATM    9  N   UNL     1      42.146 -14.669   1.541  1.00  0.00    -0.334 N 
HETATM   10  C   UNL     1      42.069 -13.558   0.711  1.00  0.00     0.318 C 
HETATM   11  C   UNL     1      41.178 -15.762   1.516  1.00  0.00     0.127 C 
HETATM   12  N   UNL     1      41.528 -13.820  -0.525  1.00  0.00    -0.339 N 
HETATM   13  O   UNL     1      42.471 -12.442   1.033  1.00  0.00    -0.247 OA
HETATM   14  H   UNL     1      41.712 -14.759  -0.845  1.00  0.00     0.164 HD
HETATM   15  C   UNL     1      40.124 -15.531   2.596  1.00  0.00     0.021 C 
HETATM   16  C   UNL     1      40.770 -15.346   3.972  1.00  0.00     0.014 C 
BRANCH  12  17
HETATM   17  C   UNL     1      41.478 -12.795  -1.558  1.00  0.00     0.078 C 
HETATM   18  C   UNL     1      40.180 -12.922  -2.349  1.00  0.00     0.032 C 
HETATM   19  C   UNL     1      42.686 -12.900  -2.489  1.00  0.00     0.032 C 
ENDBRANCH  12  17
ENDBRANCH   1   7
BRANCH   6  20
HETATM   20  N   UNL     1      43.876 -16.191   5.756  1.00  0.00    -0.320 N 
HETATM   21  C   UNL     1      43.240 -17.259   6.372  1.00  0.00     0.256 C 
HETATM   22  O   UNL     1      42.325 -17.179   7.184  1.00  0.00    -0.267 OA
HETATM   23  H   UNL     1      44.879 -16.316   5.690  1.00  0.00     0.169 HD
BRANCH  21  24
HETATM   24  C   UNL     1      43.801 -18.591   6.035  1.00  0.00     0.032 A 
HETATM   25  C   UNL     1      43.474 -19.687   6.836  1.00  0.00     0.020 A 
HETATM   26  C   UNL     1      43.971 -20.951   6.514  1.00  0.00     0.038 A 
HETATM   27  C   UNL     1      44.766 -21.133   5.379  1.00  0.00     0.068 A 
HETATM   28  C   UNL     1      45.092 -20.035   4.580  1.00  0.00     0.038 A 
HETATM   29  C   UNL     1      44.608 -18.763   4.904  1.00  0.00     0.020 A 
BRANCH  27  30
HETATM   30  O   UNL     1      45.171 -22.422   5.160  1.00  0.00    -0.356 OA
HETATM   31  C   UNL     1      44.717 -23.022   3.952  1.00  0.00     0.210 C 
ENDBRANCH  27  30
ENDBRANCH  21  24
ENDBRANCH   6  20
TORSDOF 5
ENDMDL
MODEL 7
REMARK VINA RESULT:      -7.7      2.835      7.771
REMARK  5 active torsions:
REMARK  status: ('A' for Active; 'I' for Inactive)
REMARK    1  A    between atoms: C_2  and  N_3 
REMARK       I    between atoms: N_3  and  C_4 
REMARK       I    between atoms: C_4  and  N_5 
REMARK    2  A    between atoms: C_7  and  C_8 
REMARK    3  A    between atoms: C_13  and  N_14 
REMARK       I    between atoms: N_14  and  C_15 
REMARK    4  A    between atoms: C_15  and  C_16 
REMARK    5  A    between atoms: C_19  and  O_20 
ROOT
HETATM    1  C   UNL     1      43.912 -19.662   3.794  1.00  0.00     0.088 A 
HETATM    2  N   UNL     1      44.682 -20.767   3.745  1.00  0.00    -0.177 NA
HETATM    3  N   UNL     1      44.482 -21.266   2.519  1.00  0.00    -0.287 N 
HETATM    4  H   UNL     1      44.963 -22.123   2.269  1.00  0.00     0.188 HD
HETATM    5  C   UNL     1      43.662 -20.505   1.745  1.00  0.00     0.141 A 
HETATM    6  C   UNL     1      43.200 -19.504   2.564  1.00  0.00     0.079 A 
ENDROOT
BRANCH   1   7
HETATM    7  C   UNL     1      44.064 -18.699   4.959  1.00  0.00     0.060 C 
HETATM    8  C   UNL     1      42.852 -17.785   5.193  1.00  0.00     0.138 C 
HETATM    9  N   UNL     1      43.069 -16.875   6.323  1.00  0.00    -0.334 N 
HETATM   10  C   UNL     1      43.513 -15.588   6.041  1.00  0.00     0.318 C 
HETATM   11  C   UNL     1      43.313 -17.551   7.592  1.00  0.00     0.127 C 
HETATM   12  N   UNL     1      43.556 -14.760   7.137  1.00  0.00    -0.339 N 
HETATM   13  O   UNL     1      43.818 -15.208   4.913  1.00  0.00    -0.247 OA
HETATM   14  H   UNL     1      42.855 -14.983   7.827  1.00  0.00     0.164 HD
HETATM   15  C   UNL     1      44.547 -18.441   7.465  1.00  0.00     0.021 C 
HETATM   16  C   UNL     1      44.409 -19.416   6.292  1.00  0.00     0.014 C 
BRANCH  12  17
HETATM   17  C   UNL     1      43.890 -13.349   7.001  1.00  0.00     0.078 C 
HETATM   18  C   UNL     1      44.649 -12.877   8.237  1.00  0.00     0.032 C 
HETATM   19  C   UNL     1      42.631 -12.508   6.792  1.00  0.00     0.032 C 
ENDBRANCH  12  17
ENDBRANCH   1   7
BRANCH   6  20
HETATM   20  N   UNL     1      42.294 -18.544   2.150  1.00  0.00    -0.320 N 
HETATM   21  C   UNL     1      42.755 -17.381   1.552  1.00  0.00     0.256 C 
HETATM   22  O   UNL     1      43.931 -17.081   1.376  1.00  0.00    -0.267 OA
HETATM   23  H   UNL     1      41.510 -18.383   2.773  1.00  0.00     0.169 HD
BRANCH  21  24
HETATM   24  C   UNL     1      41.692 -16.417   1.172  1.00  0.00     0.032 A 
HETATM   25  C   UNL     1      40.571 -16.285   1.994  1.00  0.00     0.020 A 
HETATM   26  C   UNL     1      39.578 -15.361   1.664  1.00  0.00     0.038 A 
HETATM   27  C   UNL     1      39.712 -14.546   0.536  1.00  0.00     0.068 A 
HETATM   28  C   UNL     1      40.834 -14.682  -0.284  1.00  0.00     0.038 A 
HETATM   29  C   UNL     1      41.828 -15.614   0.034  1.00  0.00     0.020 A 
BRANCH  27  30
HETATM   30  O   UNL     1      38.683 -13.667   0.335  1.00  0.00    -0.356 OA
HETATM   31  C   UNL     1      37.406 -14.083   0.806  1.00  0.00     0.210 C 
ENDBRANCH  27  30
ENDBRANCH  21  24
ENDBRANCH   6  20
TORSDOF 5
ENDMDL
MODEL 8
REMARK VINA RESULT:      -7.5      1.750      2.112
REMARK  5 active torsions:
REMARK  status: ('A' for Active; 'I' for Inactive)
REMARK    1  A    between atoms: C_2  and  N_3 
REMARK       I    between atoms: N_3  and  C_4 
REMARK       I    between atoms: C_4  and  N_5 
REMARK    2  A    between atoms: C_7  and  C_8 
REMARK    3  A    between atoms: C_13  and  N_14 
REMARK       I    between atoms: N_14  and  C_15 
REMARK    4  A    between atoms: C_15  and  C_16 
REMARK    5  A    between atoms: C_19  and  O_20 
ROOT
HETATM    1  C   UNL     1      40.135 -14.418   3.645  1.00  0.00     0.088 A 
HETATM    2  N   UNL     1      39.586 -13.363   4.277  1.00  0.00    -0.177 NA
HETATM    3  N   UNL     1      39.875 -13.553   5.571  1.00  0.00    -0.287 N 
HETATM    4  H   UNL     1      39.538 -12.870   6.240  1.00  0.00     0.188 HD
HETATM    5  C   UNL     1      40.638 -14.654   5.804  1.00  0.00     0.141 A 
HETATM    6  C   UNL     1      40.754 -15.292   4.593  1.00  0.00     0.079 A 
ENDROOT
BRANCH   1   7
HETATM    7  C   UNL     1      40.211 -14.422   2.128  1.00  0.00     0.060 C 
HETATM    8  C   UNL     1      39.601 -13.184   1.456  1.00  0.00     0.138 C 
HETATM    9  N   UNL     1      39.698 -13.257  -0.006  1.00  0.00    -0.334 N 
HETATM   10  C   UNL     1      38.591 -13.722  -0.706  1.00  0.00     0.318 C 
HETATM   11  C   UNL     1      41.065 -13.352  -0.507  1.00  0.00     0.127 C 
HETATM   12  N   UNL     1      38.713 -13.626  -2.071  1.00  0.00    -0.339 N 
HETATM   13  O   UNL     1      37.579 -14.156  -0.162  1.00  0.00    -0.247 OA
HETATM   14  H   UNL     1      39.286 -12.849  -2.363  1.00  0.00     0.164 HD
HETATM   15  C   UNL     1      41.731 -14.599   0.069  1.00  0.00     0.021 C 
HETATM   16  C   UNL     1      41.659 -14.610   1.599  1.00  0.00     0.014 C 
BRANCH  12  17
HETATM   17  C   UNL     1      37.603 -13.963  -2.952  1.00  0.00     0.078 C 
HETATM   18  C   UNL     1      37.970 -15.171  -3.808  1.00  0.00     0.032 C 
HETATM   19  C   UNL     1      37.227 -12.773  -3.835  1.00  0.00     0.032 C 
ENDBRANCH  12  17
ENDBRANCH   1   7
BRANCH   6  20
HETATM   20  N   UNL     1      41.425 -16.490   4.429  1.00  0.00    -0.320 N 
HETATM   21  C   UNL     1      42.811 -16.499   4.405  1.00  0.00     0.256 C 
HETATM   22  O   UNL     1      43.538 -15.514   4.480  1.00  0.00    -0.267 OA
HETATM   23  H   UNL     1      41.016 -17.135   3.762  1.00  0.00     0.169 HD
BRANCH  21  24
HETATM   24  C   UNL     1      43.418 -17.838   4.200  1.00  0.00     0.032 A 
HETATM   25  C   UNL     1      44.054 -18.466   5.273  1.00  0.00     0.020 A 
HETATM   26  C   UNL     1      44.604 -19.738   5.102  1.00  0.00     0.038 A 
HETATM   27  C   UNL     1      44.495 -20.400   3.875  1.00  0.00     0.068 A 
HETATM   28  C   UNL     1      43.859 -19.769   2.804  1.00  0.00     0.038 A 
HETATM   29  C   UNL     1      43.316 -18.489   2.965  1.00  0.00     0.020 A 
BRANCH  27  30
HETATM   30  O   UNL     1      45.054 -21.648   3.843  1.00  0.00    -0.356 OA
HETATM   31  C   UNL     1      44.992 -22.391   5.056  1.00  0.00     0.210 C 
ENDBRANCH  27  30
ENDBRANCH  21  24
ENDBRANCH   6  20
TORSDOF 5
ENDMDL
MODEL 9
REMARK VINA RESULT:      -7.5      2.968      3.886
REMARK  5 active torsions:
REMARK  status: ('A' for Active; 'I' for Inactive)
REMARK    1  A    between atoms: C_2  and  N_3 
REMARK       I    between atoms: N_3  and  C_4 
REMARK       I    between atoms: C_4  and  N_5 
REMARK    2  A    between atoms: C_7  and  C_8 
REMARK    3  A    between atoms: C_13  and  N_14 
REMARK       I    between atoms: N_14  and  C_15 
REMARK    4  A    between atoms: C_15  and  C_16 
REMARK    5  A    between atoms: C_19  and  O_20 
ROOT
HETATM    1  C   UNL     1      43.050 -14.017   5.879  1.00  0.00     0.088 A 
HETATM    2  N   UNL     1      43.082 -12.879   6.600  1.00  0.00    -0.177 NA
HETATM    3  N   UNL     1      43.916 -13.141   7.613  1.00  0.00    -0.287 N 
HETATM    4  H   UNL     1      44.078 -12.412   8.299  1.00  0.00     0.188 HD
HETATM    5  C   UNL     1      44.476 -14.379   7.555  1.00  0.00     0.141 A 
HETATM    6  C   UNL     1      43.872 -15.012   6.496  1.00  0.00     0.079 A 
ENDROOT
BRANCH   1   7
HETATM    7  C   UNL     1      42.385 -14.017   4.513  1.00  0.00     0.060 C 
HETATM    8  C   UNL     1      41.908 -12.638   4.037  1.00  0.00     0.138 C 
HETATM    9  N   UNL     1      41.267 -12.711   2.719  1.00  0.00    -0.334 N 
HETATM   10  C   UNL     1      39.880 -12.791   2.677  1.00  0.00     0.318 C 
HETATM   11  C   UNL     1      42.135 -13.223   1.664  1.00  0.00     0.127 C 
HETATM   12  N   UNL     1      39.354 -12.715   1.411  1.00  0.00    -0.339 N 
HETATM   13  O   UNL     1      39.177 -12.896   3.680  1.00  0.00    -0.247 OA
HETATM   14  H   UNL     1      39.911 -12.152   0.785  1.00  0.00     0.164 HD
HETATM   15  C   UNL     1      42.610 -14.626   2.032  1.00  0.00     0.021 C 
HETATM   16  C   UNL     1      43.280 -14.641   3.409  1.00  0.00     0.014 C 
BRANCH  12  17
HETATM   17  C   UNL     1      37.915 -12.669   1.194  1.00  0.00     0.078 C 
HETATM   18  C   UNL     1      37.404 -14.057   0.821  1.00  0.00     0.032 C 
HETATM   19  C   UNL     1      37.558 -11.656   0.106  1.00  0.00     0.032 C 
ENDBRANCH  12  17
ENDBRANCH   1   7
BRANCH   6  20
HETATM   20  N   UNL     1      44.143 -16.321   6.140  1.00  0.00    -0.320 N 
HETATM   21  C   UNL     1      43.323 -17.339   6.604  1.00  0.00     0.256 C 
HETATM   22  O   UNL     1      42.365 -17.203   7.357  1.00  0.00    -0.267 OA
HETATM   23  H   UNL     1      45.123 -16.579   6.130  1.00  0.00     0.169 HD
BRANCH  21  24
HETATM   24  C   UNL     1      43.727 -18.702   6.177  1.00  0.00     0.032 A 
HETATM   25  C   UNL     1      44.318 -18.873   4.923  1.00  0.00     0.020 A 
HETATM   26  C   UNL     1      44.729 -20.145   4.520  1.00  0.00     0.038 A 
HETATM   27  C   UNL     1      44.582 -21.242   5.374  1.00  0.00     0.068 A 
HETATM   28  C   UNL     1      43.990 -21.068   6.626  1.00  0.00     0.038 A 
HETATM   29  C   UNL     1      43.565 -19.798   7.032  1.00  0.00     0.020 A 
BRANCH  27  30
HETATM   30  O   UNL     1      45.044 -22.428   4.872  1.00  0.00    -0.356 OA
HETATM   31  C   UNL     1      44.719 -22.698   3.513  1.00  0.00     0.210 C 
ENDBRANCH  27  30
ENDBRANCH  21  24
ENDBRANCH   6  20
TORSDOF 5
ENDMDL
MODEL 10
REMARK VINA RESULT:      -7.5      2.351      7.287
REMARK  5 active torsions:
REMARK  status: ('A' for Active; 'I' for Inactive)
REMARK    1  A    between atoms: C_2  and  N_3 
REMARK       I    between atoms: N_3  and  C_4 
REMARK       I    between atoms: C_4  and  N_5 
REMARK    2  A    between atoms: C_7  and  C_8 
REMARK    3  A    between atoms: C_13  and  N_14 
REMARK       I    between atoms: N_14  and  C_15 
REMARK    4  A    between atoms: C_15  and  C_16 
REMARK    5  A    between atoms: C_19  and  O_20 
ROOT
HETATM    1  C   UNL     1      42.925 -14.358   3.841  1.00  0.00     0.088 A 
HETATM    2  N   UNL     1      43.093 -13.792   5.053  1.00  0.00    -0.177 NA
HETATM    3  N   UNL     1      42.418 -12.638   4.985  1.00  0.00    -0.287 N 
HETATM    4  H   UNL     1      42.423 -12.034   5.800  1.00  0.00     0.188 HD
HETATM    5  C   UNL     1      41.768 -12.453   3.805  1.00  0.00     0.141 A 
HETATM    6  C   UNL     1      42.145 -13.502   3.003  1.00  0.00     0.079 A 
ENDROOT
BRANCH   1   7
HETATM    7  C   UNL     1      43.358 -15.798   3.625  1.00  0.00     0.060 C 
HETATM    8  C   UNL     1      42.417 -16.846   4.236  1.00  0.00     0.138 C 
HETATM    9  N   UNL     1      42.899 -18.211   4.000  1.00  0.00    -0.334 N 
HETATM   10  C   UNL     1      43.631 -18.823   5.011  1.00  0.00     0.318 C 
HETATM   11  C   UNL     1      43.027 -18.560   2.589  1.00  0.00     0.127 C 
HETATM   12  N   UNL     1      43.922 -20.143   4.768  1.00  0.00    -0.339 N 
HETATM   13  O   UNL     1      43.969 -18.251   6.044  1.00  0.00    -0.247 OA
HETATM   14  H   UNL     1      43.219 -20.607   4.213  1.00  0.00     0.164 HD
HETATM   15  C   UNL     1      44.000 -17.598   1.913  1.00  0.00     0.021 C 
HETATM   16  C   UNL     1      43.576 -16.141   2.126  1.00  0.00     0.014 C 
BRANCH  12  17
HETATM   17  C   UNL     1      44.583 -20.966   5.772  1.00  0.00     0.078 C 
HETATM   18  C   UNL     1      45.071 -22.264   5.137  1.00  0.00     0.032 C 
HETATM   19  C   UNL     1      43.644 -21.261   6.941  1.00  0.00     0.032 C 
ENDBRANCH  12  17
ENDBRANCH   1   7
BRANCH   6  20
HETATM   20  N   UNL     1      41.726 -13.642   1.692  1.00  0.00    -0.320 N 
HETATM   21  C   UNL     1      40.574 -14.364   1.416  1.00  0.00     0.256 C 
HETATM   22  O   UNL     1      39.877 -14.947   2.239  1.00  0.00    -0.267 OA
HETATM   23  H   UNL     1      42.460 -13.797   1.011  1.00  0.00     0.169 HD
BRANCH  21  24
HETATM   24  C   UNL     1      40.238 -14.465  -0.026  1.00  0.00     0.032 A 
HETATM   25  C   UNL     1      41.078 -15.195  -0.869  1.00  0.00     0.020 A 
HETATM   26  C   UNL     1      40.759 -15.323  -2.222  1.00  0.00     0.038 A 
HETATM   27  C   UNL     1      39.589 -14.754  -2.732  1.00  0.00     0.068 A 
HETATM   28  C   UNL     1      38.750 -14.024  -1.887  1.00  0.00     0.038 A 
HETATM   29  C   UNL     1      39.071 -13.881  -0.532  1.00  0.00     0.020 A 
BRANCH  27  30
HETATM   30  O   UNL     1      39.378 -14.970  -4.067  1.00  0.00    -0.356 OA
HETATM   31  C   UNL     1      38.856 -16.247  -4.417  1.00  0.00     0.210 C 
ENDBRANCH  27  30
ENDBRANCH  21  24
ENDBRANCH   6  20
TORSDOF 5
ENDMDL
