MODEL 1
REMARK VINA RESULT:     -10.5      0.000      0.000
REMARK  4 active torsions:
REMARK  status: ('A' for Active; 'I' for Inactive)
REMARK    1  A    between atoms: C_2  and  C_3 
REMARK    2  A    between atoms: N_16  and  C_17 
REMARK    3  A    between atoms: C_17  and  C_18 
REMARK       I    between atoms: C_18  and  N_19 
REMARK    4  A    between atoms: N_19  and  C_20 
ROOT
HETATM    1  C   UNL     1      44.253 -15.524   6.670  1.00  0.00     0.054 C 
HETATM    2  C   UNL     1      43.187 -15.426   5.578  1.00  0.00     0.140 C 
HETATM    3  N   UNL     1      41.887 -15.251   6.193  1.00  0.00    -0.321 N 
HETATM    4  C   UNL     1      41.220 -14.155   5.703  1.00  0.00     0.326 C 
HETATM    5  O   UNL     1      40.047 -13.921   5.934  1.00  0.00    -0.247 OA
HETATM    6  N   UNL     1      42.073 -13.437   4.926  1.00  0.00    -0.259 N 
HETATM    7  C   UNL     1      43.282 -14.067   4.838  1.00  0.00     0.261 C 
HETATM    8  O   UNL     1      44.261 -13.639   4.238  1.00  0.00    -0.270 OA
HETATM    9  H   UNL     1      41.392 -15.963   6.714  1.00  0.00     0.165 HD
ENDROOT
BRANCH   6  10
HETATM   10  C   UNL     1      41.683 -12.257   4.187  1.00  0.00     0.240 C 
BRANCH  10  11
HETATM   11  C   UNL     1      41.123 -12.591   2.808  1.00  0.00     0.240 C 
HETATM   12  N   UNL     1      42.057 -13.070   1.911  1.00  0.00    -0.324 N 
HETATM   13  H   UNL     1      42.972 -13.356   2.262  1.00  0.00     0.169 HD
HETATM   14  O   UNL     1      39.909 -12.546   2.610  1.00  0.00    -0.271 OA
BRANCH  12  15
HETATM   15  C   UNL     1      41.816 -13.471   0.570  1.00  0.00     0.064 A 
HETATM   16  C   UNL     1      42.166 -12.556  -0.435  1.00  0.00     0.093 A 
HETATM   17  C   UNL     1      41.965 -12.931  -1.784  1.00  0.00    -0.005 A 
HETATM   18  N   UNL     1      42.703 -11.357  -0.106  1.00  0.00    -0.258 NA
HETATM   19  C   UNL     1      42.345 -12.033  -2.789  1.00  0.00     0.015 A 
HETATM   20  C   UNL     1      41.404 -14.178  -2.101  1.00  0.00     0.014 A 
HETATM   21  C   UNL     1      42.908 -10.810  -2.448  1.00  0.00     0.020 A 
HETATM   22  C   UNL     1      43.062 -10.522  -1.106  1.00  0.00     0.117 A 
HETATM   23  C   UNL     1      41.043 -15.061  -1.091  1.00  0.00     0.003 A 
HETATM   24  C   UNL     1      41.249 -14.709   0.242  1.00  0.00     0.032 A 
ENDBRANCH  12  15
ENDBRANCH  10  11
ENDBRANCH   6  10
BRANCH   2  25
HETATM   25  C   UNL     1      43.204 -16.586   4.577  1.00  0.00    -0.020 A 
HETATM   26  C   UNL     1      43.928 -17.773   4.818  1.00  0.00     0.022 A 
HETATM   27  C   UNL     1      43.924 -18.852   3.914  1.00  0.00    -0.025 A 
HETATM   28  C   UNL     1      43.171 -18.753   2.727  1.00  0.00    -0.026 A 
HETATM   29  C   UNL     1      44.649 -20.028   4.172  1.00  0.00     0.012 A 
HETATM   30  C   UNL     1      42.437 -17.585   2.483  1.00  0.00     0.013 A 
HETATM   31  C   UNL     1      43.166 -19.831   1.823  1.00  0.00     0.012 A 
HETATM   32  C   UNL     1      42.447 -16.524   3.396  1.00  0.00     0.011 A 
HETATM   33  C   UNL     1      43.893 -20.991   2.093  1.00  0.00     0.001 A 
HETATM   34  C   UNL     1      44.634 -21.091   3.267  1.00  0.00     0.001 A 
ENDBRANCH   2  25
TORSDOF 4
ENDMDL
MODEL 2
REMARK VINA RESULT:     -10.2      1.677      2.975
REMARK  4 active torsions:
REMARK  status: ('A' for Active; 'I' for Inactive)
REMARK    1  A    between atoms: C_2  and  C_3 
REMARK    2  A    between atoms: N_16  and  C_17 
REMARK    3  A    between atoms: C_17  and  C_18 
REMARK       I    between atoms: C_18  and  N_19 
REMARK    4  A    between atoms: N_19  and  C_20 
ROOT
HETATM    1  C   UNL     1      43.409 -17.368   8.357  1.00  0.00     0.054 C 
HETATM    2  C   UNL     1      43.108 -16.945   6.919  1.00  0.00     0.140 C 
HETATM    3  N   UNL     1      41.714 -16.566   6.813  1.00  0.00    -0.321 N 
HETATM    4  C   UNL     1      41.552 -15.313   6.274  1.00  0.00     0.326 C 
HETATM    5  O   UNL     1      40.476 -14.865   5.921  1.00  0.00    -0.247 OA
HETATM    6  N   UNL     1      42.769 -14.715   6.189  1.00  0.00    -0.259 N 
HETATM    7  C   UNL     1      43.751 -15.569   6.605  1.00  0.00     0.261 C 
HETATM    8  O   UNL     1      44.943 -15.297   6.677  1.00  0.00    -0.270 OA
HETATM    9  H   UNL     1      40.934 -17.208   6.864  1.00  0.00     0.165 HD
ENDROOT
BRANCH   6  10
HETATM   10  C   UNL     1      42.983 -13.413   5.597  1.00  0.00     0.240 C 
BRANCH  10  11
HETATM   11  C   UNL     1      43.171 -13.484   4.085  1.00  0.00     0.240 C 
HETATM   12  N   UNL     1      42.020 -13.267   3.354  1.00  0.00    -0.324 N 
HETATM   13  H   UNL     1      41.201 -12.886   3.830  1.00  0.00     0.169 HD
HETATM   14  O   UNL     1      44.301 -13.593   3.610  1.00  0.00    -0.271 OA
BRANCH  12  15
HETATM   15  C   UNL     1      41.904 -13.260   1.938  1.00  0.00     0.064 A 
HETATM   16  C   UNL     1      41.684 -14.500   1.317  1.00  0.00     0.093 A 
HETATM   17  C   UNL     1      41.538 -14.529  -0.089  1.00  0.00    -0.005 A 
HETATM   18  N   UNL     1      41.596 -15.627   2.062  1.00  0.00    -0.258 NA
HETATM   19  C   UNL     1      41.284 -15.760  -0.708  1.00  0.00     0.015 A 
HETATM   20  C   UNL     1      41.637 -13.348  -0.841  1.00  0.00     0.014 A 
HETATM   21  C   UNL     1      41.181 -16.912   0.061  1.00  0.00     0.020 A 
HETATM   22  C   UNL     1      41.344 -16.794   1.428  1.00  0.00     0.117 A 
HETATM   23  C   UNL     1      41.877 -12.133  -0.209  1.00  0.00     0.003 A 
HETATM   24  C   UNL     1      42.010 -12.089   1.177  1.00  0.00     0.032 A 
ENDBRANCH  12  15
ENDBRANCH  10  11
ENDBRANCH   6  10
BRANCH   2  25
HETATM   25  C   UNL     1      43.510 -17.980   5.862  1.00  0.00    -0.020 A 
HETATM   26  C   UNL     1      43.831 -19.311   6.203  1.00  0.00     0.022 A 
HETATM   27  C   UNL     1      44.173 -20.272   5.232  1.00  0.00    -0.025 A 
HETATM   28  C   UNL     1      44.196 -19.902   3.873  1.00  0.00    -0.026 A 
HETATM   29  C   UNL     1      44.486 -21.595   5.588  1.00  0.00     0.012 A 
HETATM   30  C   UNL     1      43.866 -18.586   3.522  1.00  0.00     0.013 A 
HETATM   31  C   UNL     1      44.537 -20.861   2.903  1.00  0.00     0.012 A 
HETATM   32  C   UNL     1      43.522 -17.645   4.499  1.00  0.00     0.011 A 
HETATM   33  C   UNL     1      44.848 -22.170   3.273  1.00  0.00     0.001 A 
HETATM   34  C   UNL     1      44.822 -22.538   4.615  1.00  0.00     0.001 A 
ENDBRANCH   2  25
TORSDOF 4
ENDMDL
MODEL 3
REMARK VINA RESULT:     -10.0      1.842      2.537
REMARK  4 active torsions:
REMARK  status: ('A' for Active; 'I' for Inactive)
REMARK    1  A    between atoms: C_2  and  C_3 
REMARK    2  A    between atoms: N_16  and  C_17 
REMARK    3  A    between atoms: C_17  and  C_18 
REMARK       I    between atoms: C_18  and  N_19 
REMARK    4  A    between atoms: N_19  and  C_20 
ROOT
HETATM    1  C   UNL     1      43.415 -17.259   8.515  1.00  0.00     0.054 C 
HETATM    2  C   UNL     1      43.029 -17.053   7.050  1.00  0.00     0.140 C 
HETATM    3  N   UNL     1      41.615 -16.748   6.966  1.00  0.00    -0.321 N 
HETATM    4  C   UNL     1      41.372 -15.590   6.269  1.00  0.00     0.326 C 
HETATM    5  O   UNL     1      40.261 -15.238   5.914  1.00  0.00    -0.247 OA
HETATM    6  N   UNL     1      42.555 -14.962   6.039  1.00  0.00    -0.259 N 
HETATM    7  C   UNL     1      43.593 -15.711   6.517  1.00  0.00     0.261 C 
HETATM    8  O   UNL     1      44.774 -15.385   6.488  1.00  0.00    -0.270 OA
HETATM    9  H   UNL     1      40.869 -17.406   7.146  1.00  0.00     0.165 HD
ENDROOT
BRANCH   6  10
HETATM   10  C   UNL     1      42.681 -13.749   5.263  1.00  0.00     0.240 C 
BRANCH  10  11
HETATM   11  C   UNL     1      42.800 -14.023   3.767  1.00  0.00     0.240 C 
HETATM   12  N   UNL     1      41.626 -14.428   3.164  1.00  0.00    -0.324 N 
HETATM   13  H   UNL     1      40.750 -14.324   3.677  1.00  0.00     0.169 HD
HETATM   14  O   UNL     1      43.846 -13.759   3.174  1.00  0.00    -0.271 OA
BRANCH  12  15
HETATM   15  C   UNL     1      41.441 -14.736   1.790  1.00  0.00     0.064 A 
HETATM   16  C   UNL     1      40.896 -13.724   0.983  1.00  0.00     0.093 A 
HETATM   17  C   UNL     1      40.722 -13.985  -0.395  1.00  0.00    -0.005 A 
HETATM   18  N   UNL     1      40.570 -12.526   1.524  1.00  0.00    -0.258 NA
HETATM   19  C   UNL     1      40.211 -12.965  -1.208  1.00  0.00     0.015 A 
HETATM   20  C   UNL     1      41.064 -15.236  -0.933  1.00  0.00     0.014 A 
HETATM   21  C   UNL     1      39.890 -11.734  -0.652  1.00  0.00     0.020 A 
HETATM   22  C   UNL     1      40.085 -11.566   0.706  1.00  0.00     0.117 A 
HETATM   23  C   UNL     1      41.582 -16.232  -0.114  1.00  0.00     0.003 A 
HETATM   24  C   UNL     1      41.771 -15.983   1.244  1.00  0.00     0.032 A 
ENDBRANCH  12  15
ENDBRANCH  10  11
ENDBRANCH   6  10
BRANCH   2  25
HETATM   25  C   UNL     1      43.429 -18.210   6.127  1.00  0.00    -0.020 A 
HETATM   26  C   UNL     1      43.183 -18.178   4.738  1.00  0.00     0.022 A 
HETATM   27  C   UNL     1      43.574 -19.225   3.882  1.00  0.00    -0.025 A 
HETATM   28  C   UNL     1      44.237 -20.346   4.422  1.00  0.00    -0.026 A 
HETATM   29  C   UNL     1      43.324 -19.176   2.500  1.00  0.00     0.012 A 
HETATM   30  C   UNL     1      44.498 -20.382   5.799  1.00  0.00     0.013 A 
HETATM   31  C   UNL     1      44.628 -21.392   3.569  1.00  0.00     0.012 A 
HETATM   32  C   UNL     1      44.109 -19.329   6.634  1.00  0.00     0.011 A 
HETATM   33  C   UNL     1      44.371 -21.329   2.199  1.00  0.00     0.001 A 
HETATM   34  C   UNL     1      43.720 -20.221   1.664  1.00  0.00     0.001 A 
ENDBRANCH   2  25
TORSDOF 4
ENDMDL
MODEL 4
REMARK VINA RESULT:     -10.0      1.763      2.162
REMARK  4 active torsions:
REMARK  status: ('A' for Active; 'I' for Inactive)
REMARK    1  A    between atoms: C_2  and  C_3 
REMARK    2  A    between atoms: N_16  and  C_17 
REMARK    3  A    between atoms: C_17  and  C_18 
REMARK       I    between atoms: C_18  and  N_19 
REMARK    4  A    between atoms: N_19  and  C_20 
ROOT
HETATM    1  C   UNL     1      43.853 -15.333   6.246  1.00  0.00     0.054 C 
HETATM    2  C   UNL     1      42.950 -15.381   5.014  1.00  0.00     0.140 C 
HETATM    3  N   UNL     1      41.573 -15.186   5.421  1.00  0.00    -0.321 N 
HETATM    4  C   UNL     1      40.963 -14.168   4.731  1.00  0.00     0.326 C 
HETATM    5  O   UNL     1      39.766 -13.948   4.772  1.00  0.00    -0.247 OA
HETATM    6  N   UNL     1      41.904 -13.506   4.008  1.00  0.00    -0.259 N 
HETATM    7  C   UNL     1      43.125 -14.102   4.154  1.00  0.00     0.261 C 
HETATM    8  O   UNL     1      44.171 -13.707   3.653  1.00  0.00    -0.270 OA
HETATM    9  H   UNL     1      41.023 -15.856   5.941  1.00  0.00     0.165 HD
ENDROOT
BRANCH   6  10
HETATM   10  C   UNL     1      41.602 -12.420   3.101  1.00  0.00     0.240 C 
BRANCH  10  11
HETATM   11  C   UNL     1      41.683 -12.843   1.638  1.00  0.00     0.240 C 
HETATM   12  N   UNL     1      40.687 -13.713   1.237  1.00  0.00    -0.324 N 
HETATM   13  H   UNL     1      39.881 -13.850   1.848  1.00  0.00     0.169 HD
HETATM   14  O   UNL     1      42.506 -12.317   0.890  1.00  0.00    -0.271 OA
BRANCH  12  15
HETATM   15  C   UNL     1      40.509 -14.255  -0.063  1.00  0.00     0.064 A 
HETATM   16  C   UNL     1      39.471 -13.713  -0.837  1.00  0.00     0.093 A 
HETATM   17  C   UNL     1      39.280 -14.210  -2.147  1.00  0.00    -0.005 A 
HETATM   18  N   UNL     1      38.694 -12.724  -0.334  1.00  0.00    -0.258 NA
HETATM   19  C   UNL     1      38.267 -13.646  -2.933  1.00  0.00     0.015 A 
HETATM   20  C   UNL     1      40.095 -15.238  -2.645  1.00  0.00     0.014 A 
HETATM   21  C   UNL     1      37.481 -12.623  -2.419  1.00  0.00     0.020 A 
HETATM   22  C   UNL     1      37.731 -12.202  -1.127  1.00  0.00     0.117 A 
HETATM   23  C   UNL     1      41.104 -15.777  -1.856  1.00  0.00     0.003 A 
HETATM   24  C   UNL     1      41.311 -15.287  -0.568  1.00  0.00     0.032 A 
ENDBRANCH  12  15
ENDBRANCH  10  11
ENDBRANCH   6  10
BRANCH   2  25
HETATM   25  C   UNL     1      43.128 -16.636   4.152  1.00  0.00    -0.020 A 
HETATM   26  C   UNL     1      43.810 -17.777   4.625  1.00  0.00     0.022 A 
HETATM   27  C   UNL     1      43.951 -18.943   3.848  1.00  0.00    -0.025 A 
HETATM   28  C   UNL     1      43.393 -18.981   2.554  1.00  0.00    -0.026 A 
HETATM   29  C   UNL     1      44.630 -20.072   4.336  1.00  0.00     0.012 A 
HETATM   30  C   UNL     1      42.702 -17.858   2.079  1.00  0.00     0.013 A 
HETATM   31  C   UNL     1      43.533 -20.144   1.777  1.00  0.00     0.012 A 
HETATM   32  C   UNL     1      42.565 -16.710   2.868  1.00  0.00     0.011 A 
HETATM   33  C   UNL     1      44.213 -21.256   2.275  1.00  0.00     0.001 A 
HETATM   34  C   UNL     1      44.761 -21.222   3.554  1.00  0.00     0.001 A 
ENDBRANCH   2  25
TORSDOF 4
ENDMDL
MODEL 5
REMARK VINA RESULT:      -9.9      3.440      6.580
REMARK  4 active torsions:
REMARK  status: ('A' for Active; 'I' for Inactive)
REMARK    1  A    between atoms: C_2  and  C_3 
REMARK    2  A    between atoms: N_16  and  C_17 
REMARK    3  A    between atoms: C_17  and  C_18 
REMARK       I    between atoms: C_18  and  N_19 
REMARK    4  A    between atoms: N_19  and  C_20 
ROOT
HETATM    1  C   UNL     1      40.602 -16.611   6.600  1.00  0.00     0.054 C 
HETATM    2  C   UNL     1      41.082 -16.050   5.261  1.00  0.00     0.140 C 
HETATM    3  N   UNL     1      39.967 -15.429   4.575  1.00  0.00    -0.321 N 
HETATM    4  C   UNL     1      40.238 -14.135   4.203  1.00  0.00     0.326 C 
HETATM    5  O   UNL     1      39.526 -13.485   3.458  1.00  0.00    -0.247 OA
HETATM    6  N   UNL     1      41.409 -13.753   4.775  1.00  0.00    -0.259 N 
HETATM    7  C   UNL     1      41.959 -14.790   5.475  1.00  0.00     0.261 C 
HETATM    8  O   UNL     1      42.995 -14.734   6.128  1.00  0.00    -0.270 OA
HETATM    9  H   UNL     1      39.186 -15.927   4.170  1.00  0.00     0.165 HD
ENDROOT
BRANCH   6  10
HETATM   10  C   UNL     1      42.038 -12.473   4.537  1.00  0.00     0.240 C 
BRANCH  10  11
HETATM   11  C   UNL     1      41.701 -11.448   5.615  1.00  0.00     0.240 C 
HETATM   12  N   UNL     1      42.074 -11.817   6.893  1.00  0.00    -0.324 N 
HETATM   13  H   UNL     1      42.704 -12.611   7.010  1.00  0.00     0.169 HD
HETATM   14  O   UNL     1      41.258 -10.344   5.298  1.00  0.00    -0.271 OA
BRANCH  12  15
HETATM   15  C   UNL     1      41.898 -11.056   8.080  1.00  0.00     0.064 A 
HETATM   16  C   UNL     1      42.987 -11.004   8.964  1.00  0.00     0.093 A 
HETATM   17  C   UNL     1      42.857 -10.236  10.143  1.00  0.00    -0.005 A 
HETATM   18  N   UNL     1      44.133 -11.663   8.669  1.00  0.00    -0.258 NA
HETATM   19  C   UNL     1      43.955 -10.155  11.010  1.00  0.00     0.015 A 
HETATM   20  C   UNL     1      41.658  -9.564  10.430  1.00  0.00     0.014 A 
HETATM   21  C   UNL     1      45.133 -10.820  10.697  1.00  0.00     0.020 A 
HETATM   22  C   UNL     1      45.171 -11.555   9.528  1.00  0.00     0.117 A 
HETATM   23  C   UNL     1      40.584  -9.646   9.552  1.00  0.00     0.003 A 
HETATM   24  C   UNL     1      40.703 -10.390   8.380  1.00  0.00     0.032 A 
ENDBRANCH  12  15
ENDBRANCH  10  11
ENDBRANCH   6  10
BRANCH   2  25
HETATM   25  C   UNL     1      41.811 -17.069   4.378  1.00  0.00    -0.020 A 
HETATM   26  C   UNL     1      42.758 -17.973   4.905  1.00  0.00     0.022 A 
HETATM   27  C   UNL     1      43.409 -18.930   4.102  1.00  0.00    -0.025 A 
HETATM   28  C   UNL     1      43.108 -18.996   2.727  1.00  0.00    -0.026 A 
HETATM   29  C   UNL     1      44.348 -19.825   4.643  1.00  0.00     0.012 A 
HETATM   30  C   UNL     1      42.159 -18.112   2.196  1.00  0.00     0.013 A 
HETATM   31  C   UNL     1      43.757 -19.951   1.925  1.00  0.00     0.012 A 
HETATM   32  C   UNL     1      41.516 -17.172   3.009  1.00  0.00     0.011 A 
HETATM   33  C   UNL     1      44.689 -20.831   2.477  1.00  0.00     0.001 A 
HETATM   34  C   UNL     1      44.984 -20.769   3.836  1.00  0.00     0.001 A 
ENDBRANCH   2  25
TORSDOF 4
ENDMDL
MODEL 6
REMARK VINA RESULT:      -9.7      3.828      7.026
REMARK  4 active torsions:
REMARK  status: ('A' for Active; 'I' for Inactive)
REMARK    1  A    between atoms: C_2  and  C_3 
REMARK    2  A    between atoms: N_16  and  C_17 
REMARK    3  A    between atoms: C_17  and  C_18 
REMARK       I    between atoms: C_18  and  N_19 
REMARK    4  A    between atoms: N_19  and  C_20 
ROOT
HETATM    1  C   UNL     1      40.700 -16.434   6.396  1.00  0.00     0.054 C 
HETATM    2  C   UNL     1      41.971 -16.063   5.632  1.00  0.00     0.140 C 
HETATM    3  N   UNL     1      41.776 -14.790   4.968  1.00  0.00    -0.321 N 
HETATM    4  C   UNL     1      42.762 -13.884   5.275  1.00  0.00     0.326 C 
HETATM    5  O   UNL     1      42.907 -12.823   4.696  1.00  0.00    -0.247 OA
HETATM    6  N   UNL     1      43.522 -14.392   6.280  1.00  0.00    -0.259 N 
HETATM    7  C   UNL     1      43.100 -15.649   6.610  1.00  0.00     0.261 C 
HETATM    8  O   UNL     1      43.569 -16.342   7.505  1.00  0.00    -0.270 OA
HETATM    9  H   UNL     1      41.167 -14.636   4.176  1.00  0.00     0.165 HD
ENDROOT
BRANCH   6  10
HETATM   10  C   UNL     1      44.700 -13.737   6.805  1.00  0.00     0.240 C 
BRANCH  10  11
HETATM   11  C   UNL     1      44.445 -13.072   8.154  1.00  0.00     0.240 C 
HETATM   12  N   UNL     1      43.732 -11.891   8.086  1.00  0.00    -0.324 N 
HETATM   13  H   UNL     1      43.262 -11.652   7.212  1.00  0.00     0.169 HD
HETATM   14  O   UNL     1      44.753 -13.653   9.194  1.00  0.00    -0.271 OA
BRANCH  12  15
HETATM   15  C   UNL     1      43.342 -11.073   9.179  1.00  0.00     0.064 A 
HETATM   16  C   UNL     1      42.020 -10.601   9.174  1.00  0.00     0.093 A 
HETATM   17  C   UNL     1      41.588  -9.804  10.260  1.00  0.00    -0.005 A 
HETATM   18  N   UNL     1      41.186 -10.928   8.158  1.00  0.00    -0.258 NA
HETATM   19  C   UNL     1      40.259  -9.361  10.273  1.00  0.00     0.015 A 
HETATM   20  C   UNL     1      42.471  -9.476  11.299  1.00  0.00     0.014 A 
HETATM   21  C   UNL     1      39.403  -9.710   9.237  1.00  0.00     0.020 A 
HETATM   22  C   UNL     1      39.910 -10.485   8.212  1.00  0.00     0.117 A 
HETATM   23  C   UNL     1      43.783  -9.934  11.275  1.00  0.00     0.003 A 
HETATM   24  C   UNL     1      44.218 -10.731  10.218  1.00  0.00     0.032 A 
ENDBRANCH  12  15
ENDBRANCH  10  11
ENDBRANCH   6  10
BRANCH   2  25
HETATM   25  C   UNL     1      42.464 -17.149   4.669  1.00  0.00    -0.020 A 
HETATM   26  C   UNL     1      43.271 -18.223   5.102  1.00  0.00     0.022 A 
HETATM   27  C   UNL     1      43.702 -19.238   4.227  1.00  0.00    -0.025 A 
HETATM   28  C   UNL     1      43.318 -19.189   2.872  1.00  0.00    -0.026 A 
HETATM   29  C   UNL     1      44.503 -20.302   4.676  1.00  0.00     0.012 A 
HETATM   30  C   UNL     1      42.506 -18.135   2.434  1.00  0.00     0.013 A 
HETATM   31  C   UNL     1      43.748 -20.202   1.997  1.00  0.00     0.012 A 
HETATM   32  C   UNL     1      42.080 -17.138   3.319  1.00  0.00     0.011 A 
HETATM   33  C   UNL     1      44.545 -21.251   2.458  1.00  0.00     0.001 A 
HETATM   34  C   UNL     1      44.922 -21.302   3.797  1.00  0.00     0.001 A 
ENDBRANCH   2  25
TORSDOF 4
ENDMDL
MODEL 7
REMARK VINA RESULT:      -9.7      3.262      6.948
REMARK  4 active torsions:
REMARK  status: ('A' for Active; 'I' for Inactive)
REMARK    1  A    between atoms: C_2  and  C_3 
REMARK    2  A    between atoms: N_16  and  C_17 
REMARK    3  A    between atoms: C_17  and  C_18 
REMARK       I    between atoms: C_18  and  N_19 
REMARK    4  A    between atoms: N_19  and  C_20 
ROOT
HETATM    1  C   UNL     1      41.956 -16.323   1.108  1.00  0.00     0.054 C 
HETATM    2  C   UNL     1      42.628 -16.226   2.478  1.00  0.00     0.140 C 
HETATM    3  N   UNL     1      43.640 -15.191   2.443  1.00  0.00    -0.321 N 
HETATM    4  C   UNL     1      43.478 -14.267   3.446  1.00  0.00     0.326 C 
HETATM    5  O   UNL     1      44.309 -13.421   3.724  1.00  0.00    -0.247 OA
HETATM    6  N   UNL     1      42.283 -14.490   4.054  1.00  0.00    -0.259 N 
HETATM    7  C   UNL     1      41.671 -15.586   3.516  1.00  0.00     0.261 C 
HETATM    8  O   UNL     1      40.565 -16.007   3.834  1.00  0.00    -0.270 OA
HETATM    9  H   UNL     1      44.514 -15.252   1.937  1.00  0.00     0.165 HD
ENDROOT
BRANCH   6  10
HETATM   10  C   UNL     1      41.820 -13.749   5.206  1.00  0.00     0.240 C 
BRANCH  10  11
HETATM   11  C   UNL     1      42.849 -13.718   6.332  1.00  0.00     0.240 C 
HETATM   12  N   UNL     1      42.957 -12.502   6.976  1.00  0.00    -0.324 N 
HETATM   13  H   UNL     1      42.238 -11.795   6.814  1.00  0.00     0.169 HD
HETATM   14  O   UNL     1      43.408 -14.757   6.682  1.00  0.00    -0.271 OA
BRANCH  12  15
HETATM   15  C   UNL     1      43.817 -12.192   8.063  1.00  0.00     0.064 A 
HETATM   16  C   UNL     1      43.342 -11.260   8.999  1.00  0.00     0.093 A 
HETATM   17  C   UNL     1      44.161 -10.946  10.108  1.00  0.00    -0.005 A 
HETATM   18  N   UNL     1      42.119 -10.700   8.840  1.00  0.00    -0.258 NA
HETATM   19  C   UNL     1      43.674 -10.042  11.061  1.00  0.00     0.015 A 
HETATM   20  C   UNL     1      45.426 -11.536  10.251  1.00  0.00     0.014 A 
HETATM   21  C   UNL     1      42.414  -9.481  10.902  1.00  0.00     0.020 A 
HETATM   22  C   UNL     1      41.683  -9.837   9.784  1.00  0.00     0.117 A 
HETATM   23  C   UNL     1      45.888 -12.440   9.301  1.00  0.00     0.003 A 
HETATM   24  C   UNL     1      45.086 -12.768   8.210  1.00  0.00     0.032 A 
ENDBRANCH  12  15
ENDBRANCH  10  11
ENDBRANCH   6  10
BRANCH   2  25
HETATM   25  C   UNL     1      43.177 -17.558   3.003  1.00  0.00    -0.020 A 
HETATM   26  C   UNL     1      43.232 -18.714   2.197  1.00  0.00     0.022 A 
HETATM   27  C   UNL     1      43.762 -19.932   2.666  1.00  0.00    -0.025 A 
HETATM   28  C   UNL     1      44.259 -20.005   3.983  1.00  0.00    -0.026 A 
HETATM   29  C   UNL     1      43.812 -21.074   1.849  1.00  0.00     0.012 A 
HETATM   30  C   UNL     1      44.222 -18.859   4.788  1.00  0.00     0.013 A 
HETATM   31  C   UNL     1      44.789 -21.220   4.452  1.00  0.00     0.012 A 
HETATM   32  C   UNL     1      43.698 -17.655   4.303  1.00  0.00     0.011 A 
HETATM   33  C   UNL     1      44.829 -22.346   3.629  1.00  0.00     0.001 A 
HETATM   34  C   UNL     1      44.342 -22.273   2.328  1.00  0.00     0.001 A 
ENDBRANCH   2  25
TORSDOF 4
ENDMDL
MODEL 8
REMARK VINA RESULT:      -9.6      2.091      2.826
REMARK  4 active torsions:
REMARK  status: ('A' for Active; 'I' for Inactive)
REMARK    1  A    between atoms: C_2  and  C_3 
REMARK    2  A    between atoms: N_16  and  C_17 
REMARK    3  A    between atoms: C_17  and  C_18 
REMARK       I    between atoms: C_18  and  N_19 
REMARK    4  A    between atoms: N_19  and  C_20 
ROOT
HETATM    1  C   UNL     1      43.970 -14.777   3.126  1.00  0.00     0.054 C 
HETATM    2  C   UNL     1      42.842 -15.776   3.383  1.00  0.00     0.140 C 
HETATM    3  N   UNL     1      42.021 -15.300   4.478  1.00  0.00    -0.321 N 
HETATM    4  C   UNL     1      40.690 -15.238   4.145  1.00  0.00     0.326 C 
HETATM    5  O   UNL     1      39.801 -15.046   4.955  1.00  0.00    -0.247 OA
HETATM    6  N   UNL     1      40.565 -15.449   2.809  1.00  0.00    -0.259 N 
HETATM    7  C   UNL     1      41.784 -15.714   2.251  1.00  0.00     0.261 C 
HETATM    8  O   UNL     1      41.990 -15.908   1.059  1.00  0.00    -0.270 OA
HETATM    9  H   UNL     1      42.311 -15.266   5.447  1.00  0.00     0.165 HD
ENDROOT
BRANCH   6  10
HETATM   10  C   UNL     1      39.293 -15.528   2.126  1.00  0.00     0.240 C 
BRANCH  10  11
HETATM   11  C   UNL     1      39.103 -14.401   1.115  1.00  0.00     0.240 C 
HETATM   12  N   UNL     1      39.310 -14.769  -0.199  1.00  0.00    -0.324 N 
HETATM   13  H   UNL     1      39.367 -15.762  -0.427  1.00  0.00     0.169 HD
HETATM   14  O   UNL     1      38.669 -13.310   1.485  1.00  0.00    -0.271 OA
BRANCH  12  15
HETATM   15  C   UNL     1      39.189 -13.933  -1.342  1.00  0.00     0.064 A 
HETATM   16  C   UNL     1      40.360 -13.299  -1.787  1.00  0.00     0.093 A 
HETATM   17  C   UNL     1      40.283 -12.480  -2.937  1.00  0.00    -0.005 A 
HETATM   18  N   UNL     1      41.529 -13.495  -1.132  1.00  0.00    -0.258 NA
HETATM   19  C   UNL     1      41.457 -11.874  -3.403  1.00  0.00     0.015 A 
HETATM   20  C   UNL     1      39.059 -12.290  -3.597  1.00  0.00     0.014 A 
HETATM   21  C   UNL     1      42.657 -12.088  -2.737  1.00  0.00     0.020 A 
HETATM   22  C   UNL     1      42.640 -12.897  -1.617  1.00  0.00     0.117 A 
HETATM   23  C   UNL     1      37.907 -12.909  -3.128  1.00  0.00     0.003 A 
HETATM   24  C   UNL     1      37.971 -13.729  -2.003  1.00  0.00     0.032 A 
ENDBRANCH  12  15
ENDBRANCH  10  11
ENDBRANCH   6  10
BRANCH   2  25
HETATM   25  C   UNL     1      43.316 -17.218   3.597  1.00  0.00    -0.020 A 
HETATM   26  C   UNL     1      43.231 -18.193   2.581  1.00  0.00     0.022 A 
HETATM   27  C   UNL     1      43.691 -19.511   2.765  1.00  0.00    -0.025 A 
HETATM   28  C   UNL     1      44.260 -19.876   4.001  1.00  0.00    -0.026 A 
HETATM   29  C   UNL     1      43.602 -20.469   1.740  1.00  0.00     0.012 A 
HETATM   30  C   UNL     1      44.362 -18.913   5.013  1.00  0.00     0.013 A 
HETATM   31  C   UNL     1      44.721 -21.192   4.185  1.00  0.00     0.012 A 
HETATM   32  C   UNL     1      43.906 -17.605   4.811  1.00  0.00     0.011 A 
HETATM   33  C   UNL     1      44.622 -22.132   3.159  1.00  0.00     0.001 A 
HETATM   34  C   UNL     1      44.064 -21.771   1.936  1.00  0.00     0.001 A 
ENDBRANCH   2  25
TORSDOF 4
ENDMDL
MODEL 9
REMARK VINA RESULT:      -9.4      2.535      3.652
REMARK  4 active torsions:
REMARK  status: ('A' for Active; 'I' for Inactive)
REMARK    1  A    between atoms: C_2  and  C_3 
REMARK    2  A    between atoms: N_16  and  C_17 
REMARK    3  A    between atoms: C_17  and  C_18 
REMARK       I    between atoms: C_18  and  N_19 
REMARK    4  A    between atoms: N_19  and  C_20 
ROOT
HETATM    1  C   UNL     1      43.195 -17.108   0.622  1.00  0.00     0.054 C 
HETATM    2  C   UNL     1      43.022 -16.866   2.122  1.00  0.00     0.140 C 
HETATM    3  N   UNL     1      43.695 -15.637   2.489  1.00  0.00    -0.321 N 
HETATM    4  C   UNL     1      42.867 -14.767   3.156  1.00  0.00     0.326 C 
HETATM    5  O   UNL     1      43.260 -13.761   3.720  1.00  0.00    -0.247 OA
HETATM    6  N   UNL     1      41.595 -15.240   3.092  1.00  0.00    -0.259 N 
HETATM    7  C   UNL     1      41.566 -16.444   2.446  1.00  0.00     0.261 C 
HETATM    8  O   UNL     1      40.555 -17.093   2.203  1.00  0.00    -0.270 OA
HETATM    9  H   UNL     1      44.698 -15.510   2.511  1.00  0.00     0.165 HD
ENDROOT
BRANCH   6  10
HETATM   10  C   UNL     1      40.472 -14.614   3.753  1.00  0.00     0.240 C 
BRANCH  10  11
HETATM   11  C   UNL     1      39.766 -13.595   2.864  1.00  0.00     0.240 C 
HETATM   12  N   UNL     1      39.237 -14.119   1.702  1.00  0.00    -0.324 N 
HETATM   13  H   UNL     1      39.167 -15.133   1.608  1.00  0.00     0.169 HD
HETATM   14  O   UNL     1      39.594 -12.444   3.264  1.00  0.00    -0.271 OA
BRANCH  12  15
HETATM   15  C   UNL     1      38.519 -13.409   0.702  1.00  0.00     0.064 A 
HETATM   16  C   UNL     1      38.958 -13.566  -0.622  1.00  0.00     0.093 A 
HETATM   17  C   UNL     1      38.251 -12.895  -1.647  1.00  0.00    -0.005 A 
HETATM   18  N   UNL     1      40.020 -14.361  -0.896  1.00  0.00    -0.258 NA
HETATM   19  C   UNL     1      38.667 -13.078  -2.972  1.00  0.00     0.015 A 
HETATM   20  C   UNL     1      37.156 -12.074  -1.338  1.00  0.00     0.014 A 
HETATM   21  C   UNL     1      39.747 -13.905  -3.251  1.00  0.00     0.020 A 
HETATM   22  C   UNL     1      40.385 -14.516  -2.188  1.00  0.00     0.117 A 
HETATM   23  C   UNL     1      36.750 -11.914  -0.019  1.00  0.00     0.003 A 
HETATM   24  C   UNL     1      37.429 -12.580   0.999  1.00  0.00     0.032 A 
ENDBRANCH  12  15
ENDBRANCH  10  11
ENDBRANCH   6  10
BRANCH   2  25
HETATM   25  C   UNL     1      43.448 -18.047   3.002  1.00  0.00    -0.020 A 
HETATM   26  C   UNL     1      43.692 -19.329   2.467  1.00  0.00     0.022 A 
HETATM   27  C   UNL     1      44.111 -20.409   3.267  1.00  0.00    -0.025 A 
HETATM   28  C   UNL     1      44.299 -20.210   4.650  1.00  0.00    -0.026 A 
HETATM   29  C   UNL     1      44.353 -21.679   2.717  1.00  0.00     0.012 A 
HETATM   30  C   UNL     1      44.072 -18.937   5.190  1.00  0.00     0.013 A 
HETATM   31  C   UNL     1      44.717 -21.288   5.450  1.00  0.00     0.012 A 
HETATM   32  C   UNL     1      43.662 -17.873   4.379  1.00  0.00     0.011 A 
HETATM   33  C   UNL     1      44.951 -22.544   4.889  1.00  0.00     0.001 A 
HETATM   34  C   UNL     1      44.770 -22.740   3.523  1.00  0.00     0.001 A 
ENDBRANCH   2  25
TORSDOF 4
ENDMDL
MODEL 10
REMARK VINA RESULT:      -9.3      2.841      4.181
REMARK  4 active torsions:
REMARK  status: ('A' for Active; 'I' for Inactive)
REMARK    1  A    between atoms: C_2  and  C_3 
REMARK    2  A    between atoms: N_16  and  C_17 
REMARK    3  A    between atoms: C_17  and  C_18 
REMARK       I    between atoms: C_18  and  N_19 
REMARK    4  A    between atoms: N_19  and  C_20 
ROOT
HETATM    1  C   UNL     1      42.447 -16.116   1.261  1.00  0.00     0.054 C 
HETATM    2  C   UNL     1      42.879 -16.188   2.726  1.00  0.00     0.140 C 
HETATM    3  N   UNL     1      43.858 -15.152   2.988  1.00  0.00    -0.321 N 
HETATM    4  C   UNL     1      43.508 -14.360   4.054  1.00  0.00     0.326 C 
HETATM    5  O   UNL     1      44.261 -13.552   4.568  1.00  0.00    -0.247 OA
HETATM    6  N   UNL     1      42.235 -14.661   4.421  1.00  0.00    -0.259 N 
HETATM    7  C   UNL     1      41.748 -15.685   3.659  1.00  0.00     0.261 C 
HETATM    8  O   UNL     1      40.615 -16.147   3.734  1.00  0.00    -0.270 OA
HETATM    9  H   UNL     1      44.805 -15.147   2.632  1.00  0.00     0.165 HD
ENDROOT
BRANCH   6  10
HETATM   10  C   UNL     1      41.569 -14.071   5.560  1.00  0.00     0.240 C 
BRANCH  10  11
HETATM   11  C   UNL     1      40.338 -13.262   5.162  1.00  0.00     0.240 C 
HETATM   12  N   UNL     1      40.448 -12.615   3.947  1.00  0.00    -0.324 N 
HETATM   13  H   UNL     1      41.215 -12.868   3.323  1.00  0.00     0.169 HD
HETATM   14  O   UNL     1      39.313 -13.326   5.839  1.00  0.00    -0.271 OA
BRANCH  12  15
HETATM   15  C   UNL     1      39.458 -11.808   3.324  1.00  0.00     0.064 A 
HETATM   16  C   UNL     1      38.713 -12.404   2.294  1.00  0.00     0.093 A 
HETATM   17  C   UNL     1      37.701 -11.640   1.669  1.00  0.00    -0.005 A 
HETATM   18  N   UNL     1      38.956 -13.687   1.935  1.00  0.00    -0.258 NA
HETATM   19  C   UNL     1      36.934 -12.244   0.665  1.00  0.00     0.015 A 
HETATM   20  C   UNL     1      37.469 -10.311   2.056  1.00  0.00     0.014 A 
HETATM   21  C   UNL     1      37.177 -13.564   0.309  1.00  0.00     0.020 A 
HETATM   22  C   UNL     1      38.190 -14.235   0.966  1.00  0.00     0.117 A 
HETATM   23  C   UNL     1      38.232  -9.731   3.063  1.00  0.00     0.003 A 
HETATM   24  C   UNL     1      39.224 -10.478   3.696  1.00  0.00     0.032 A 
ENDBRANCH  12  15
ENDBRANCH  10  11
ENDBRANCH   6  10
BRANCH   2  25
HETATM   25  C   UNL     1      43.366 -17.572   3.170  1.00  0.00    -0.020 A 
HETATM   26  C   UNL     1      43.387 -18.675   2.291  1.00  0.00     0.022 A 
HETATM   27  C   UNL     1      43.860 -19.941   2.687  1.00  0.00    -0.025 A 
HETATM   28  C   UNL     1      44.333 -20.120   4.002  1.00  0.00    -0.026 A 
HETATM   29  C   UNL     1      43.877 -21.029   1.797  1.00  0.00     0.012 A 
HETATM   30  C   UNL     1      44.330 -19.028   4.880  1.00  0.00     0.013 A 
HETATM   31  C   UNL     1      44.806 -21.383   4.398  1.00  0.00     0.012 A 
HETATM   32  C   UNL     1      43.863 -17.774   4.468  1.00  0.00     0.011 A 
HETATM   33  C   UNL     1      44.814 -22.454   3.504  1.00  0.00     0.001 A 
HETATM   34  C   UNL     1      44.351 -22.278   2.203  1.00  0.00     0.001 A 
ENDBRANCH   2  25
TORSDOF 4
ENDMDL
