MODEL 1
REMARK VINA RESULT:      -9.8      0.000      0.000
REMARK  7 active torsions:
REMARK  status: ('A' for Active; 'I' for Inactive)
REMARK    1  A    between atoms: C_6  and  N_7 
REMARK    2  A    between atoms: N_7  and  C_8 
REMARK    3  A    between atoms: C_13  and  C_14 
REMARK       I    between atoms: C_14  and  N_15 
REMARK    4  A    between atoms: N_15  and  C_16 
REMARK    5  A    between atoms: C_16  and  C_17 
REMARK    6  A    between atoms: C_17  and  N_18 
REMARK       I    between atoms: N_18  and  C_19 
REMARK    7  A    between atoms: C_19  and  C_20 
ROOT
HETATM    1  C   UNL     1      42.652 -16.953   5.169  1.00  0.00     0.255 C 
HETATM    2  N   UNL     1      43.297 -15.783   5.505  1.00  0.00    -0.355 N 
HETATM    3  O   UNL     1      42.538 -17.909   5.930  1.00  0.00    -0.268 OA
HETATM    4  H   UNL     1      43.265 -14.985   4.884  1.00  0.00     0.162 HD
ENDROOT
BRANCH   1   5
HETATM    5  C   UNL     1      42.080 -17.018   3.803  1.00  0.00     0.077 A 
HETATM    6  C   UNL     1      42.761 -17.701   2.779  1.00  0.00     0.143 A 
HETATM    7  N   UNL     1      42.246 -17.738   1.524  1.00  0.00    -0.242 NA
HETATM    8  C   UNL     1      41.090 -17.086   1.270  1.00  0.00     0.119 A 
HETATM    9  C   UNL     1      40.379 -16.380   2.222  1.00  0.00     0.020 A 
HETATM   10  C   UNL     1      40.885 -16.345   3.514  1.00  0.00     0.022 A 
BRANCH   6  11
HETATM   11  N   UNL     1      43.946 -18.413   3.083  1.00  0.00    -0.340 N 
HETATM   12  H   UNL     1      44.760 -17.862   2.798  1.00  0.00     0.167 HD
BRANCH  11  13
HETATM   13  C   UNL     1      44.209 -19.795   3.146  1.00  0.00     0.036 A 
HETATM   14  C   UNL     1      44.615 -20.346   4.370  1.00  0.00     0.071 A 
HETATM   15  C   UNL     1      44.831 -21.718   4.496  1.00  0.00     0.118 A 
HETATM   16  C   UNL     1      44.633 -22.577   3.426  1.00  0.00     0.042 A 
HETATM   17  F   UNL     1      45.230 -22.214   5.675  1.00  0.00    -0.206 F 
HETATM   18  C   UNL     1      44.201 -22.055   2.212  1.00  0.00     0.005 A 
HETATM   19  C   UNL     1      43.981 -20.677   2.080  1.00  0.00     0.029 A 
ENDBRANCH  11  13
ENDBRANCH   6  11
ENDBRANCH   1   5
BRANCH   2  20
HETATM   20  C   UNL     1      43.910 -15.597   6.808  1.00  0.00     0.142 C 
BRANCH  20  21
HETATM   21  C   UNL     1      44.748 -14.315   6.877  1.00  0.00     0.142 C 
BRANCH  21  22
HETATM   22  N   UNL     1      44.190 -13.319   7.773  1.00  0.00    -0.355 N 
HETATM   23  C   UNL     1      45.005 -12.519   8.546  1.00  0.00     0.251 C 
HETATM   24  O   UNL     1      46.228 -12.569   8.505  1.00  0.00    -0.268 OA
HETATM   25  H   UNL     1      43.196 -13.359   7.950  1.00  0.00     0.162 HD
BRANCH  23  26
HETATM   26  C   UNL     1      44.328 -11.581   9.483  1.00  0.00     0.033 A 
HETATM   27  C   UNL     1      43.123 -10.994   9.076  1.00  0.00     0.042 A 
HETATM   28  C   UNL     1      42.448 -10.109   9.923  1.00  0.00     0.056 A 
HETATM   29 CL   UNL     1      40.975  -9.413   9.349  1.00  0.00    -0.083 Cl
HETATM   30  C   UNL     1      42.972  -9.815  11.187  1.00  0.00     0.055 A 
HETATM   31 CL   UNL     1      42.196  -8.730  12.284  1.00  0.00    -0.083 Cl
HETATM   32  C   UNL     1      44.166 -10.414  11.600  1.00  0.00     0.026 A 
HETATM   33  C   UNL     1      44.843 -11.299  10.755  1.00  0.00     0.019 A 
ENDBRANCH  23  26
ENDBRANCH  21  22
ENDBRANCH  20  21
ENDBRANCH   2  20
TORSDOF 7
ENDMDL
MODEL 2
REMARK VINA RESULT:      -9.6      5.286      8.520
REMARK  7 active torsions:
REMARK  status: ('A' for Active; 'I' for Inactive)
REMARK    1  A    between atoms: C_6  and  N_7 
REMARK    2  A    between atoms: N_7  and  C_8 
REMARK    3  A    between atoms: C_13  and  C_14 
REMARK       I    between atoms: C_14  and  N_15 
REMARK    4  A    between atoms: N_15  and  C_16 
REMARK    5  A    between atoms: C_16  and  C_17 
REMARK    6  A    between atoms: C_17  and  N_18 
REMARK       I    between atoms: N_18  and  C_19 
REMARK    7  A    between atoms: C_19  and  C_20 
ROOT
HETATM    1  C   UNL     1      41.675 -13.453   2.262  1.00  0.00     0.255 C 
HETATM    2  N   UNL     1      41.066 -13.773   1.068  1.00  0.00    -0.355 N 
HETATM    3  O   UNL     1      42.879 -13.574   2.465  1.00  0.00    -0.268 OA
HETATM    4  H   UNL     1      40.091 -13.548   0.915  1.00  0.00     0.162 HD
ENDROOT
BRANCH   1   5
HETATM    5  C   UNL     1      40.789 -12.940   3.334  1.00  0.00     0.077 A 
HETATM    6  C   UNL     1      40.438 -13.762   4.421  1.00  0.00     0.143 A 
HETATM    7  N   UNL     1      39.607 -13.297   5.387  1.00  0.00    -0.242 NA
HETATM    8  C   UNL     1      39.103 -12.048   5.273  1.00  0.00     0.119 A 
HETATM    9  C   UNL     1      39.389 -11.195   4.226  1.00  0.00     0.020 A 
HETATM   10  C   UNL     1      40.248 -11.651   3.235  1.00  0.00     0.022 A 
BRANCH   6  11
HETATM   11  N   UNL     1      41.017 -15.048   4.538  1.00  0.00    -0.340 N 
HETATM   12  H   UNL     1      40.405 -15.741   4.100  1.00  0.00     0.167 HD
BRANCH  11  13
HETATM   13  C   UNL     1      41.862 -15.600   5.521  1.00  0.00     0.036 A 
HETATM   14  C   UNL     1      43.089 -14.973   5.780  1.00  0.00     0.071 A 
HETATM   15  C   UNL     1      43.934 -15.448   6.782  1.00  0.00     0.118 A 
HETATM   16  C   UNL     1      43.579 -16.538   7.562  1.00  0.00     0.042 A 
HETATM   17  F   UNL     1      45.105 -14.836   7.000  1.00  0.00    -0.206 F 
HETATM   18  C   UNL     1      42.353 -17.156   7.342  1.00  0.00     0.005 A 
HETATM   19  C   UNL     1      41.500 -16.681   6.337  1.00  0.00     0.029 A 
ENDBRANCH  11  13
ENDBRANCH   6  11
ENDBRANCH   1   5
BRANCH   2  20
HETATM   20  C   UNL     1      41.821 -14.295  -0.056  1.00  0.00     0.142 C 
BRANCH  20  21
HETATM   21  C   UNL     1      41.438 -15.742  -0.388  1.00  0.00     0.142 C 
BRANCH  21  22
HETATM   22  N   UNL     1      42.208 -16.720   0.358  1.00  0.00    -0.355 N 
HETATM   23  C   UNL     1      41.772 -17.189   1.580  1.00  0.00     0.251 C 
HETATM   24  O   UNL     1      40.713 -16.845   2.091  1.00  0.00    -0.268 OA
HETATM   25  H   UNL     1      43.151 -16.903   0.048  1.00  0.00     0.162 HD
BRANCH  23  26
HETATM   26  C   UNL     1      42.672 -18.134   2.295  1.00  0.00     0.033 A 
HETATM   27  C   UNL     1      42.896 -19.393   1.724  1.00  0.00     0.042 A 
HETATM   28  C   UNL     1      43.737 -20.316   2.355  1.00  0.00     0.056 A 
HETATM   29 CL   UNL     1      43.955 -21.853   1.600  1.00  0.00    -0.083 Cl
HETATM   30  C   UNL     1      44.366 -19.976   3.559  1.00  0.00     0.055 A 
HETATM   31 CL   UNL     1      45.415 -21.063   4.396  1.00  0.00    -0.083 Cl
HETATM   32  C   UNL     1      44.157 -18.713   4.120  1.00  0.00     0.026 A 
HETATM   33  C   UNL     1      43.317 -17.790   3.490  1.00  0.00     0.019 A 
ENDBRANCH  23  26
ENDBRANCH  21  22
ENDBRANCH  20  21
ENDBRANCH   2  20
TORSDOF 7
ENDMDL
MODEL 3
REMARK VINA RESULT:      -9.6      4.987      8.112
REMARK  7 active torsions:
REMARK  status: ('A' for Active; 'I' for Inactive)
REMARK    1  A    between atoms: C_6  and  N_7 
REMARK    2  A    between atoms: N_7  and  C_8 
REMARK    3  A    between atoms: C_13  and  C_14 
REMARK       I    between atoms: C_14  and  N_15 
REMARK    4  A    between atoms: N_15  and  C_16 
REMARK    5  A    between atoms: C_16  and  C_17 
REMARK    6  A    between atoms: C_17  and  N_18 
REMARK       I    between atoms: N_18  and  C_19 
REMARK    7  A    between atoms: C_19  and  C_20 
ROOT
HETATM    1  C   UNL     1      42.826 -13.347   5.212  1.00  0.00     0.255 C 
HETATM    2  N   UNL     1      43.066 -13.825   6.482  1.00  0.00    -0.355 N 
HETATM    3  O   UNL     1      43.618 -13.461   4.282  1.00  0.00    -0.268 OA
HETATM    4  H   UNL     1      42.335 -13.805   7.182  1.00  0.00     0.162 HD
ENDROOT
BRANCH   1   5
HETATM    5  C   UNL     1      41.528 -12.662   5.002  1.00  0.00     0.077 A 
HETATM    6  C   UNL     1      40.493 -13.301   4.296  1.00  0.00     0.143 A 
HETATM    7  N   UNL     1      39.315 -12.662   4.084  1.00  0.00    -0.242 NA
HETATM    8  C   UNL     1      39.165 -11.397   4.536  1.00  0.00     0.119 A 
HETATM    9  C   UNL     1      40.145 -10.703   5.219  1.00  0.00     0.020 A 
HETATM   10  C   UNL     1      41.350 -11.347   5.456  1.00  0.00     0.022 A 
BRANCH   6  11
HETATM   11  N   UNL     1      40.661 -14.642   3.874  1.00  0.00    -0.340 N 
HETATM   12  H   UNL     1      41.001 -15.208   4.656  1.00  0.00     0.167 HD
BRANCH  11  13
HETATM   13  C   UNL     1      40.985 -15.186   2.616  1.00  0.00     0.036 A 
HETATM   14  C   UNL     1      40.634 -16.517   2.349  1.00  0.00     0.071 A 
HETATM   15  C   UNL     1      40.883 -17.083   1.100  1.00  0.00     0.118 A 
HETATM   16  C   UNL     1      41.464 -16.343   0.081  1.00  0.00     0.042 A 
HETATM   17  F   UNL     1      40.547 -18.360   0.878  1.00  0.00    -0.206 F 
HETATM   18  C   UNL     1      41.792 -15.012   0.314  1.00  0.00     0.005 A 
HETATM   19  C   UNL     1      41.543 -14.439   1.569  1.00  0.00     0.029 A 
ENDBRANCH  11  13
ENDBRANCH   6  11
ENDBRANCH   1   5
BRANCH   2  20
HETATM   20  C   UNL     1      44.303 -14.504   6.820  1.00  0.00     0.142 C 
BRANCH  20  21
HETATM   21  C   UNL     1      44.059 -15.915   7.367  1.00  0.00     0.142 C 
BRANCH  21  22
HETATM   22  N   UNL     1      44.327 -16.957   6.393  1.00  0.00    -0.355 N 
HETATM   23  C   UNL     1      43.370 -17.342   5.478  1.00  0.00     0.251 C 
HETATM   24  O   UNL     1      42.265 -16.820   5.404  1.00  0.00    -0.268 OA
HETATM   25  H   UNL     1      45.160 -17.513   6.527  1.00  0.00     0.162 HD
BRANCH  23  26
HETATM   26  C   UNL     1      43.725 -18.469   4.572  1.00  0.00     0.033 A 
HETATM   27  C   UNL     1      44.214 -19.650   5.146  1.00  0.00     0.042 A 
HETATM   28  C   UNL     1      44.557 -20.738   4.338  1.00  0.00     0.056 A 
HETATM   29 CL   UNL     1      45.166 -22.156   5.114  1.00  0.00    -0.083 Cl
HETATM   30  C   UNL     1      44.403 -20.652   2.949  1.00  0.00     0.055 A 
HETATM   31 CL   UNL     1      44.808 -21.953   1.888  1.00  0.00    -0.083 Cl
HETATM   32  C   UNL     1      43.899 -19.480   2.377  1.00  0.00     0.026 A 
HETATM   33  C   UNL     1      43.555 -18.391   3.184  1.00  0.00     0.019 A 
ENDBRANCH  23  26
ENDBRANCH  21  22
ENDBRANCH  20  21
ENDBRANCH   2  20
TORSDOF 7
ENDMDL
MODEL 4
REMARK VINA RESULT:      -9.4      4.384      6.000
REMARK  7 active torsions:
REMARK  status: ('A' for Active; 'I' for Inactive)
REMARK    1  A    between atoms: C_6  and  N_7 
REMARK    2  A    between atoms: N_7  and  C_8 
REMARK    3  A    between atoms: C_13  and  C_14 
REMARK       I    between atoms: C_14  and  N_15 
REMARK    4  A    between atoms: N_15  and  C_16 
REMARK    5  A    between atoms: C_16  and  C_17 
REMARK    6  A    between atoms: C_17  and  N_18 
REMARK       I    between atoms: N_18  and  C_19 
REMARK    7  A    between atoms: C_19  and  C_20 
ROOT
HETATM    1  C   UNL     1      44.838 -19.265   5.793  1.00  0.00     0.255 C 
HETATM    2  N   UNL     1      43.987 -19.387   6.869  1.00  0.00    -0.355 N 
HETATM    3  O   UNL     1      45.698 -18.394   5.701  1.00  0.00    -0.268 OA
HETATM    4  H   UNL     1      43.373 -20.188   6.947  1.00  0.00     0.162 HD
ENDROOT
BRANCH   1   5
HETATM    5  C   UNL     1      44.671 -20.260   4.707  1.00  0.00     0.077 A 
HETATM    6  C   UNL     1      44.181 -19.865   3.449  1.00  0.00     0.143 A 
HETATM    7  N   UNL     1      44.006 -20.783   2.466  1.00  0.00    -0.242 NA
HETATM    8  C   UNL     1      44.282 -22.081   2.724  1.00  0.00     0.119 A 
HETATM    9  C   UNL     1      44.747 -22.542   3.940  1.00  0.00     0.020 A 
HETATM   10  C   UNL     1      44.944 -21.613   4.952  1.00  0.00     0.022 A 
BRANCH   6  11
HETATM   11  N   UNL     1      43.943 -18.493   3.193  1.00  0.00    -0.340 N 
HETATM   12  H   UNL     1      44.112 -17.951   4.044  1.00  0.00     0.167 HD
BRANCH  11  13
HETATM   13  C   UNL     1      43.066 -17.854   2.295  1.00  0.00     0.036 A 
HETATM   14  C   UNL     1      41.707 -17.768   2.631  1.00  0.00     0.071 A 
HETATM   15  C   UNL     1      40.810 -17.095   1.803  1.00  0.00     0.118 A 
HETATM   16  C   UNL     1      41.236 -16.477   0.637  1.00  0.00     0.042 A 
HETATM   17  F   UNL     1      39.516 -17.039   2.144  1.00  0.00    -0.206 F 
HETATM   18  C   UNL     1      42.584 -16.524   0.300  1.00  0.00     0.005 A 
HETATM   19  C   UNL     1      43.490 -17.198   1.131  1.00  0.00     0.029 A 
ENDBRANCH  11  13
ENDBRANCH   6  11
ENDBRANCH   1   5
BRANCH   2  20
HETATM   20  C   UNL     1      44.041 -18.468   7.992  1.00  0.00     0.142 C 
BRANCH  20  21
HETATM   21  C   UNL     1      42.841 -17.514   8.017  1.00  0.00     0.142 C 
BRANCH  21  22
HETATM   22  N   UNL     1      42.636 -16.824   6.757  1.00  0.00    -0.355 N 
HETATM   23  C   UNL     1      43.258 -15.623   6.491  1.00  0.00     0.251 C 
HETATM   24  O   UNL     1      44.036 -15.084   7.269  1.00  0.00    -0.268 OA
HETATM   25  H   UNL     1      41.886 -17.154   6.165  1.00  0.00     0.162 HD
BRANCH  23  26
HETATM   26  C   UNL     1      42.922 -14.966   5.198  1.00  0.00     0.033 A 
HETATM   27  C   UNL     1      41.570 -14.786   4.880  1.00  0.00     0.042 A 
HETATM   28  C   UNL     1      41.203 -14.171   3.679  1.00  0.00     0.056 A 
HETATM   29 CL   UNL     1      39.517 -13.996   3.347  1.00  0.00    -0.083 Cl
HETATM   30  C   UNL     1      42.190 -13.722   2.794  1.00  0.00     0.055 A 
HETATM   31 CL   UNL     1      41.814 -12.956   1.293  1.00  0.00    -0.083 Cl
HETATM   32  C   UNL     1      43.541 -13.886   3.120  1.00  0.00     0.026 A 
HETATM   33  C   UNL     1      43.909 -14.501   4.320  1.00  0.00     0.019 A 
ENDBRANCH  23  26
ENDBRANCH  21  22
ENDBRANCH  20  21
ENDBRANCH   2  20
TORSDOF 7
ENDMDL
MODEL 5
REMARK VINA RESULT:      -9.2      1.797      2.480
REMARK  7 active torsions:
REMARK  status: ('A' for Active; 'I' for Inactive)
REMARK    1  A    between atoms: C_6  and  N_7 
REMARK    2  A    between atoms: N_7  and  C_8 
REMARK    3  A    between atoms: C_13  and  C_14 
REMARK       I    between atoms: C_14  and  N_15 
REMARK    4  A    between atoms: N_15  and  C_16 
REMARK    5  A    between atoms: C_16  and  C_17 
REMARK    6  A    between atoms: C_17  and  N_18 
REMARK       I    between atoms: N_18  and  C_19 
REMARK    7  A    between atoms: C_19  and  C_20 
ROOT
HETATM    1  C   UNL     1      42.551 -15.163   5.351  1.00  0.00     0.255 C 
HETATM    2  N   UNL     1      43.763 -14.672   5.784  1.00  0.00    -0.355 N 
HETATM    3  O   UNL     1      41.747 -15.732   6.084  1.00  0.00    -0.268 OA
HETATM    4  H   UNL     1      44.339 -14.113   5.167  1.00  0.00     0.162 HD
ENDROOT
BRANCH   1   5
HETATM    5  C   UNL     1      42.242 -14.976   3.914  1.00  0.00     0.077 A 
HETATM    6  C   UNL     1      41.982 -16.087   3.091  1.00  0.00     0.143 A 
HETATM    7  N   UNL     1      41.725 -15.914   1.771  1.00  0.00    -0.242 NA
HETATM    8  C   UNL     1      41.751 -14.664   1.256  1.00  0.00     0.119 A 
HETATM    9  C   UNL     1      42.018 -13.531   2.000  1.00  0.00     0.020 A 
HETATM   10  C   UNL     1      42.270 -13.690   3.355  1.00  0.00     0.022 A 
BRANCH   6  11
HETATM   11  N   UNL     1      41.916 -17.380   3.665  1.00  0.00    -0.340 N 
HETATM   12  H   UNL     1      41.327 -17.354   4.501  1.00  0.00     0.167 HD
BRANCH  11  13
HETATM   13  C   UNL     1      42.844 -18.440   3.675  1.00  0.00     0.036 A 
HETATM   14  C   UNL     1      42.978 -19.225   2.521  1.00  0.00     0.071 A 
HETATM   15  C   UNL     1      43.922 -20.249   2.463  1.00  0.00     0.118 A 
HETATM   16  C   UNL     1      44.766 -20.508   3.531  1.00  0.00     0.042 A 
HETATM   17  F   UNL     1      44.020 -20.990   1.351  1.00  0.00    -0.206 F 
HETATM   18  C   UNL     1      44.670 -19.722   4.674  1.00  0.00     0.005 A 
HETATM   19  C   UNL     1      43.724 -18.690   4.737  1.00  0.00     0.029 A 
ENDBRANCH  11  13
ENDBRANCH   6  11
ENDBRANCH   1   5
BRANCH   2  20
HETATM   20  C   UNL     1      44.188 -14.802   7.166  1.00  0.00     0.142 C 
BRANCH  20  21
HETATM   21  C   UNL     1      45.064 -13.626   7.616  1.00  0.00     0.142 C 
BRANCH  21  22
HETATM   22  N   UNL     1      44.310 -12.575   8.273  1.00  0.00    -0.355 N 
HETATM   23  C   UNL     1      44.606 -12.184   9.562  1.00  0.00     0.251 C 
HETATM   24  O   UNL     1      45.526 -12.664  10.214  1.00  0.00    -0.268 OA
HETATM   25  H   UNL     1      43.453 -12.273   7.831  1.00  0.00     0.162 HD
BRANCH  23  26
HETATM   26  C   UNL     1      43.725 -11.148  10.167  1.00  0.00     0.033 A 
HETATM   27  C   UNL     1      43.943 -10.792  11.504  1.00  0.00     0.042 A 
HETATM   28  C   UNL     1      43.144  -9.822  12.116  1.00  0.00     0.056 A 
HETATM   29 CL   UNL     1      43.463  -9.444  13.771  1.00  0.00    -0.083 Cl
HETATM   30  C   UNL     1      42.127  -9.194  11.388  1.00  0.00     0.055 A 
HETATM   31 CL   UNL     1      41.099  -7.989  12.077  1.00  0.00    -0.083 Cl
HETATM   32  C   UNL     1      41.919  -9.537  10.048  1.00  0.00     0.026 A 
HETATM   33  C   UNL     1      42.717 -10.507   9.434  1.00  0.00     0.019 A 
ENDBRANCH  23  26
ENDBRANCH  21  22
ENDBRANCH  20  21
ENDBRANCH   2  20
TORSDOF 7
ENDMDL
MODEL 6
REMARK VINA RESULT:      -8.8      5.014      6.599
REMARK  7 active torsions:
REMARK  status: ('A' for Active; 'I' for Inactive)
REMARK    1  A    between atoms: C_6  and  N_7 
REMARK    2  A    between atoms: N_7  and  C_8 
REMARK    3  A    between atoms: C_13  and  C_14 
REMARK       I    between atoms: C_14  and  N_15 
REMARK    4  A    between atoms: N_15  and  C_16 
REMARK    5  A    between atoms: C_16  and  C_17 
REMARK    6  A    between atoms: C_17  and  N_18 
REMARK       I    between atoms: N_18  and  C_19 
REMARK    7  A    between atoms: C_19  and  C_20 
ROOT
HETATM    1  C   UNL     1      39.177 -13.847   1.146  1.00  0.00     0.255 C 
HETATM    2  N   UNL     1      39.793 -12.920   1.957  1.00  0.00    -0.355 N 
HETATM    3  O   UNL     1      38.168 -14.468   1.468  1.00  0.00    -0.268 OA
HETATM    4  H   UNL     1      40.554 -12.354   1.602  1.00  0.00     0.162 HD
ENDROOT
BRANCH   1   5
HETATM    5  C   UNL     1      39.799 -14.077  -0.179  1.00  0.00     0.077 A 
HETATM    6  C   UNL     1      40.580 -15.224  -0.409  1.00  0.00     0.143 A 
HETATM    7  N   UNL     1      41.168 -15.418  -1.616  1.00  0.00    -0.242 NA
HETATM    8  C   UNL     1      41.015 -14.482  -2.579  1.00  0.00     0.119 A 
HETATM    9  C   UNL     1      40.279 -13.325  -2.417  1.00  0.00     0.020 A 
HETATM   10  C   UNL     1      39.660 -13.117  -1.192  1.00  0.00     0.022 A 
BRANCH   6  11
HETATM   11  N   UNL     1      40.686 -16.209   0.602  1.00  0.00    -0.340 N 
HETATM   12  H   UNL     1      39.932 -16.085   1.282  1.00  0.00     0.167 HD
BRANCH  11  13
HETATM   13  C   UNL     1      41.806 -16.878   1.134  1.00  0.00     0.036 A 
HETATM   14  C   UNL     1      41.729 -18.264   1.331  1.00  0.00     0.071 A 
HETATM   15  C   UNL     1      42.830 -18.978   1.801  1.00  0.00     0.118 A 
HETATM   16  C   UNL     1      44.035 -18.345   2.067  1.00  0.00     0.042 A 
HETATM   17  F   UNL     1      42.725 -20.300   1.990  1.00  0.00    -0.206 F 
HETATM   18  C   UNL     1      44.142 -16.976   1.849  1.00  0.00     0.005 A 
HETATM   19  C   UNL     1      43.038 -16.254   1.376  1.00  0.00     0.029 A 
ENDBRANCH  11  13
ENDBRANCH   6  11
ENDBRANCH   1   5
BRANCH   2  20
HETATM   20  C   UNL     1      39.290 -12.612   3.284  1.00  0.00     0.142 C 
BRANCH  20  21
HETATM   21  C   UNL     1      40.397 -12.634   4.343  1.00  0.00     0.142 C 
BRANCH  21  22
HETATM   22  N   UNL     1      40.799 -13.977   4.718  1.00  0.00    -0.355 N 
HETATM   23  C   UNL     1      42.115 -14.380   4.626  1.00  0.00     0.251 C 
HETATM   24  O   UNL     1      43.019 -13.638   4.261  1.00  0.00    -0.268 OA
HETATM   25  H   UNL     1      40.066 -14.656   4.867  1.00  0.00     0.162 HD
BRANCH  23  26
HETATM   26  C   UNL     1      42.407 -15.800   4.966  1.00  0.00     0.033 A 
HETATM   27  C   UNL     1      43.662 -16.106   5.505  1.00  0.00     0.042 A 
HETATM   28  C   UNL     1      43.983 -17.425   5.844  1.00  0.00     0.056 A 
HETATM   29 CL   UNL     1      45.555 -17.729   6.491  1.00  0.00    -0.083 Cl
HETATM   30  C   UNL     1      43.041 -18.442   5.653  1.00  0.00     0.055 A 
HETATM   31 CL   UNL     1      43.366 -20.093   6.045  1.00  0.00    -0.083 Cl
HETATM   32  C   UNL     1      41.781 -18.135   5.130  1.00  0.00     0.026 A 
HETATM   33  C   UNL     1      41.459 -16.817   4.791  1.00  0.00     0.019 A 
ENDBRANCH  23  26
ENDBRANCH  21  22
ENDBRANCH  20  21
ENDBRANCH   2  20
TORSDOF 7
ENDMDL
MODEL 7
REMARK VINA RESULT:      -8.8      3.780      6.369
REMARK  7 active torsions:
REMARK  status: ('A' for Active; 'I' for Inactive)
REMARK    1  A    between atoms: C_6  and  N_7 
REMARK    2  A    between atoms: N_7  and  C_8 
REMARK    3  A    between atoms: C_13  and  C_14 
REMARK       I    between atoms: C_14  and  N_15 
REMARK    4  A    between atoms: N_15  and  C_16 
REMARK    5  A    between atoms: C_16  and  C_17 
REMARK    6  A    between atoms: C_17  and  N_18 
REMARK       I    between atoms: N_18  and  C_19 
REMARK    7  A    between atoms: C_19  and  C_20 
ROOT
HETATM    1  C   UNL     1      42.224 -14.132   5.143  1.00  0.00     0.255 C 
HETATM    2  N   UNL     1      40.850 -14.176   5.232  1.00  0.00    -0.355 N 
HETATM    3  O   UNL     1      42.852 -13.127   4.822  1.00  0.00    -0.268 OA
HETATM    4  H   UNL     1      40.388 -14.994   5.609  1.00  0.00     0.162 HD
ENDROOT
BRANCH   1   5
HETATM    5  C   UNL     1      42.943 -15.389   5.457  1.00  0.00     0.077 A 
HETATM    6  C   UNL     1      43.748 -15.479   6.608  1.00  0.00     0.143 A 
HETATM    7  N   UNL     1      44.425 -16.622   6.879  1.00  0.00    -0.242 NA
HETATM    8  C   UNL     1      44.336 -17.658   6.014  1.00  0.00     0.119 A 
HETATM    9  C   UNL     1      43.582 -17.633   4.858  1.00  0.00     0.020 A 
HETATM   10  C   UNL     1      42.873 -16.474   4.573  1.00  0.00     0.022 A 
BRANCH   6  11
HETATM   11  N   UNL     1      43.786 -14.396   7.519  1.00  0.00    -0.340 N 
HETATM   12  H   UNL     1      42.839 -14.038   7.666  1.00  0.00     0.167 HD
BRANCH  11  13
HETATM   13  C   UNL     1      44.785 -13.439   7.782  1.00  0.00     0.036 A 
HETATM   14  C   UNL     1      44.640 -12.607   8.902  1.00  0.00     0.071 A 
HETATM   15  C   UNL     1      45.629 -11.684   9.236  1.00  0.00     0.118 A 
HETATM   16  C   UNL     1      46.791 -11.574   8.487  1.00  0.00     0.042 A 
HETATM   17  F   UNL     1      45.458 -10.895  10.305  1.00  0.00    -0.206 F 
HETATM   18  C   UNL     1      46.969 -12.410   7.390  1.00  0.00     0.005 A 
HETATM   19  C   UNL     1      45.978 -13.341   7.050  1.00  0.00     0.029 A 
ENDBRANCH  11  13
ENDBRANCH   6  11
ENDBRANCH   1   5
BRANCH   2  20
HETATM   20  C   UNL     1      40.029 -13.015   4.939  1.00  0.00     0.142 C 
BRANCH  20  21
HETATM   21  C   UNL     1      39.139 -12.621   6.123  1.00  0.00     0.142 C 
BRANCH  21  22
HETATM   22  N   UNL     1      39.895 -12.252   7.305  1.00  0.00    -0.355 N 
HETATM   23  C   UNL     1      39.676 -11.051   7.946  1.00  0.00     0.251 C 
HETATM   24  O   UNL     1      38.825 -10.246   7.589  1.00  0.00    -0.268 OA
HETATM   25  H   UNL     1      40.705 -12.812   7.531  1.00  0.00     0.162 HD
BRANCH  23  26
HETATM   26  C   UNL     1      40.556 -10.740   9.106  1.00  0.00     0.033 A 
HETATM   27  C   UNL     1      40.199 -11.248  10.361  1.00  0.00     0.042 A 
HETATM   28  C   UNL     1      40.996 -10.986  11.481  1.00  0.00     0.056 A 
HETATM   29 CL   UNL     1      40.486 -11.633  12.999  1.00  0.00    -0.083 Cl
HETATM   30  C   UNL     1      42.161 -10.222  11.346  1.00  0.00     0.055 A 
HETATM   31 CL   UNL     1      43.192  -9.856  12.682  1.00  0.00    -0.083 Cl
HETATM   32  C   UNL     1      42.527  -9.730  10.089  1.00  0.00     0.026 A 
HETATM   33  C   UNL     1      41.732  -9.991   8.969  1.00  0.00     0.019 A 
ENDBRANCH  23  26
ENDBRANCH  21  22
ENDBRANCH  20  21
ENDBRANCH   2  20
TORSDOF 7
ENDMDL
MODEL 8
REMARK VINA RESULT:      -8.7      2.303      4.247
REMARK  7 active torsions:
REMARK  status: ('A' for Active; 'I' for Inactive)
REMARK    1  A    between atoms: C_6  and  N_7 
REMARK    2  A    between atoms: N_7  and  C_8 
REMARK    3  A    between atoms: C_13  and  C_14 
REMARK       I    between atoms: C_14  and  N_15 
REMARK    4  A    between atoms: N_15  and  C_16 
REMARK    5  A    between atoms: C_16  and  C_17 
REMARK    6  A    between atoms: C_17  and  N_18 
REMARK       I    between atoms: N_18  and  C_19 
REMARK    7  A    between atoms: C_19  and  C_20 
ROOT
HETATM    1  C   UNL     1      42.891 -17.293   5.229  1.00  0.00     0.255 C 
HETATM    2  N   UNL     1      43.893 -16.636   5.911  1.00  0.00    -0.355 N 
HETATM    3  O   UNL     1      41.696 -17.080   5.407  1.00  0.00    -0.268 OA
HETATM    4  H   UNL     1      44.861 -16.767   5.648  1.00  0.00     0.162 HD
ENDROOT
BRANCH   1   5
HETATM    5  C   UNL     1      43.326 -18.305   4.238  1.00  0.00     0.077 A 
HETATM    6  C   UNL     1      42.685 -18.399   2.989  1.00  0.00     0.143 A 
HETATM    7  N   UNL     1      43.069 -19.343   2.094  1.00  0.00    -0.242 NA
HETATM    8  C   UNL     1      44.054 -20.205   2.433  1.00  0.00     0.119 A 
HETATM    9  C   UNL     1      44.712 -20.184   3.646  1.00  0.00     0.020 A 
HETATM   10  C   UNL     1      44.340 -19.215   4.568  1.00  0.00     0.022 A 
BRANCH   6  11
HETATM   11  N   UNL     1      41.689 -17.454   2.644  1.00  0.00    -0.340 N 
HETATM   12  H   UNL     1      40.763 -17.864   2.785  1.00  0.00     0.167 HD
BRANCH  11  13
HETATM   13  C   UNL     1      41.691 -16.404   1.705  1.00  0.00     0.036 A 
HETATM   14  C   UNL     1      41.392 -16.700   0.367  1.00  0.00     0.071 A 
HETATM   15  C   UNL     1      41.325 -15.687  -0.588  1.00  0.00     0.118 A 
HETATM   16  C   UNL     1      41.531 -14.360  -0.242  1.00  0.00     0.042 A 
HETATM   17  F   UNL     1      41.049 -16.000  -1.861  1.00  0.00    -0.206 F 
HETATM   18  C   UNL     1      41.799 -14.041   1.085  1.00  0.00     0.005 A 
HETATM   19  C   UNL     1      41.866 -15.056   2.048  1.00  0.00     0.029 A 
ENDBRANCH  11  13
ENDBRANCH   6  11
ENDBRANCH   1   5
BRANCH   2  20
HETATM   20  C   UNL     1      43.598 -15.631   6.916  1.00  0.00     0.142 C 
BRANCH  20  21
HETATM   21  C   UNL     1      44.005 -14.223   6.464  1.00  0.00     0.142 C 
BRANCH  21  22
HETATM   22  N   UNL     1      43.698 -13.200   7.445  1.00  0.00    -0.355 N 
HETATM   23  C   UNL     1      44.655 -12.749   8.330  1.00  0.00     0.251 C 
HETATM   24  O   UNL     1      45.813 -13.149   8.326  1.00  0.00    -0.268 OA
HETATM   25  H   UNL     1      42.725 -12.965   7.582  1.00  0.00     0.162 HD
BRANCH  23  26
HETATM   26  C   UNL     1      44.215 -11.750   9.342  1.00  0.00     0.033 A 
HETATM   27  C   UNL     1      43.056 -11.009   9.078  1.00  0.00     0.042 A 
HETATM   28  C   UNL     1      42.600 -10.060  10.000  1.00  0.00     0.056 A 
HETATM   29 CL   UNL     1      41.172  -9.175   9.601  1.00  0.00    -0.083 Cl
HETATM   30  C   UNL     1      43.298  -9.857  11.196  1.00  0.00     0.055 A 
HETATM   31 CL   UNL     1      42.796  -8.703  12.379  1.00  0.00    -0.083 Cl
HETATM   32  C   UNL     1      44.445 -10.609  11.467  1.00  0.00     0.026 A 
HETATM   33  C   UNL     1      44.902 -11.558  10.547  1.00  0.00     0.019 A 
ENDBRANCH  23  26
ENDBRANCH  21  22
ENDBRANCH  20  21
ENDBRANCH   2  20
TORSDOF 7
ENDMDL
MODEL 9
REMARK VINA RESULT:      -8.7      5.234     10.103
REMARK  7 active torsions:
REMARK  status: ('A' for Active; 'I' for Inactive)
REMARK    1  A    between atoms: C_6  and  N_7 
REMARK    2  A    between atoms: N_7  and  C_8 
REMARK    3  A    between atoms: C_13  and  C_14 
REMARK       I    between atoms: C_14  and  N_15 
REMARK    4  A    between atoms: N_15  and  C_16 
REMARK    5  A    between atoms: C_16  and  C_17 
REMARK    6  A    between atoms: C_17  and  N_18 
REMARK       I    between atoms: N_18  and  C_19 
REMARK    7  A    between atoms: C_19  and  C_20 
ROOT
HETATM    1  C   UNL     1      41.065 -12.131   6.189  1.00  0.00     0.255 C 
HETATM    2  N   UNL     1      42.090 -12.933   5.738  1.00  0.00    -0.355 N 
HETATM    3  O   UNL     1      39.990 -12.564   6.593  1.00  0.00    -0.268 OA
HETATM    4  H   UNL     1      42.995 -12.534   5.523  1.00  0.00     0.162 HD
ENDROOT
BRANCH   1   5
HETATM    5  C   UNL     1      41.316 -10.670   6.168  1.00  0.00     0.077 A 
HETATM    6  C   UNL     1      41.503  -9.963   7.370  1.00  0.00     0.143 A 
HETATM    7  N   UNL     1      41.708  -8.623   7.347  1.00  0.00    -0.242 NA
HETATM    8  C   UNL     1      41.699  -7.977   6.159  1.00  0.00     0.119 A 
HETATM    9  C   UNL     1      41.502  -8.604   4.945  1.00  0.00     0.020 A 
HETATM   10  C   UNL     1      41.305  -9.978   4.949  1.00  0.00     0.022 A 
BRANCH   6  11
HETATM   11  N   UNL     1      41.553 -10.671   8.595  1.00  0.00    -0.340 N 
HETATM   12  H   UNL     1      40.691 -10.506   9.121  1.00  0.00     0.167 HD
BRANCH  11  13
HETATM   13  C   UNL     1      42.640 -11.034   9.414  1.00  0.00     0.036 A 
HETATM   14  C   UNL     1      42.449 -11.078  10.802  1.00  0.00     0.071 A 
HETATM   15  C   UNL     1      43.477 -11.486  11.649  1.00  0.00     0.118 A 
HETATM   16  C   UNL     1      44.708 -11.879  11.146  1.00  0.00     0.042 A 
HETATM   17  F   UNL     1      43.270 -11.508  12.973  1.00  0.00    -0.206 F 
HETATM   18  C   UNL     1      44.909 -11.872   9.770  1.00  0.00     0.005 A 
HETATM   19  C   UNL     1      43.878 -11.463   8.914  1.00  0.00     0.029 A 
ENDBRANCH  11  13
ENDBRANCH   6  11
ENDBRANCH   1   5
BRANCH   2  20
HETATM   20  C   UNL     1      41.966 -14.379   5.698  1.00  0.00     0.142 C 
BRANCH  20  21
HETATM   21  C   UNL     1      43.318 -15.081   5.867  1.00  0.00     0.142 C 
BRANCH  21  22
HETATM   22  N   UNL     1      43.446 -16.273   5.049  1.00  0.00    -0.355 N 
HETATM   23  C   UNL     1      43.965 -17.441   5.567  1.00  0.00     0.251 C 
HETATM   24  O   UNL     1      44.315 -17.560   6.735  1.00  0.00    -0.268 OA
HETATM   25  H   UNL     1      43.320 -16.167   4.053  1.00  0.00     0.162 HD
BRANCH  23  26
HETATM   26  C   UNL     1      44.120 -18.582   4.623  1.00  0.00     0.033 A 
HETATM   27  C   UNL     1      44.529 -19.817   5.140  1.00  0.00     0.042 A 
HETATM   28  C   UNL     1      44.686 -20.920   4.293  1.00  0.00     0.056 A 
HETATM   29 CL   UNL     1      45.207 -22.407   4.999  1.00  0.00    -0.083 Cl
HETATM   30  C   UNL     1      44.423 -20.792   2.925  1.00  0.00     0.055 A 
HETATM   31 CL   UNL     1      44.596 -22.108   1.819  1.00  0.00    -0.083 Cl
HETATM   32  C   UNL     1      43.998 -19.563   2.411  1.00  0.00     0.026 A 
HETATM   33  C   UNL     1      43.840 -18.460   3.255  1.00  0.00     0.019 A 
ENDBRANCH  23  26
ENDBRANCH  21  22
ENDBRANCH  20  21
ENDBRANCH   2  20
TORSDOF 7
ENDMDL
MODEL 10
REMARK VINA RESULT:      -8.7      4.890      8.352
REMARK  7 active torsions:
REMARK  status: ('A' for Active; 'I' for Inactive)
REMARK    1  A    between atoms: C_6  and  N_7 
REMARK    2  A    between atoms: N_7  and  C_8 
REMARK    3  A    between atoms: C_13  and  C_14 
REMARK       I    between atoms: C_14  and  N_15 
REMARK    4  A    between atoms: N_15  and  C_16 
REMARK    5  A    between atoms: C_16  and  C_17 
REMARK    6  A    between atoms: C_17  and  N_18 
REMARK       I    between atoms: N_18  and  C_19 
REMARK    7  A    between atoms: C_19  and  C_20 
ROOT
HETATM    1  C   UNL     1      39.870 -15.071   2.194  1.00  0.00     0.255 C 
HETATM    2  N   UNL     1      40.807 -14.990   1.188  1.00  0.00    -0.355 N 
HETATM    3  O   UNL     1      39.286 -16.108   2.498  1.00  0.00    -0.268 OA
HETATM    4  H   UNL     1      41.340 -14.141   1.053  1.00  0.00     0.162 HD
ENDROOT
BRANCH   1   5
HETATM    5  C   UNL     1      39.580 -13.815   2.924  1.00  0.00     0.077 A 
HETATM    6  C   UNL     1      39.563 -13.797   4.331  1.00  0.00     0.143 A 
HETATM    7  N   UNL     1      39.273 -12.651   4.995  1.00  0.00    -0.242 NA
HETATM    8  C   UNL     1      38.973 -11.540   4.287  1.00  0.00     0.119 A 
HETATM    9  C   UNL     1      38.951 -11.490   2.907  1.00  0.00     0.020 A 
HETATM   10  C   UNL     1      39.259 -12.651   2.212  1.00  0.00     0.022 A 
BRANCH   6  11
HETATM   11  N   UNL     1      39.926 -14.963   5.047  1.00  0.00    -0.340 N 
HETATM   12  H   UNL     1      39.104 -15.343   5.524  1.00  0.00     0.167 HD
BRANCH  11  13
HETATM   13  C   UNL     1      41.140 -15.339   5.656  1.00  0.00     0.036 A 
HETATM   14  C   UNL     1      42.228 -14.458   5.584  1.00  0.00     0.071 A 
HETATM   15  C   UNL     1      43.432 -14.761   6.219  1.00  0.00     0.118 A 
HETATM   16  C   UNL     1      43.582 -15.927   6.953  1.00  0.00     0.042 A 
HETATM   17  F   UNL     1      44.458 -13.905   6.124  1.00  0.00    -0.206 F 
HETATM   18  C   UNL     1      42.505 -16.800   7.062  1.00  0.00     0.005 A 
HETATM   19  C   UNL     1      41.293 -16.500   6.427  1.00  0.00     0.029 A 
ENDBRANCH  11  13
ENDBRANCH   6  11
ENDBRANCH   1   5
BRANCH   2  20
HETATM   20  C   UNL     1      41.172 -16.147   0.390  1.00  0.00     0.142 C 
BRANCH  20  21
HETATM   21  C   UNL     1      42.684 -16.402   0.398  1.00  0.00     0.142 C 
BRANCH  21  22
HETATM   22  N   UNL     1      43.059 -17.578   1.160  1.00  0.00    -0.355 N 
HETATM   23  C   UNL     1      43.470 -17.476   2.473  1.00  0.00     0.251 C 
HETATM   24  O   UNL     1      43.514 -16.414   3.081  1.00  0.00    -0.268 OA
HETATM   25  H   UNL     1      43.187 -18.440   0.650  1.00  0.00     0.162 HD
BRANCH  23  26
HETATM   26  C   UNL     1      43.901 -18.736   3.140  1.00  0.00     0.033 A 
HETATM   27  C   UNL     1      43.799 -18.814   4.534  1.00  0.00     0.042 A 
HETATM   28  C   UNL     1      44.188 -19.977   5.207  1.00  0.00     0.056 A 
HETATM   29 CL   UNL     1      44.046 -19.996   6.928  1.00  0.00    -0.083 Cl
HETATM   30  C   UNL     1      44.672 -21.072   4.483  1.00  0.00     0.055 A 
HETATM   31 CL   UNL     1      45.173 -22.540   5.244  1.00  0.00    -0.083 Cl
HETATM   32  C   UNL     1      44.758 -21.001   3.089  1.00  0.00     0.026 A 
HETATM   33  C   UNL     1      44.370 -19.839   2.415  1.00  0.00     0.019 A 
ENDBRANCH  23  26
ENDBRANCH  21  22
ENDBRANCH  20  21
ENDBRANCH   2  20
TORSDOF 7
ENDMDL
