MODEL 1
REMARK VINA RESULT:      -9.1      0.000      0.000
REMARK  7 active torsions:
REMARK  status: ('A' for Active; 'I' for Inactive)
REMARK    1  A    between atoms: C_5  and  C_6 
REMARK       I    between atoms: C_6  and  N_7 
REMARK    2  A    between atoms: N_10  and  C_11 
REMARK    3  A    between atoms: C_14  and  N_15 
REMARK    4  A    between atoms: N_15  and  C_16 
REMARK    5  A    between atoms: C_16  and  N_17 
REMARK       I    between atoms: N_17  and  C_18 
REMARK    6  A    between atoms: C_18  and  C_19 
REMARK    7  A    between atoms: C_20  and  O_21 
ROOT
HETATM    1  C   UNL     1      41.015 -15.617   2.521  1.00  0.00     0.030 A 
HETATM    2  C   UNL     1      40.672 -16.914   2.923  1.00  0.00     0.031 A 
HETATM    3  C   UNL     1      40.800 -17.338   4.254  1.00  0.00     0.032 A 
HETATM    4  C   UNL     1      41.297 -16.477   5.225  1.00  0.00     0.034 A 
HETATM    5  C   UNL     1      41.541 -15.150   4.871  1.00  0.00     0.032 A 
HETATM    6  C   UNL     1      41.417 -14.736   3.536  1.00  0.00     0.031 A 
ENDROOT
BRANCH   4   7
HETATM    7  N   UNL     1      41.562 -16.865   6.561  1.00  0.00    -0.333 N 
HETATM    8  H   UNL     1      41.047 -16.335   7.255  1.00  0.00     0.168 HD
BRANCH   7   9
HETATM    9  C   UNL     1      42.724 -17.451   7.084  1.00  0.00     0.179 C 
HETATM   10  S   UNL     1      43.497 -17.060   8.516  1.00  0.00    -0.040 SA
BRANCH   9  11
HETATM   11  N   UNL     1      43.143 -18.479   6.223  1.00  0.00    -0.299 N 
HETATM   12  C   UNL     1      44.307 -18.535   5.461  1.00  0.00     0.260 C 
HETATM   13  O   UNL     1      45.397 -18.079   5.784  1.00  0.00    -0.267 OA
HETATM   14  H   UNL     1      42.400 -19.103   5.941  1.00  0.00     0.171 HD
BRANCH  12  15
HETATM   15  C   UNL     1      44.188 -19.331   4.220  1.00  0.00     0.065 A 
HETATM   16  C   UNL     1      44.505 -20.692   4.202  1.00  0.00     0.084 A 
HETATM   17  C   UNL     1      44.409 -21.415   3.011  1.00  0.00     0.038 A 
HETATM   18  C   UNL     1      44.034 -20.768   1.832  1.00  0.00     0.003 A 
HETATM   19  C   UNL     1      43.737 -19.404   1.845  1.00  0.00     0.001 A 
HETATM   20  C   UNL     1      43.812 -18.681   3.037  1.00  0.00     0.020 A 
BRANCH  16  21
HETATM   21  O   UNL     1      44.800 -21.363   5.359  1.00  0.00    -0.355 OA
HETATM   22  C   UNL     1      45.211 -22.702   5.068  1.00  0.00     0.210 C 
ENDBRANCH  16  21
ENDBRANCH  12  15
ENDBRANCH   9  11
ENDBRANCH   7   9
ENDBRANCH   4   7
BRANCH   1  23
HETATM   23  N   UNL     1      41.059 -15.220   1.185  1.00  0.00    -0.378 N 
HETATM   24  C   UNL     1      41.733 -16.112   0.218  1.00  0.00     0.143 C 
HETATM   25  C   UNL     1      41.226 -15.832  -1.209  1.00  0.00     0.146 C 
HETATM   26  N   UNL     1      41.282 -14.411  -1.575  1.00  0.00    -0.345 N 
HETATM   27  C   UNL     1      41.214 -14.118  -2.940  1.00  0.00     0.253 C 
HETATM   28  C   UNL     1      40.702 -13.508  -0.567  1.00  0.00     0.146 C 
HETATM   29  O   UNL     1      41.136 -14.978  -3.814  1.00  0.00    -0.267 OA
HETATM   30  C   UNL     1      41.211 -13.790   0.857  1.00  0.00     0.143 C 
BRANCH  27  31
HETATM   31  C   UNL     1      41.272 -12.701  -3.366  1.00  0.00     0.032 A 
HETATM   32  C   UNL     1      42.488 -12.012  -3.369  1.00  0.00     0.017 A 
HETATM   33  C   UNL     1      42.533 -10.686  -3.805  1.00  0.00     0.007 A 
HETATM   34  C   UNL     1      41.367 -10.044  -4.244  1.00  0.00    -0.062 A 
HETATM   35  C   UNL     1      41.425  -8.634  -4.755  1.00  0.00     0.048 C 
HETATM   36  C   UNL     1      40.160 -10.756  -4.270  1.00  0.00     0.007 A 
HETATM   37  C   UNL     1      40.111 -12.083  -3.836  1.00  0.00     0.017 A 
ENDBRANCH  27  31
ENDBRANCH   1  23
TORSDOF 7
ENDMDL
MODEL 2
REMARK VINA RESULT:      -8.9      5.199      9.599
REMARK  7 active torsions:
REMARK  status: ('A' for Active; 'I' for Inactive)
REMARK    1  A    between atoms: C_5  and  C_6 
REMARK       I    between atoms: C_6  and  N_7 
REMARK    2  A    between atoms: N_10  and  C_11 
REMARK    3  A    between atoms: C_14  and  N_15 
REMARK    4  A    between atoms: N_15  and  C_16 
REMARK    5  A    between atoms: C_16  and  N_17 
REMARK       I    between atoms: N_17  and  C_18 
REMARK    6  A    between atoms: C_18  and  C_19 
REMARK    7  A    between atoms: C_20  and  O_21 
ROOT
HETATM    1  C   UNL     1      42.353 -13.123   4.758  1.00  0.00     0.030 A 
HETATM    2  C   UNL     1      43.110 -13.365   3.605  1.00  0.00     0.031 A 
HETATM    3  C   UNL     1      42.518 -13.754   2.395  1.00  0.00     0.032 A 
HETATM    4  C   UNL     1      41.142 -13.932   2.306  1.00  0.00     0.034 A 
HETATM    5  C   UNL     1      40.359 -13.591   3.408  1.00  0.00     0.032 A 
HETATM    6  C   UNL     1      40.960 -13.209   4.617  1.00  0.00     0.031 A 
ENDROOT
BRANCH   4   7
HETATM    7  N   UNL     1      40.485 -14.431   1.156  1.00  0.00    -0.333 N 
HETATM    8  H   UNL     1      39.496 -14.609   1.289  1.00  0.00     0.168 HD
BRANCH   7   9
HETATM    9  C   UNL     1      41.026 -15.171   0.094  1.00  0.00     0.179 C 
HETATM   10  S   UNL     1      41.097 -14.723  -1.517  1.00  0.00    -0.040 SA
BRANCH   9  11
HETATM   11  N   UNL     1      41.554 -16.371   0.597  1.00  0.00    -0.299 N 
HETATM   12  C   UNL     1      41.093 -17.125   1.673  1.00  0.00     0.260 C 
HETATM   13  O   UNL     1      39.921 -17.263   2.001  1.00  0.00    -0.267 OA
HETATM   14  H   UNL     1      42.506 -16.550   0.309  1.00  0.00     0.171 HD
BRANCH  12  15
HETATM   15  C   UNL     1      42.141 -17.901   2.371  1.00  0.00     0.065 A 
HETATM   16  C   UNL     1      42.534 -17.577   3.673  1.00  0.00     0.084 A 
HETATM   17  C   UNL     1      43.544 -18.309   4.299  1.00  0.00     0.038 A 
HETATM   18  C   UNL     1      44.187 -19.339   3.610  1.00  0.00     0.003 A 
HETATM   19  C   UNL     1      43.809 -19.651   2.303  1.00  0.00     0.001 A 
HETATM   20  C   UNL     1      42.786 -18.935   1.680  1.00  0.00     0.020 A 
BRANCH  16  21
HETATM   21  O   UNL     1      41.867 -16.622   4.393  1.00  0.00    -0.355 OA
HETATM   22  C   UNL     1      41.375 -17.174   5.618  1.00  0.00     0.210 C 
ENDBRANCH  16  21
ENDBRANCH  12  15
ENDBRANCH   9  11
ENDBRANCH   7   9
ENDBRANCH   4   7
BRANCH   1  23
HETATM   23  N   UNL     1      42.923 -12.901   6.010  1.00  0.00    -0.378 N 
HETATM   24  C   UNL     1      43.800 -13.951   6.570  1.00  0.00     0.143 C 
HETATM   25  C   UNL     1      44.746 -13.349   7.626  1.00  0.00     0.146 C 
HETATM   26  N   UNL     1      44.047 -12.556   8.645  1.00  0.00    -0.345 N 
HETATM   27  C   UNL     1      44.751 -12.305   9.826  1.00  0.00     0.253 C 
HETATM   28  C   UNL     1      43.096 -11.577   8.096  1.00  0.00     0.146 C 
HETATM   29  O   UNL     1      45.885 -12.728  10.043  1.00  0.00    -0.267 OA
HETATM   30  C   UNL     1      42.151 -12.182   7.042  1.00  0.00     0.143 C 
BRANCH  27  31
HETATM   31  C   UNL     1      44.092 -11.514  10.891  1.00  0.00     0.032 A 
HETATM   32  C   UNL     1      43.403 -12.156  11.924  1.00  0.00     0.017 A 
HETATM   33  C   UNL     1      42.815 -11.399  12.940  1.00  0.00     0.007 A 
HETATM   34  C   UNL     1      42.915 -10.001  12.931  1.00  0.00    -0.062 A 
HETATM   35  C   UNL     1      42.321  -9.192  14.047  1.00  0.00     0.048 C 
HETATM   36  C   UNL     1      43.639  -9.372  11.910  1.00  0.00     0.007 A 
HETATM   37  C   UNL     1      44.230 -10.125  10.893  1.00  0.00     0.017 A 
ENDBRANCH  27  31
ENDBRANCH   1  23
TORSDOF 7
ENDMDL
MODEL 3
REMARK VINA RESULT:      -8.8      5.589      9.838
REMARK  7 active torsions:
REMARK  status: ('A' for Active; 'I' for Inactive)
REMARK    1  A    between atoms: C_5  and  C_6 
REMARK       I    between atoms: C_6  and  N_7 
REMARK    2  A    between atoms: N_10  and  C_11 
REMARK    3  A    between atoms: C_14  and  N_15 
REMARK    4  A    between atoms: N_15  and  C_16 
REMARK    5  A    between atoms: C_16  and  N_17 
REMARK       I    between atoms: N_17  and  C_18 
REMARK    6  A    between atoms: C_18  and  C_19 
REMARK    7  A    between atoms: C_20  and  O_21 
ROOT
HETATM    1  C   UNL     1      41.433 -13.574   5.233  1.00  0.00     0.030 A 
HETATM    2  C   UNL     1      41.972 -12.282   5.274  1.00  0.00     0.031 A 
HETATM    3  C   UNL     1      41.312 -11.220   5.908  1.00  0.00     0.032 A 
HETATM    4  C   UNL     1      40.073 -11.415   6.508  1.00  0.00     0.034 A 
HETATM    5  C   UNL     1      39.569 -12.713   6.576  1.00  0.00     0.032 A 
HETATM    6  C   UNL     1      40.233 -13.769   5.934  1.00  0.00     0.031 A 
ENDROOT
BRANCH   4   7
HETATM    7  N   UNL     1      39.295 -10.373   7.066  1.00  0.00    -0.333 N 
HETATM    8  H   UNL     1      38.445 -10.170   6.552  1.00  0.00     0.168 HD
BRANCH   7   9
HETATM    9  C   UNL     1      39.721  -9.290   7.850  1.00  0.00     0.179 C 
HETATM   10  S   UNL     1      39.119  -7.728   7.829  1.00  0.00    -0.040 SA
BRANCH   9  11
HETATM   11  N   UNL     1      40.737  -9.725   8.715  1.00  0.00    -0.299 N 
HETATM   12  C   UNL     1      40.611 -10.512   9.858  1.00  0.00     0.260 C 
HETATM   13  O   UNL     1      39.803 -11.418  10.017  1.00  0.00    -0.267 OA
HETATM   14  H   UNL     1      41.594  -9.195   8.637  1.00  0.00     0.171 HD
BRANCH  12  15
HETATM   15  C   UNL     1      41.645 -10.268  10.886  1.00  0.00     0.065 A 
HETATM   16  C   UNL     1      43.006 -10.315  10.567  1.00  0.00     0.084 A 
HETATM   17  C   UNL     1      43.963 -10.107  11.563  1.00  0.00     0.038 A 
HETATM   18  C   UNL     1      43.560  -9.890  12.882  1.00  0.00     0.003 A 
HETATM   19  C   UNL     1      42.202  -9.862  13.205  1.00  0.00     0.001 A 
HETATM   20  C   UNL     1      41.241 -10.049  12.210  1.00  0.00     0.020 A 
BRANCH  16  21
HETATM   21  O   UNL     1      43.422 -10.451   9.270  1.00  0.00    -0.355 OA
HETATM   22  C   UNL     1      44.183 -11.653   9.114  1.00  0.00     0.210 C 
ENDBRANCH  16  21
ENDBRANCH  12  15
ENDBRANCH   9  11
ENDBRANCH   7   9
ENDBRANCH   4   7
BRANCH   1  23
HETATM   23  N   UNL     1      41.981 -14.604   4.471  1.00  0.00    -0.378 N 
HETATM   24  C   UNL     1      41.682 -14.631   3.024  1.00  0.00     0.143 C 
HETATM   25  C   UNL     1      42.755 -15.441   2.273  1.00  0.00     0.146 C 
HETATM   26  N   UNL     1      42.991 -16.769   2.854  1.00  0.00    -0.345 N 
HETATM   27  C   UNL     1      43.642 -17.698   2.036  1.00  0.00     0.253 C 
HETATM   28  C   UNL     1      43.189 -16.759   4.312  1.00  0.00     0.146 C 
HETATM   29  O   UNL     1      43.990 -17.458   0.883  1.00  0.00    -0.267 OA
HETATM   30  C   UNL     1      42.114 -15.950   5.060  1.00  0.00     0.143 C 
BRANCH  27  31
HETATM   31  C   UNL     1      43.900 -19.055   2.570  1.00  0.00     0.032 A 
HETATM   32  C   UNL     1      43.574 -20.186   1.815  1.00  0.00     0.017 A 
HETATM   33  C   UNL     1      43.854 -21.458   2.316  1.00  0.00     0.007 A 
HETATM   34  C   UNL     1      44.464 -21.608   3.569  1.00  0.00    -0.062 A 
HETATM   35  C   UNL     1      44.805 -22.975   4.088  1.00  0.00     0.048 C 
HETATM   36  C   UNL     1      44.819 -20.467   4.301  1.00  0.00     0.007 A 
HETATM   37  C   UNL     1      44.542 -19.192   3.803  1.00  0.00     0.017 A 
ENDBRANCH  27  31
ENDBRANCH   1  23
TORSDOF 7
ENDMDL
MODEL 4
REMARK VINA RESULT:      -8.7      1.636      2.514
REMARK  7 active torsions:
REMARK  status: ('A' for Active; 'I' for Inactive)
REMARK    1  A    between atoms: C_5  and  C_6 
REMARK       I    between atoms: C_6  and  N_7 
REMARK    2  A    between atoms: N_10  and  C_11 
REMARK    3  A    between atoms: C_14  and  N_15 
REMARK    4  A    between atoms: N_15  and  C_16 
REMARK    5  A    between atoms: C_16  and  N_17 
REMARK       I    between atoms: N_17  and  C_18 
REMARK    6  A    between atoms: C_18  and  C_19 
REMARK    7  A    between atoms: C_20  and  O_21 
ROOT
HETATM    1  C   UNL     1      41.352 -15.783   3.468  1.00  0.00     0.030 A 
HETATM    2  C   UNL     1      42.299 -15.283   4.371  1.00  0.00     0.031 A 
HETATM    3  C   UNL     1      42.677 -15.992   5.521  1.00  0.00     0.032 A 
HETATM    4  C   UNL     1      42.100 -17.222   5.814  1.00  0.00     0.034 A 
HETATM    5  C   UNL     1      41.238 -17.789   4.876  1.00  0.00     0.032 A 
HETATM    6  C   UNL     1      40.860 -17.070   3.732  1.00  0.00     0.031 A 
ENDROOT
BRANCH   4   7
HETATM    7  N   UNL     1      42.343 -17.943   7.008  1.00  0.00    -0.333 N 
HETATM    8  H   UNL     1      41.805 -17.619   7.804  1.00  0.00     0.168 HD
BRANCH   7   9
HETATM    9  C   UNL     1      43.503 -18.633   7.389  1.00  0.00     0.179 C 
HETATM   10  S   UNL     1      44.339 -18.488   8.832  1.00  0.00    -0.040 SA
BRANCH   9  11
HETATM   11  N   UNL     1      43.858 -19.527   6.365  1.00  0.00    -0.299 N 
HETATM   12  C   UNL     1      44.808 -19.346   5.363  1.00  0.00     0.260 C 
HETATM   13  O   UNL     1      45.863 -18.735   5.478  1.00  0.00    -0.267 OA
HETATM   14  H   UNL     1      43.171 -20.248   6.197  1.00  0.00     0.171 HD
BRANCH  12  15
HETATM   15  C   UNL     1      44.524 -20.078   4.110  1.00  0.00     0.065 A 
HETATM   16  C   UNL     1      44.069 -19.410   2.970  1.00  0.00     0.084 A 
HETATM   17  C   UNL     1      43.782 -20.130   1.808  1.00  0.00     0.038 A 
HETATM   18  C   UNL     1      43.914 -21.519   1.799  1.00  0.00     0.003 A 
HETATM   19  C   UNL     1      44.348 -22.190   2.943  1.00  0.00     0.001 A 
HETATM   20  C   UNL     1      44.656 -21.474   4.101  1.00  0.00     0.020 A 
BRANCH  16  21
HETATM   21  O   UNL     1      44.005 -18.043   2.932  1.00  0.00    -0.355 OA
HETATM   22  C   UNL     1      44.178 -17.572   1.592  1.00  0.00     0.210 C 
ENDBRANCH  16  21
ENDBRANCH  12  15
ENDBRANCH   9  11
ENDBRANCH   7   9
ENDBRANCH   4   7
BRANCH   1  23
HETATM   23  N   UNL     1      40.836 -15.032   2.414  1.00  0.00    -0.378 N 
HETATM   24  C   UNL     1      39.494 -15.384   1.903  1.00  0.00     0.143 C 
HETATM   25  C   UNL     1      38.868 -14.179   1.175  1.00  0.00     0.146 C 
HETATM   26  N   UNL     1      39.752 -13.591   0.162  1.00  0.00    -0.345 N 
HETATM   27  C   UNL     1      39.144 -12.769  -0.791  1.00  0.00     0.253 C 
HETATM   28  C   UNL     1      41.121 -13.332   0.636  1.00  0.00     0.146 C 
HETATM   29  O   UNL     1      37.935 -12.547  -0.822  1.00  0.00    -0.267 OA
HETATM   30  C   UNL     1      41.744 -14.538   1.362  1.00  0.00     0.143 C 
BRANCH  27  31
HETATM   31  C   UNL     1      39.988 -12.154  -1.841  1.00  0.00     0.032 A 
HETATM   32  C   UNL     1      40.286 -10.788  -1.799  1.00  0.00     0.017 A 
HETATM   33  C   UNL     1      41.111 -10.228  -2.777  1.00  0.00     0.007 A 
HETATM   34  C   UNL     1      41.643 -11.027  -3.797  1.00  0.00    -0.062 A 
HETATM   35  C   UNL     1      42.565 -10.433  -4.822  1.00  0.00     0.048 C 
HETATM   36  C   UNL     1      41.366 -12.401  -3.809  1.00  0.00     0.007 A 
HETATM   37  C   UNL     1      40.543 -12.966  -2.832  1.00  0.00     0.017 A 
ENDBRANCH  27  31
ENDBRANCH   1  23
TORSDOF 7
ENDMDL
MODEL 5
REMARK VINA RESULT:      -8.7      3.698      9.728
REMARK  7 active torsions:
REMARK  status: ('A' for Active; 'I' for Inactive)
REMARK    1  A    between atoms: C_5  and  C_6 
REMARK       I    between atoms: C_6  and  N_7 
REMARK    2  A    between atoms: N_10  and  C_11 
REMARK    3  A    between atoms: C_14  and  N_15 
REMARK    4  A    between atoms: N_15  and  C_16 
REMARK    5  A    between atoms: C_16  and  N_17 
REMARK       I    between atoms: N_17  and  C_18 
REMARK    6  A    between atoms: C_18  and  C_19 
REMARK    7  A    between atoms: C_20  and  O_21 
ROOT
HETATM    1  C   UNL     1      39.119 -14.012   2.132  1.00  0.00     0.030 A 
HETATM    2  C   UNL     1      39.057 -12.625   2.320  1.00  0.00     0.031 A 
HETATM    3  C   UNL     1      38.129 -11.823   1.639  1.00  0.00     0.032 A 
HETATM    4  C   UNL     1      37.243 -12.386   0.728  1.00  0.00     0.034 A 
HETATM    5  C   UNL     1      37.212 -13.776   0.607  1.00  0.00     0.032 A 
HETATM    6  C   UNL     1      38.148 -14.569   1.287  1.00  0.00     0.031 A 
ENDROOT
BRANCH   4   7
HETATM    7  N   UNL     1      36.358 -11.633  -0.080  1.00  0.00    -0.333 N 
HETATM    8  H   UNL     1      35.377 -11.820   0.095  1.00  0.00     0.168 HD
BRANCH   7   9
HETATM    9  C   UNL     1      36.584 -11.099  -1.357  1.00  0.00     0.179 C 
HETATM   10  S   UNL     1      35.905  -9.714  -2.008  1.00  0.00    -0.040 SA
BRANCH   9  11
HETATM   11  N   UNL     1      37.525 -11.898  -2.026  1.00  0.00    -0.299 N 
HETATM   12  C   UNL     1      37.312 -12.744  -3.112  1.00  0.00     0.260 C 
HETATM   13  O   UNL     1      36.520 -12.550  -4.025  1.00  0.00    -0.267 OA
HETATM   14  H   UNL     1      38.369 -12.065  -1.495  1.00  0.00     0.171 HD
BRANCH  12  15
HETATM   15  C   UNL     1      38.234 -13.898  -3.179  1.00  0.00     0.065 A 
HETATM   16  C   UNL     1      39.503 -13.844  -2.593  1.00  0.00     0.084 A 
HETATM   17  C   UNL     1      40.365 -14.938  -2.694  1.00  0.00     0.038 A 
HETATM   18  C   UNL     1      39.972 -16.070  -3.411  1.00  0.00     0.003 A 
HETATM   19  C   UNL     1      38.714 -16.117  -4.013  1.00  0.00     0.001 A 
HETATM   20  C   UNL     1      37.840 -15.034  -3.898  1.00  0.00     0.020 A 
BRANCH  16  21
HETATM   21  O   UNL     1      39.879 -12.776  -1.823  1.00  0.00    -0.355 OA
HETATM   22  C   UNL     1      40.906 -13.161  -0.904  1.00  0.00     0.210 C 
ENDBRANCH  16  21
ENDBRANCH  12  15
ENDBRANCH   9  11
ENDBRANCH   7   9
ENDBRANCH   4   7
BRANCH   1  23
HETATM   23  N   UNL     1      40.133 -14.806   2.663  1.00  0.00    -0.378 N 
HETATM   24  C   UNL     1      41.268 -14.132   3.328  1.00  0.00     0.143 C 
HETATM   25  C   UNL     1      41.967 -15.099   4.302  1.00  0.00     0.146 C 
HETATM   26  N   UNL     1      42.320 -16.385   3.687  1.00  0.00    -0.345 N 
HETATM   27  C   UNL     1      43.277 -17.152   4.358  1.00  0.00     0.253 C 
HETATM   28  C   UNL     1      41.222 -17.014   2.936  1.00  0.00     0.146 C 
HETATM   29  O   UNL     1      43.829 -16.791   5.395  1.00  0.00    -0.267 OA
HETATM   30  C   UNL     1      40.526 -16.045   1.964  1.00  0.00     0.143 C 
BRANCH  27  31
HETATM   31  C   UNL     1      43.675 -18.456   3.780  1.00  0.00     0.032 A 
HETATM   32  C   UNL     1      44.341 -19.403   4.563  1.00  0.00     0.017 A 
HETATM   33  C   UNL     1      44.681 -20.641   4.013  1.00  0.00     0.007 A 
HETATM   34  C   UNL     1      44.355 -20.940   2.684  1.00  0.00    -0.062 A 
HETATM   35  C   UNL     1      44.681 -22.288   2.108  1.00  0.00     0.048 C 
HETATM   36  C   UNL     1      43.656 -19.996   1.920  1.00  0.00     0.007 A 
HETATM   37  C   UNL     1      43.313 -18.757   2.465  1.00  0.00     0.017 A 
ENDBRANCH  27  31
ENDBRANCH   1  23
TORSDOF 7
ENDMDL
MODEL 6
REMARK VINA RESULT:      -8.6      5.415      9.567
REMARK  7 active torsions:
REMARK  status: ('A' for Active; 'I' for Inactive)
REMARK    1  A    between atoms: C_5  and  C_6 
REMARK       I    between atoms: C_6  and  N_7 
REMARK    2  A    between atoms: N_10  and  C_11 
REMARK    3  A    between atoms: C_14  and  N_15 
REMARK    4  A    between atoms: N_15  and  C_16 
REMARK    5  A    between atoms: C_16  and  N_17 
REMARK       I    between atoms: N_17  and  C_18 
REMARK    6  A    between atoms: C_18  and  C_19 
REMARK    7  A    between atoms: C_20  and  O_21 
ROOT
HETATM    1  C   UNL     1      41.158 -13.078   5.373  1.00  0.00     0.030 A 
HETATM    2  C   UNL     1      39.958 -13.244   6.077  1.00  0.00     0.031 A 
HETATM    3  C   UNL     1      39.412 -12.222   6.867  1.00  0.00     0.032 A 
HETATM    4  C   UNL     1      40.065 -11.002   6.995  1.00  0.00     0.034 A 
HETATM    5  C   UNL     1      41.202 -10.775   6.218  1.00  0.00     0.032 A 
HETATM    6  C   UNL     1      41.744 -11.805   5.435  1.00  0.00     0.031 A 
ENDROOT
BRANCH   4   7
HETATM    7  N   UNL     1      39.639  -9.966   7.861  1.00  0.00    -0.333 N 
HETATM    8  H   UNL     1      39.926  -9.038   7.569  1.00  0.00     0.168 HD
BRANCH   7   9
HETATM    9  C   UNL     1      39.363 -10.037   9.234  1.00  0.00     0.179 C 
HETATM   10  S   UNL     1      37.934  -9.618  10.001  1.00  0.00    -0.040 SA
BRANCH   9  11
HETATM   11  N   UNL     1      40.482 -10.563   9.898  1.00  0.00    -0.299 N 
HETATM   12  C   UNL     1      41.675  -9.915  10.210  1.00  0.00     0.260 C 
HETATM   13  O   UNL     1      41.791  -8.735  10.514  1.00  0.00    -0.267 OA
HETATM   14  H   UNL     1      40.513 -11.572   9.910  1.00  0.00     0.171 HD
BRANCH  12  15
HETATM   15  C   UNL     1      42.854 -10.805  10.281  1.00  0.00     0.065 A 
HETATM   16  C   UNL     1      43.148 -11.524  11.443  1.00  0.00     0.084 A 
HETATM   17  C   UNL     1      44.282 -12.337  11.493  1.00  0.00     0.038 A 
HETATM   18  C   UNL     1      45.142 -12.401  10.395  1.00  0.00     0.003 A 
HETATM   19  C   UNL     1      44.861 -11.668   9.240  1.00  0.00     0.001 A 
HETATM   20  C   UNL     1      43.717 -10.870   9.178  1.00  0.00     0.020 A 
BRANCH  16  21
HETATM   21  O   UNL     1      42.281 -11.535  12.503  1.00  0.00    -0.355 OA
HETATM   22  C   UNL     1      42.762 -10.688  13.550  1.00  0.00     0.210 C 
ENDBRANCH  16  21
ENDBRANCH  12  15
ENDBRANCH   9  11
ENDBRANCH   7   9
ENDBRANCH   4   7
BRANCH   1  23
HETATM   23  N   UNL     1      41.807 -14.123   4.720  1.00  0.00    -0.378 N 
HETATM   24  C   UNL     1      41.608 -14.261   3.261  1.00  0.00     0.143 C 
HETATM   25  C   UNL     1      42.769 -15.057   2.637  1.00  0.00     0.146 C 
HETATM   26  N   UNL     1      43.033 -16.329   3.322  1.00  0.00    -0.345 N 
HETATM   27  C   UNL     1      43.783 -17.272   2.612  1.00  0.00     0.253 C 
HETATM   28  C   UNL     1      43.131 -16.215   4.785  1.00  0.00     0.146 C 
HETATM   29  O   UNL     1      44.196 -17.088   1.469  1.00  0.00    -0.267 OA
HETATM   30  C   UNL     1      41.969 -15.419   5.406  1.00  0.00     0.143 C 
BRANCH  27  31
HETATM   31  C   UNL     1      44.074 -18.575   3.252  1.00  0.00     0.032 A 
HETATM   32  C   UNL     1      44.137 -19.742   2.485  1.00  0.00     0.017 A 
HETATM   33  C   UNL     1      44.445 -20.959   3.096  1.00  0.00     0.007 A 
HETATM   34  C   UNL     1      44.696 -21.016   4.474  1.00  0.00    -0.062 A 
HETATM   35  C   UNL     1      45.071 -22.317   5.123  1.00  0.00     0.048 C 
HETATM   36  C   UNL     1      44.666 -19.834   5.227  1.00  0.00     0.007 A 
HETATM   37  C   UNL     1      44.359 -18.615   4.619  1.00  0.00     0.017 A 
ENDBRANCH  27  31
ENDBRANCH   1  23
TORSDOF 7
ENDMDL
MODEL 7
REMARK VINA RESULT:      -8.5      5.033      7.246
REMARK  7 active torsions:
REMARK  status: ('A' for Active; 'I' for Inactive)
REMARK    1  A    between atoms: C_5  and  C_6 
REMARK       I    between atoms: C_6  and  N_7 
REMARK    2  A    between atoms: N_10  and  C_11 
REMARK    3  A    between atoms: C_14  and  N_15 
REMARK    4  A    between atoms: N_15  and  C_16 
REMARK    5  A    between atoms: C_16  and  N_17 
REMARK       I    between atoms: N_17  and  C_18 
REMARK    6  A    between atoms: C_18  and  C_19 
REMARK    7  A    between atoms: C_20  and  O_21 
ROOT
HETATM    1  C   UNL     1      42.681 -14.540   4.052  1.00  0.00     0.030 A 
HETATM    2  C   UNL     1      43.155 -15.657   4.752  1.00  0.00     0.031 A 
HETATM    3  C   UNL     1      43.660 -15.558   6.056  1.00  0.00     0.032 A 
HETATM    4  C   UNL     1      43.727 -14.326   6.697  1.00  0.00     0.034 A 
HETATM    5  C   UNL     1      43.161 -13.220   6.064  1.00  0.00     0.032 A 
HETATM    6  C   UNL     1      42.662 -13.327   4.757  1.00  0.00     0.031 A 
ENDROOT
BRANCH   4   7
HETATM    7  N   UNL     1      44.327 -14.128   7.964  1.00  0.00    -0.333 N 
HETATM    8  H   UNL     1      44.033 -14.793   8.670  1.00  0.00     0.168 HD
BRANCH   7   9
HETATM    9  C   UNL     1      44.819 -12.937   8.518  1.00  0.00     0.179 C 
HETATM   10  S   UNL     1      46.259 -12.168   8.145  1.00  0.00    -0.040 SA
BRANCH   9  11
HETATM   11  N   UNL     1      43.883 -12.441   9.439  1.00  0.00    -0.299 N 
HETATM   12  C   UNL     1      43.318 -11.169   9.484  1.00  0.00     0.260 C 
HETATM   13  O   UNL     1      43.042 -10.473   8.516  1.00  0.00    -0.267 OA
HETATM   14  H   UNL     1      43.823 -12.981  10.291  1.00  0.00     0.171 HD
BRANCH  12  15
HETATM   15  C   UNL     1      42.927 -10.721  10.838  1.00  0.00     0.065 A 
HETATM   16  C   UNL     1      41.587 -10.716  11.239  1.00  0.00     0.084 A 
HETATM   17  C   UNL     1      41.243 -10.263  12.515  1.00  0.00     0.038 A 
HETATM   18  C   UNL     1      42.232  -9.781  13.373  1.00  0.00     0.003 A 
HETATM   19  C   UNL     1      43.568  -9.767  12.967  1.00  0.00     0.001 A 
HETATM   20  C   UNL     1      43.920 -10.238  11.701  1.00  0.00     0.020 A 
BRANCH  16  21
HETATM   21  O   UNL     1      40.612 -11.253  10.444  1.00  0.00    -0.355 OA
HETATM   22  C   UNL     1      39.874 -10.216   9.790  1.00  0.00     0.210 C 
ENDBRANCH  16  21
ENDBRANCH  12  15
ENDBRANCH   9  11
ENDBRANCH   7   9
ENDBRANCH   4   7
BRANCH   1  23
HETATM   23  N   UNL     1      42.331 -14.578   2.704  1.00  0.00    -0.378 N 
HETATM   24  C   UNL     1      42.667 -15.795   1.934  1.00  0.00     0.143 C 
HETATM   25  C   UNL     1      41.762 -15.907   0.693  1.00  0.00     0.146 C 
HETATM   26  N   UNL     1      41.735 -14.682  -0.117  1.00  0.00    -0.345 N 
HETATM   27  C   UNL     1      41.269 -14.815  -1.428  1.00  0.00     0.253 C 
HETATM   28  C   UNL     1      41.502 -13.454   0.660  1.00  0.00     0.146 C 
HETATM   29  O   UNL     1      40.915 -15.886  -1.916  1.00  0.00    -0.267 OA
HETATM   30  C   UNL     1      42.408 -13.345   1.899  1.00  0.00     0.143 C 
BRANCH  27  31
HETATM   31  C   UNL     1      41.226 -13.613  -2.292  1.00  0.00     0.032 A 
HETATM   32  C   UNL     1      42.410 -13.005  -2.717  1.00  0.00     0.017 A 
HETATM   33  C   UNL     1      42.355 -11.892  -3.559  1.00  0.00     0.007 A 
HETATM   34  C   UNL     1      41.119 -11.384  -3.982  1.00  0.00    -0.062 A 
HETATM   35  C   UNL     1      41.062 -10.215  -4.922  1.00  0.00     0.048 C 
HETATM   36  C   UNL     1      39.939 -12.023  -3.577  1.00  0.00     0.007 A 
HETATM   37  C   UNL     1      39.990 -13.138  -2.737  1.00  0.00     0.017 A 
ENDBRANCH  27  31
ENDBRANCH   1  23
TORSDOF 7
ENDMDL
MODEL 8
REMARK VINA RESULT:      -8.4      3.235      4.338
REMARK  7 active torsions:
REMARK  status: ('A' for Active; 'I' for Inactive)
REMARK    1  A    between atoms: C_5  and  C_6 
REMARK       I    between atoms: C_6  and  N_7 
REMARK    2  A    between atoms: N_10  and  C_11 
REMARK    3  A    between atoms: C_14  and  N_15 
REMARK    4  A    between atoms: N_15  and  C_16 
REMARK    5  A    between atoms: C_16  and  N_17 
REMARK       I    between atoms: N_17  and  C_18 
REMARK    6  A    between atoms: C_18  and  C_19 
REMARK    7  A    between atoms: C_20  and  O_21 
ROOT
HETATM    1  C   UNL     1      40.569 -14.324   0.778  1.00  0.00     0.030 A 
HETATM    2  C   UNL     1      41.879 -13.977   1.132  1.00  0.00     0.031 A 
HETATM    3  C   UNL     1      42.518 -14.529   2.252  1.00  0.00     0.032 A 
HETATM    4  C   UNL     1      41.854 -15.436   3.070  1.00  0.00     0.034 A 
HETATM    5  C   UNL     1      40.591 -15.879   2.676  1.00  0.00     0.032 A 
HETATM    6  C   UNL     1      39.957 -15.317   1.557  1.00  0.00     0.031 A 
ENDROOT
BRANCH   4   7
HETATM    7  N   UNL     1      42.387 -15.948   4.277  1.00  0.00    -0.333 N 
HETATM    8  H   UNL     1      43.400 -15.943   4.316  1.00  0.00     0.168 HD
BRANCH   7   9
HETATM    9  C   UNL     1      41.819 -16.883   5.154  1.00  0.00     0.179 C 
HETATM   10  S   UNL     1      40.647 -16.598   6.316  1.00  0.00    -0.040 SA
BRANCH   9  11
HETATM   11  N   UNL     1      42.364 -18.149   4.886  1.00  0.00    -0.299 N 
HETATM   12  C   UNL     1      43.703 -18.481   4.692  1.00  0.00     0.260 C 
HETATM   13  O   UNL     1      44.658 -17.961   5.254  1.00  0.00    -0.267 OA
HETATM   14  H   UNL     1      41.689 -18.820   4.546  1.00  0.00     0.171 HD
BRANCH  12  15
HETATM   15  C   UNL     1      43.922 -19.651   3.814  1.00  0.00     0.065 A 
HETATM   16  C   UNL     1      43.411 -19.684   2.513  1.00  0.00     0.084 A 
HETATM   17  C   UNL     1      43.610 -20.812   1.714  1.00  0.00     0.038 A 
HETATM   18  C   UNL     1      44.286 -21.919   2.229  1.00  0.00     0.003 A 
HETATM   19  C   UNL     1      44.780 -21.895   3.534  1.00  0.00     0.001 A 
HETATM   20  C   UNL     1      44.602 -20.762   4.330  1.00  0.00     0.020 A 
BRANCH  16  21
HETATM   21  O   UNL     1      42.811 -18.583   1.964  1.00  0.00    -0.355 OA
HETATM   22  C   UNL     1      43.744 -17.857   1.157  1.00  0.00     0.210 C 
ENDBRANCH  16  21
ENDBRANCH  12  15
ENDBRANCH   9  11
ENDBRANCH   7   9
ENDBRANCH   4   7
BRANCH   1  23
HETATM   23  N   UNL     1      39.854 -13.672  -0.224  1.00  0.00    -0.378 N 
HETATM   24  C   UNL     1      40.330 -12.344  -0.665  1.00  0.00     0.143 C 
HETATM   25  C   UNL     1      39.807 -12.033  -2.080  1.00  0.00     0.146 C 
HETATM   26  N   UNL     1      38.357 -12.218  -2.215  1.00  0.00    -0.345 N 
HETATM   27  C   UNL     1      37.753 -11.603  -3.317  1.00  0.00     0.253 C 
HETATM   28  C   UNL     1      37.862 -13.497  -1.684  1.00  0.00     0.146 C 
HETATM   29  O   UNL     1      38.368 -10.921  -4.133  1.00  0.00    -0.267 OA
HETATM   30  C   UNL     1      38.385 -13.805  -0.270  1.00  0.00     0.143 C 
BRANCH  27  31
HETATM   31  C   UNL     1      36.291 -11.751  -3.499  1.00  0.00     0.032 A 
HETATM   32  C   UNL     1      35.402 -10.991  -2.733  1.00  0.00     0.017 A 
HETATM   33  C   UNL     1      34.027 -11.116  -2.940  1.00  0.00     0.007 A 
HETATM   34  C   UNL     1      33.533 -11.996  -3.912  1.00  0.00    -0.062 A 
HETATM   35  C   UNL     1      32.057 -12.097  -4.163  1.00  0.00     0.048 C 
HETATM   36  C   UNL     1      34.435 -12.727  -4.698  1.00  0.00     0.007 A 
HETATM   37  C   UNL     1      35.811 -12.603  -4.496  1.00  0.00     0.017 A 
ENDBRANCH  27  31
ENDBRANCH   1  23
TORSDOF 7
ENDMDL
MODEL 9
REMARK VINA RESULT:      -8.3      3.533      9.996
REMARK  7 active torsions:
REMARK  status: ('A' for Active; 'I' for Inactive)
REMARK    1  A    between atoms: C_5  and  C_6 
REMARK       I    between atoms: C_6  and  N_7 
REMARK    2  A    between atoms: N_10  and  C_11 
REMARK    3  A    between atoms: C_14  and  N_15 
REMARK    4  A    between atoms: N_15  and  C_16 
REMARK    5  A    between atoms: C_16  and  N_17 
REMARK       I    between atoms: N_17  and  C_18 
REMARK    6  A    between atoms: C_18  and  C_19 
REMARK    7  A    between atoms: C_20  and  O_21 
ROOT
HETATM    1  C   UNL     1      39.192 -13.754   1.900  1.00  0.00     0.030 A 
HETATM    2  C   UNL     1      39.297 -12.357   1.900  1.00  0.00     0.031 A 
HETATM    3  C   UNL     1      38.399 -11.544   1.194  1.00  0.00     0.032 A 
HETATM    4  C   UNL     1      37.374 -12.108   0.443  1.00  0.00     0.034 A 
HETATM    5  C   UNL     1      37.183 -13.487   0.516  1.00  0.00     0.032 A 
HETATM    6  C   UNL     1      38.090 -14.294   1.220  1.00  0.00     0.031 A 
ENDROOT
BRANCH   4   7
HETATM    7  N   UNL     1      36.501 -11.362  -0.385  1.00  0.00    -0.333 N 
HETATM    8  H   UNL     1      35.594 -11.179   0.028  1.00  0.00     0.168 HD
BRANCH   7   9
HETATM    9  C   UNL     1      36.479 -11.291  -1.786  1.00  0.00     0.179 C 
HETATM   10  S   UNL     1      35.143 -11.041  -2.764  1.00  0.00    -0.040 SA
BRANCH   9  11
HETATM   11  N   UNL     1      37.790 -11.426  -2.271  1.00  0.00    -0.299 N 
HETATM   12  C   UNL     1      38.389 -12.561  -2.812  1.00  0.00     0.260 C 
HETATM   13  O   UNL     1      37.830 -13.411  -3.493  1.00  0.00    -0.267 OA
HETATM   14  H   UNL     1      38.420 -10.705  -1.949  1.00  0.00     0.171 HD
BRANCH  12  15
HETATM   15  C   UNL     1      39.854 -12.630  -2.619  1.00  0.00     0.065 A 
HETATM   16  C   UNL     1      40.730 -11.970  -3.486  1.00  0.00     0.084 A 
HETATM   17  C   UNL     1      42.109 -12.074  -3.296  1.00  0.00     0.038 A 
HETATM   18  C   UNL     1      42.612 -12.867  -2.264  1.00  0.00     0.003 A 
HETATM   19  C   UNL     1      41.740 -13.542  -1.409  1.00  0.00     0.001 A 
HETATM   20  C   UNL     1      40.359 -13.426  -1.581  1.00  0.00     0.020 A 
BRANCH  16  21
HETATM   21  O   UNL     1      40.258 -11.128  -4.457  1.00  0.00    -0.355 OA
HETATM   22  C   UNL     1      40.609  -9.774  -4.156  1.00  0.00     0.210 C 
ENDBRANCH  16  21
ENDBRANCH  12  15
ENDBRANCH   9  11
ENDBRANCH   7   9
ENDBRANCH   4   7
BRANCH   1  23
HETATM   23  N   UNL     1      40.161 -14.590   2.450  1.00  0.00    -0.378 N 
HETATM   24  C   UNL     1      41.330 -13.963   3.103  1.00  0.00     0.143 C 
HETATM   25  C   UNL     1      41.975 -14.946   4.099  1.00  0.00     0.146 C 
HETATM   26  N   UNL     1      42.259 -16.261   3.513  1.00  0.00    -0.345 N 
HETATM   27  C   UNL     1      43.172 -17.064   4.203  1.00  0.00     0.253 C 
HETATM   28  C   UNL     1      41.129 -16.846   2.774  1.00  0.00     0.146 C 
HETATM   29  O   UNL     1      43.741 -16.711   5.234  1.00  0.00    -0.267 OA
HETATM   30  C   UNL     1      40.487 -15.863   1.779  1.00  0.00     0.143 C 
BRANCH  27  31
HETATM   31  C   UNL     1      43.501 -18.399   3.654  1.00  0.00     0.032 A 
HETATM   32  C   UNL     1      43.190 -18.715   2.328  1.00  0.00     0.017 A 
HETATM   33  C   UNL     1      43.536 -19.966   1.814  1.00  0.00     0.007 A 
HETATM   34  C   UNL     1      44.196 -20.906   2.618  1.00  0.00    -0.062 A 
HETATM   35  C   UNL     1      44.607 -22.233   2.051  1.00  0.00     0.048 C 
HETATM   36  C   UNL     1      44.534 -20.565   3.935  1.00  0.00     0.007 A 
HETATM   37  C   UNL     1      44.191 -19.314   4.453  1.00  0.00     0.017 A 
ENDBRANCH  27  31
ENDBRANCH   1  23
TORSDOF 7
ENDMDL
MODEL 10
REMARK VINA RESULT:      -8.2      1.901      2.707
REMARK  7 active torsions:
REMARK  status: ('A' for Active; 'I' for Inactive)
REMARK    1  A    between atoms: C_5  and  C_6 
REMARK       I    between atoms: C_6  and  N_7 
REMARK    2  A    between atoms: N_10  and  C_11 
REMARK    3  A    between atoms: C_14  and  N_15 
REMARK    4  A    between atoms: N_15  and  C_16 
REMARK    5  A    between atoms: C_16  and  N_17 
REMARK       I    between atoms: N_17  and  C_18 
REMARK    6  A    between atoms: C_18  and  C_19 
REMARK    7  A    between atoms: C_20  and  O_21 
ROOT
HETATM    1  C   UNL     1      41.238 -14.504   2.745  1.00  0.00     0.030 A 
HETATM    2  C   UNL     1      40.312 -15.042   3.648  1.00  0.00     0.031 A 
HETATM    3  C   UNL     1      40.662 -15.371   4.965  1.00  0.00     0.032 A 
HETATM    4  C   UNL     1      41.965 -15.189   5.417  1.00  0.00     0.034 A 
HETATM    5  C   UNL     1      42.875 -14.554   4.572  1.00  0.00     0.032 A 
HETATM    6  C   UNL     1      42.517 -14.234   3.253  1.00  0.00     0.031 A 
ENDROOT
BRANCH   4   7
HETATM    7  N   UNL     1      42.422 -15.601   6.691  1.00  0.00    -0.333 N 
HETATM    8  H   UNL     1      42.785 -14.847   7.264  1.00  0.00     0.168 HD
BRANCH   7   9
HETATM    9  C   UNL     1      42.916 -16.856   7.076  1.00  0.00     0.179 C 
HETATM   10  S   UNL     1      43.539 -17.282   8.571  1.00  0.00    -0.040 SA
BRANCH   9  11
HETATM   11  N   UNL     1      42.776 -17.750   6.003  1.00  0.00    -0.299 N 
HETATM   12  C   UNL     1      43.736 -18.610   5.474  1.00  0.00     0.260 C 
HETATM   13  O   UNL     1      44.608 -19.187   6.111  1.00  0.00    -0.267 OA
HETATM   14  H   UNL     1      41.987 -17.549   5.405  1.00  0.00     0.171 HD
BRANCH  12  15
HETATM   15  C   UNL     1      43.565 -18.909   4.036  1.00  0.00     0.065 A 
HETATM   16  C   UNL     1      44.116 -20.061   3.467  1.00  0.00     0.084 A 
HETATM   17  C   UNL     1      43.961 -20.306   2.101  1.00  0.00     0.038 A 
HETATM   18  C   UNL     1      43.290 -19.381   1.299  1.00  0.00     0.003 A 
HETATM   19  C   UNL     1      42.756 -18.221   1.862  1.00  0.00     0.001 A 
HETATM   20  C   UNL     1      42.890 -17.981   3.231  1.00  0.00     0.020 A 
BRANCH  16  21
HETATM   21  O   UNL     1      44.712 -21.016   4.246  1.00  0.00    -0.355 OA
HETATM   22  C   UNL     1      44.583 -22.305   3.640  1.00  0.00     0.210 C 
ENDBRANCH  16  21
ENDBRANCH  12  15
ENDBRANCH   9  11
ENDBRANCH   7   9
ENDBRANCH   4   7
BRANCH   1  23
HETATM   23  N   UNL     1      40.965 -14.326   1.390  1.00  0.00    -0.378 N 
HETATM   24  C   UNL     1      41.945 -13.575   0.577  1.00  0.00     0.143 C 
HETATM   25  C   UNL     1      41.791 -13.938  -0.912  1.00  0.00     0.146 C 
HETATM   26  N   UNL     1      40.410 -13.825  -1.396  1.00  0.00    -0.345 N 
HETATM   27  C   UNL     1      40.242 -13.756  -2.783  1.00  0.00     0.253 C 
HETATM   28  C   UNL     1      39.416 -14.485  -0.535  1.00  0.00     0.146 C 
HETATM   29  O   UNL     1      41.177 -13.763  -3.580  1.00  0.00    -0.267 OA
HETATM   30  C   UNL     1      39.571 -14.120   0.952  1.00  0.00     0.143 C 
BRANCH  27  31
HETATM   31  C   UNL     1      38.870 -13.635  -3.326  1.00  0.00     0.032 A 
HETATM   32  C   UNL     1      38.171 -14.772  -3.744  1.00  0.00     0.017 A 
HETATM   33  C   UNL     1      36.866 -14.647  -4.223  1.00  0.00     0.007 A 
HETATM   34  C   UNL     1      36.251 -13.389  -4.285  1.00  0.00    -0.062 A 
HETATM   35  C   UNL     1      34.832 -13.262  -4.758  1.00  0.00     0.048 C 
HETATM   36  C   UNL     1      36.947 -12.262  -3.830  1.00  0.00     0.007 A 
HETATM   37  C   UNL     1      38.253 -12.382  -3.349  1.00  0.00     0.017 A 
ENDBRANCH  27  31
ENDBRANCH   1  23
TORSDOF 7
ENDMDL
