MODEL 1
REMARK VINA RESULT:      -8.8      0.000      0.000
REMARK  8 active torsions:
REMARK  status: ('A' for Active; 'I' for Inactive)
REMARK    1  A    between atoms: C_2  and  C_3 
REMARK    2  A    between atoms: C_6  and  N_7 
REMARK       I    between atoms: N_7  and  C_8 
REMARK    3  A    between atoms: C_8  and  C_9 
REMARK    4  A    between atoms: C_9  and  N_10 
REMARK    5  A    between atoms: C_13  and  C_14 
REMARK       I    between atoms: C_14  and  N_15 
REMARK    6  A    between atoms: N_15  and  C_16 
REMARK    7  A    between atoms: C_17  and  O_18 
REMARK    8  A    between atoms: C_26  and  N_27 
ROOT
HETATM    1  N   UNL     1      41.817 -12.622   5.847  1.00  0.00    -0.248 N 
HETATM    2  N   UNL     1      43.111 -12.672   5.453  1.00  0.00     0.007 NA
HETATM    3  N   UNL     1      43.428 -13.944   5.287  1.00  0.00    -0.150 NA
HETATM    4  C   UNL     1      42.333 -14.712   5.623  1.00  0.00     0.187 A 
HETATM    5  C   UNL     1      41.289 -13.880   5.992  1.00  0.00     0.151 A 
ENDROOT
BRANCH   1   6
HETATM    6  C   UNL     1      41.189 -11.328   5.999  1.00  0.00     0.251 C 
BRANCH   6   7
HETATM    7  C   UNL     1      41.747 -10.544   7.175  1.00  0.00     0.241 C 
HETATM    8  N   UNL     1      42.002 -11.306   8.304  1.00  0.00    -0.326 N 
HETATM    9  H   UNL     1      41.904 -12.317   8.201  1.00  0.00     0.169 HD
HETATM   10  O   UNL     1      41.870  -9.324   7.090  1.00  0.00    -0.271 OA
BRANCH   8  11
HETATM   11  C   UNL     1      42.452 -10.878   9.568  1.00  0.00     0.034 A 
HETATM   12  C   UNL     1      43.793 -10.738   9.918  1.00  0.00     0.030 A 
HETATM   13  C   UNL     1      44.145 -10.285  11.196  1.00  0.00     0.009 A 
HETATM   14  C   UNL     1      43.163  -9.976  12.144  1.00  0.00    -0.058 A 
HETATM   15  C   UNL     1      41.818 -10.116  11.790  1.00  0.00     0.009 A 
HETATM   16  C   UNL     1      41.467 -10.560  10.513  1.00  0.00     0.030 A 
BRANCH  14  17
HETATM   17  C   UNL     1      43.546  -9.468  13.511  1.00  0.00     0.034 C 
HETATM   18  C   UNL     1      42.512  -9.844  14.562  1.00  0.00     0.010 C 
ENDBRANCH  14  17
ENDBRANCH   8  11
ENDBRANCH   6   7
ENDBRANCH   1   6
BRANCH   5  19
HETATM   19  N   UNL     1      40.024 -14.137   6.391  1.00  0.00    -0.382 N 
HETATM   20  H   UNL     1      39.337 -13.376   6.375  1.00  0.00     0.157 HD
HETATM   21  H   UNL     1      39.739 -14.920   6.973  1.00  0.00     0.157 HD
ENDBRANCH   5  19
BRANCH   4  22
HETATM   22  C   UNL     1      42.344 -16.172   5.527  1.00  0.00     0.280 C 
HETATM   23  N   UNL     1      43.560 -16.631   5.051  1.00  0.00    -0.319 N 
HETATM   24  H   UNL     1      44.163 -15.899   4.690  1.00  0.00     0.169 HD
HETATM   25  O   UNL     1      41.347 -16.836   5.780  1.00  0.00    -0.265 OA
BRANCH  23  26
HETATM   26  C   UNL     1      43.950 -17.958   4.777  1.00  0.00     0.069 A 
HETATM   27  C   UNL     1      44.594 -18.830   5.663  1.00  0.00     0.095 A 
HETATM   28  C   UNL     1      44.850 -20.155   5.291  1.00  0.00     0.039 A 
HETATM   29  C   UNL     1      44.524 -20.608   4.013  1.00  0.00     0.009 A 
HETATM   30  C   UNL     1      43.938 -19.739   3.092  1.00  0.00    -0.060 A 
HETATM   31  C   UNL     1      43.594 -20.198   1.705  1.00  0.00     0.048 C 
HETATM   32  C   UNL     1      43.668 -18.417   3.478  1.00  0.00     0.039 A 
BRANCH  27  33
HETATM   33  O   UNL     1      45.050 -18.471   6.902  1.00  0.00    -0.354 OA
HETATM   34  C   UNL     1      44.053 -18.707   7.895  1.00  0.00     0.210 C 
ENDBRANCH  27  33
ENDBRANCH  23  26
ENDBRANCH   4  22
TORSDOF 8
ENDMDL
MODEL 2
REMARK VINA RESULT:      -8.7      1.242      2.204
REMARK  8 active torsions:
REMARK  status: ('A' for Active; 'I' for Inactive)
REMARK    1  A    between atoms: C_2  and  C_3 
REMARK    2  A    between atoms: C_6  and  N_7 
REMARK       I    between atoms: N_7  and  C_8 
REMARK    3  A    between atoms: C_8  and  C_9 
REMARK    4  A    between atoms: C_9  and  N_10 
REMARK    5  A    between atoms: C_13  and  C_14 
REMARK       I    between atoms: C_14  and  N_15 
REMARK    6  A    between atoms: N_15  and  C_16 
REMARK    7  A    between atoms: C_17  and  O_18 
REMARK    8  A    between atoms: C_26  and  N_27 
ROOT
HETATM    1  N   UNL     1      41.460 -12.678   6.104  1.00  0.00    -0.248 N 
HETATM    2  N   UNL     1      42.803 -12.818   6.185  1.00  0.00     0.007 NA
HETATM    3  N   UNL     1      43.097 -14.053   5.819  1.00  0.00    -0.150 NA
HETATM    4  C   UNL     1      41.920 -14.718   5.546  1.00  0.00     0.187 A 
HETATM    5  C   UNL     1      40.855 -13.850   5.729  1.00  0.00     0.151 A 
ENDROOT
BRANCH   1   6
HETATM    6  C   UNL     1      40.883 -11.375   6.355  1.00  0.00     0.251 C 
BRANCH   6   7
HETATM    7  C   UNL     1      41.604 -10.623   7.461  1.00  0.00     0.241 C 
HETATM    8  N   UNL     1      41.620 -11.276   8.683  1.00  0.00    -0.326 N 
HETATM    9  H   UNL     1      41.259 -12.231   8.692  1.00  0.00     0.169 HD
HETATM   10  O   UNL     1      42.050  -9.498   7.242  1.00  0.00    -0.271 OA
BRANCH   8  11
HETATM   11  C   UNL     1      42.139 -10.824   9.912  1.00  0.00     0.034 A 
HETATM   12  C   UNL     1      43.498 -10.725  10.202  1.00  0.00     0.030 A 
HETATM   13  C   UNL     1      43.920 -10.246  11.448  1.00  0.00     0.009 A 
HETATM   14  C   UNL     1      42.992  -9.867  12.425  1.00  0.00    -0.058 A 
HETATM   15  C   UNL     1      41.628  -9.965  12.130  1.00  0.00     0.009 A 
HETATM   16  C   UNL     1      41.208 -10.438  10.885  1.00  0.00     0.030 A 
BRANCH  14  17
HETATM   17  C   UNL     1      43.451  -9.330  13.756  1.00  0.00     0.034 C 
HETATM   18  C   UNL     1      42.435  -9.604  14.855  1.00  0.00     0.010 C 
ENDBRANCH  14  17
ENDBRANCH   8  11
ENDBRANCH   6   7
ENDBRANCH   1   6
BRANCH   5  19
HETATM   19  N   UNL     1      39.521 -14.011   5.585  1.00  0.00    -0.382 N 
HETATM   20  H   UNL     1      38.985 -14.406   6.365  1.00  0.00     0.157 HD
HETATM   21  H   UNL     1      39.027 -14.052   4.698  1.00  0.00     0.157 HD
ENDBRANCH   5  19
BRANCH   4  22
HETATM   22  C   UNL     1      41.895 -16.108   5.089  1.00  0.00     0.280 C 
HETATM   23  N   UNL     1      43.000 -16.395   4.308  1.00  0.00    -0.319 N 
HETATM   24  H   UNL     1      43.539 -15.578   4.040  1.00  0.00     0.169 HD
HETATM   25  O   UNL     1      40.950 -16.845   5.340  1.00  0.00    -0.265 OA
BRANCH  23  26
HETATM   26  C   UNL     1      43.319 -17.600   3.648  1.00  0.00     0.069 A 
HETATM   27  C   UNL     1      43.111 -17.879   2.291  1.00  0.00     0.095 A 
HETATM   28  C   UNL     1      43.554 -19.088   1.742  1.00  0.00     0.039 A 
HETATM   29  C   UNL     1      44.151 -20.057   2.549  1.00  0.00     0.009 A 
HETATM   30  C   UNL     1      44.312 -19.825   3.915  1.00  0.00    -0.060 A 
HETATM   31  C   UNL     1      44.936 -20.859   4.806  1.00  0.00     0.048 C 
HETATM   32  C   UNL     1      43.882 -18.604   4.455  1.00  0.00     0.039 A 
BRANCH  27  33
HETATM   33  O   UNL     1      42.448 -17.051   1.427  1.00  0.00    -0.354 OA
HETATM   34  C   UNL     1      41.049 -17.333   1.431  1.00  0.00     0.210 C 
ENDBRANCH  27  33
ENDBRANCH  23  26
ENDBRANCH   4  22
TORSDOF 8
ENDMDL
MODEL 3
REMARK VINA RESULT:      -8.4      5.261      8.119
REMARK  8 active torsions:
REMARK  status: ('A' for Active; 'I' for Inactive)
REMARK    1  A    between atoms: C_2  and  C_3 
REMARK    2  A    between atoms: C_6  and  N_7 
REMARK       I    between atoms: N_7  and  C_8 
REMARK    3  A    between atoms: C_8  and  C_9 
REMARK    4  A    between atoms: C_9  and  N_10 
REMARK    5  A    between atoms: C_13  and  C_14 
REMARK       I    between atoms: C_14  and  N_15 
REMARK    6  A    between atoms: N_15  and  C_16 
REMARK    7  A    between atoms: C_17  and  O_18 
REMARK    8  A    between atoms: C_26  and  N_27 
ROOT
HETATM    1  N   UNL     1      41.970 -13.556   3.292  1.00  0.00    -0.248 N 
HETATM    2  N   UNL     1      43.286 -13.709   3.016  1.00  0.00     0.007 NA
HETATM    3  N   UNL     1      43.593 -14.976   3.231  1.00  0.00    -0.150 NA
HETATM    4  C   UNL     1      42.467 -15.625   3.691  1.00  0.00     0.187 A 
HETATM    5  C   UNL     1      41.413 -14.727   3.742  1.00  0.00     0.151 A 
ENDROOT
BRANCH   1   6
HETATM    6  C   UNL     1      41.353 -12.273   3.036  1.00  0.00     0.251 C 
BRANCH   6   7
HETATM    7  C   UNL     1      41.058 -12.052   1.562  1.00  0.00     0.241 C 
HETATM    8  N   UNL     1      42.158 -12.186   0.730  1.00  0.00    -0.326 N 
HETATM    9  H   UNL     1      43.016 -12.529   1.164  1.00  0.00     0.169 HD
HETATM   10  O   UNL     1      39.929 -11.713   1.211  1.00  0.00    -0.271 OA
BRANCH   8  11
HETATM   11  C   UNL     1      42.235 -11.980  -0.660  1.00  0.00     0.034 A 
HETATM   12  C   UNL     1      41.824 -12.907  -1.616  1.00  0.00     0.030 A 
HETATM   13  C   UNL     1      41.922 -12.605  -2.980  1.00  0.00     0.009 A 
HETATM   14  C   UNL     1      42.440 -11.378  -3.409  1.00  0.00    -0.058 A 
HETATM   15  C   UNL     1      42.851 -10.448  -2.448  1.00  0.00     0.009 A 
HETATM   16  C   UNL     1      42.746 -10.747  -1.087  1.00  0.00     0.030 A 
BRANCH  14  17
HETATM   17  C   UNL     1      42.523 -11.048  -4.877  1.00  0.00     0.034 C 
HETATM   18  C   UNL     1      42.415  -9.551  -5.126  1.00  0.00     0.010 C 
ENDBRANCH  14  17
ENDBRANCH   8  11
ENDBRANCH   6   7
ENDBRANCH   1   6
BRANCH   5  19
HETATM   19  N   UNL     1      40.120 -14.867   4.109  1.00  0.00    -0.382 N 
HETATM   20  H   UNL     1      39.425 -15.092   3.390  1.00  0.00     0.157 HD
HETATM   21  H   UNL     1      39.709 -14.500   4.962  1.00  0.00     0.157 HD
ENDBRANCH   5  19
BRANCH   4  22
HETATM   22  C   UNL     1      42.461 -17.054   4.003  1.00  0.00     0.280 C 
HETATM   23  N   UNL     1      43.695 -17.626   3.745  1.00  0.00    -0.319 N 
HETATM   24  H   UNL     1      44.328 -17.022   3.233  1.00  0.00     0.169 HD
HETATM   25  O   UNL     1      41.440 -17.623   4.370  1.00  0.00    -0.265 OA
BRANCH  23  26
HETATM   26  C   UNL     1      44.080 -18.976   3.873  1.00  0.00     0.069 A 
HETATM   27  C   UNL     1      44.553 -19.594   5.037  1.00  0.00     0.095 A 
HETATM   28  C   UNL     1      44.820 -20.969   5.049  1.00  0.00     0.039 A 
HETATM   29  C   UNL     1      44.679 -21.729   3.889  1.00  0.00     0.009 A 
HETATM   30  C   UNL     1      44.268 -21.122   2.701  1.00  0.00    -0.060 A 
HETATM   31  C   UNL     1      44.126 -21.915   1.436  1.00  0.00     0.048 C 
HETATM   32  C   UNL     1      43.985 -19.747   2.701  1.00  0.00     0.039 A 
BRANCH  27  33
HETATM   33  O   UNL     1      44.827 -18.933   6.203  1.00  0.00    -0.354 OA
HETATM   34  C   UNL     1      43.805 -19.174   7.171  1.00  0.00     0.210 C 
ENDBRANCH  27  33
ENDBRANCH  23  26
ENDBRANCH   4  22
TORSDOF 8
ENDMDL
MODEL 4
REMARK VINA RESULT:      -8.2      2.617      9.455
REMARK  8 active torsions:
REMARK  status: ('A' for Active; 'I' for Inactive)
REMARK    1  A    between atoms: C_2  and  C_3 
REMARK    2  A    between atoms: C_6  and  N_7 
REMARK       I    between atoms: N_7  and  C_8 
REMARK    3  A    between atoms: C_8  and  C_9 
REMARK    4  A    between atoms: C_9  and  N_10 
REMARK    5  A    between atoms: C_13  and  C_14 
REMARK       I    between atoms: C_14  and  N_15 
REMARK    6  A    between atoms: N_15  and  C_16 
REMARK    7  A    between atoms: C_17  and  O_18 
REMARK    8  A    between atoms: C_26  and  N_27 
ROOT
HETATM    1  N   UNL     1      39.694 -12.168   5.097  1.00  0.00    -0.248 N 
HETATM    2  N   UNL     1      38.960 -12.517   6.179  1.00  0.00     0.007 NA
HETATM    3  N   UNL     1      39.530 -11.972   7.240  1.00  0.00    -0.150 NA
HETATM    4  C   UNL     1      40.665 -11.305   6.829  1.00  0.00     0.187 A 
HETATM    5  C   UNL     1      40.791 -11.425   5.454  1.00  0.00     0.151 A 
ENDROOT
BRANCH   1   6
HETATM    6  C   UNL     1      39.222 -12.555   3.786  1.00  0.00     0.251 C 
BRANCH   6   7
HETATM    7  C   UNL     1      40.164 -13.522   3.089  1.00  0.00     0.241 C 
HETATM    8  N   UNL     1      39.943 -14.856   3.392  1.00  0.00    -0.326 N 
HETATM    9  H   UNL     1      39.114 -15.065   3.949  1.00  0.00     0.169 HD
HETATM   10  O   UNL     1      41.072 -13.087   2.383  1.00  0.00    -0.271 OA
BRANCH   8  11
HETATM   11  C   UNL     1      40.677 -15.983   2.973  1.00  0.00     0.034 A 
HETATM   12  C   UNL     1      40.594 -16.544   1.701  1.00  0.00     0.030 A 
HETATM   13  C   UNL     1      41.378 -17.657   1.368  1.00  0.00     0.009 A 
HETATM   14  C   UNL     1      42.248 -18.229   2.303  1.00  0.00    -0.058 A 
HETATM   15  C   UNL     1      42.330 -17.663   3.580  1.00  0.00     0.009 A 
HETATM   16  C   UNL     1      41.552 -16.549   3.909  1.00  0.00     0.030 A 
BRANCH  14  17
HETATM   17  C   UNL     1      43.106 -19.411   1.934  1.00  0.00     0.034 C 
HETATM   18  C   UNL     1      44.175 -19.682   2.982  1.00  0.00     0.010 C 
ENDBRANCH  14  17
ENDBRANCH   8  11
ENDBRANCH   6   7
ENDBRANCH   1   6
BRANCH   5  19
HETATM   19  N   UNL     1      41.711 -10.953   4.584  1.00  0.00    -0.382 N 
HETATM   20  H   UNL     1      42.613 -10.631   4.948  1.00  0.00     0.157 HD
HETATM   21  H   UNL     1      41.514 -10.616   3.646  1.00  0.00     0.157 HD
ENDBRANCH   5  19
BRANCH   4  22
HETATM   22  C   UNL     1      41.519 -10.569   7.761  1.00  0.00     0.280 C 
HETATM   23  N   UNL     1      41.678 -11.264   8.947  1.00  0.00    -0.319 N 
HETATM   24  H   UNL     1      41.055 -12.059   9.044  1.00  0.00     0.169 HD
HETATM   25  O   UNL     1      41.945  -9.453   7.491  1.00  0.00    -0.265 OA
BRANCH  23  26
HETATM   26  C   UNL     1      42.384 -10.876  10.104  1.00  0.00     0.069 A 
HETATM   27  C   UNL     1      43.753 -10.592  10.180  1.00  0.00     0.095 A 
HETATM   28  C   UNL     1      44.315 -10.132  11.377  1.00  0.00     0.039 A 
HETATM   29  C   UNL     1      43.533 -10.009  12.525  1.00  0.00     0.009 A 
HETATM   30  C   UNL     1      42.179 -10.345  12.489  1.00  0.00    -0.060 A 
HETATM   31  C   UNL     1      41.322 -10.237  13.715  1.00  0.00     0.048 C 
HETATM   32  C   UNL     1      41.620 -10.788  11.281  1.00  0.00     0.039 A 
BRANCH  27  33
HETATM   33  O   UNL     1      44.636 -10.772   9.149  1.00  0.00    -0.354 OA
HETATM   34  C   UNL     1      45.412 -11.953   9.351  1.00  0.00     0.210 C 
ENDBRANCH  27  33
ENDBRANCH  23  26
ENDBRANCH   4  22
TORSDOF 8
ENDMDL
MODEL 5
REMARK VINA RESULT:      -8.2      5.701     10.124
REMARK  8 active torsions:
REMARK  status: ('A' for Active; 'I' for Inactive)
REMARK    1  A    between atoms: C_2  and  C_3 
REMARK    2  A    between atoms: C_6  and  N_7 
REMARK       I    between atoms: N_7  and  C_8 
REMARK    3  A    between atoms: C_8  and  C_9 
REMARK    4  A    between atoms: C_9  and  N_10 
REMARK    5  A    between atoms: C_13  and  C_14 
REMARK       I    between atoms: C_14  and  N_15 
REMARK    6  A    between atoms: N_15  and  C_16 
REMARK    7  A    between atoms: C_17  and  O_18 
REMARK    8  A    between atoms: C_26  and  N_27 
ROOT
HETATM    1  N   UNL     1      41.516 -14.196   3.457  1.00  0.00    -0.248 N 
HETATM    2  N   UNL     1      42.685 -13.528   3.322  1.00  0.00     0.007 NA
HETATM    3  N   UNL     1      42.671 -12.935   2.142  1.00  0.00    -0.150 NA
HETATM    4  C   UNL     1      41.495 -13.267   1.502  1.00  0.00     0.187 A 
HETATM    5  C   UNL     1      40.741 -14.083   2.331  1.00  0.00     0.151 A 
ENDROOT
BRANCH   1   6
HETATM    6  C   UNL     1      41.234 -14.852   4.715  1.00  0.00     0.251 C 
BRANCH   6   7
HETATM    7  C   UNL     1      41.614 -16.323   4.703  1.00  0.00     0.241 C 
HETATM    8  N   UNL     1      42.595 -16.655   3.782  1.00  0.00    -0.326 N 
HETATM    9  H   UNL     1      43.041 -15.878   3.294  1.00  0.00     0.169 HD
HETATM   10  O   UNL     1      41.012 -17.114   5.427  1.00  0.00    -0.271 OA
BRANCH   8  11
HETATM   11  C   UNL     1      43.115 -17.927   3.475  1.00  0.00     0.034 A 
HETATM   12  C   UNL     1      43.958 -18.653   4.313  1.00  0.00     0.030 A 
HETATM   13  C   UNL     1      44.411 -19.922   3.931  1.00  0.00     0.009 A 
HETATM   14  C   UNL     1      44.036 -20.479   2.703  1.00  0.00    -0.058 A 
HETATM   15  C   UNL     1      43.188 -19.749   1.864  1.00  0.00     0.009 A 
HETATM   16  C   UNL     1      42.732 -18.486   2.249  1.00  0.00     0.030 A 
BRANCH  14  17
HETATM   17  C   UNL     1      44.508 -21.854   2.305  1.00  0.00     0.034 C 
HETATM   18  C   UNL     1      44.697 -22.758   3.514  1.00  0.00     0.010 C 
ENDBRANCH  14  17
ENDBRANCH   8  11
ENDBRANCH   6   7
ENDBRANCH   1   6
BRANCH   5  19
HETATM   19  N   UNL     1      39.530 -14.661   2.174  1.00  0.00    -0.382 N 
HETATM   20  H   UNL     1      39.398 -15.330   1.409  1.00  0.00     0.157 HD
HETATM   21  H   UNL     1      38.655 -14.302   2.546  1.00  0.00     0.157 HD
ENDBRANCH   5  19
BRANCH   4  22
HETATM   22  C   UNL     1      41.154 -12.753   0.175  1.00  0.00     0.280 C 
HETATM   23  N   UNL     1      42.278 -12.277  -0.478  1.00  0.00    -0.319 N 
HETATM   24  H   UNL     1      43.097 -12.201   0.115  1.00  0.00     0.169 HD
HETATM   25  O   UNL     1      39.994 -12.709  -0.214  1.00  0.00    -0.265 OA
BRANCH  23  26
HETATM   26  C   UNL     1      42.362 -11.666  -1.746  1.00  0.00     0.069 A 
HETATM   27  C   UNL     1      42.252 -12.311  -2.983  1.00  0.00     0.095 A 
HETATM   28  C   UNL     1      42.268 -11.571  -4.171  1.00  0.00     0.039 A 
HETATM   29  C   UNL     1      42.456 -10.189  -4.143  1.00  0.00     0.009 A 
HETATM   30  C   UNL     1      42.630  -9.532  -2.924  1.00  0.00    -0.060 A 
HETATM   31  C   UNL     1      42.852  -8.049  -2.869  1.00  0.00     0.048 C 
HETATM   32  C   UNL     1      42.595 -10.279  -1.736  1.00  0.00     0.039 A 
BRANCH  27  33
HETATM   33  O   UNL     1      42.166 -13.668  -3.140  1.00  0.00    -0.354 OA
HETATM   34  C   UNL     1      40.835 -14.052  -3.486  1.00  0.00     0.210 C 
ENDBRANCH  27  33
ENDBRANCH  23  26
ENDBRANCH   4  22
TORSDOF 8
ENDMDL
MODEL 6
REMARK VINA RESULT:      -8.2      2.461      9.573
REMARK  8 active torsions:
REMARK  status: ('A' for Active; 'I' for Inactive)
REMARK    1  A    between atoms: C_2  and  C_3 
REMARK    2  A    between atoms: C_6  and  N_7 
REMARK       I    between atoms: N_7  and  C_8 
REMARK    3  A    between atoms: C_8  and  C_9 
REMARK    4  A    between atoms: C_9  and  N_10 
REMARK    5  A    between atoms: C_13  and  C_14 
REMARK       I    between atoms: C_14  and  N_15 
REMARK    6  A    between atoms: N_15  and  C_16 
REMARK    7  A    between atoms: C_17  and  O_18 
REMARK    8  A    between atoms: C_26  and  N_27 
ROOT
HETATM    1  N   UNL     1      40.296 -13.433   3.948  1.00  0.00    -0.248 N 
HETATM    2  N   UNL     1      39.820 -13.999   5.082  1.00  0.00     0.007 NA
HETATM    3  N   UNL     1      40.189 -13.234   6.094  1.00  0.00    -0.150 NA
HETATM    4  C   UNL     1      40.947 -12.193   5.599  1.00  0.00     0.187 A 
HETATM    5  C   UNL     1      41.032 -12.308   4.220  1.00  0.00     0.151 A 
ENDROOT
BRANCH   1   6
HETATM    6  C   UNL     1      39.940 -14.024   2.677  1.00  0.00     0.251 C 
BRANCH   6   7
HETATM    7  C   UNL     1      40.405 -15.466   2.554  1.00  0.00     0.241 C 
HETATM    8  N   UNL     1      41.665 -15.709   3.078  1.00  0.00    -0.326 N 
HETATM    9  H   UNL     1      42.100 -14.941   3.590  1.00  0.00     0.169 HD
HETATM   10  O   UNL     1      39.703 -16.284   1.963  1.00  0.00    -0.271 OA
BRANCH   8  11
HETATM   11  C   UNL     1      42.404 -16.907   3.062  1.00  0.00     0.034 A 
HETATM   12  C   UNL     1      42.602 -17.723   4.173  1.00  0.00     0.030 A 
HETATM   13  C   UNL     1      43.338 -18.909   4.057  1.00  0.00     0.009 A 
HETATM   14  C   UNL     1      43.895 -19.291   2.831  1.00  0.00    -0.058 A 
HETATM   15  C   UNL     1      43.694 -18.471   1.716  1.00  0.00     0.009 A 
HETATM   16  C   UNL     1      42.954 -17.292   1.832  1.00  0.00     0.030 A 
BRANCH  14  17
HETATM   17  C   UNL     1      44.667 -20.579   2.704  1.00  0.00     0.034 C 
HETATM   18  C   UNL     1      43.919 -21.606   1.866  1.00  0.00     0.010 C 
ENDBRANCH  14  17
ENDBRANCH   8  11
ENDBRANCH   6   7
ENDBRANCH   1   6
BRANCH   5  19
HETATM   19  N   UNL     1      41.643 -11.549   3.285  1.00  0.00    -0.382 N 
HETATM   20  H   UNL     1      42.653 -11.389   3.362  1.00  0.00     0.157 HD
HETATM   21  H   UNL     1      41.179 -10.884   2.672  1.00  0.00     0.157 HD
ENDBRANCH   5  19
BRANCH   4  22
HETATM   22  C   UNL     1      41.495 -11.146   6.461  1.00  0.00     0.280 C 
HETATM   23  N   UNL     1      41.813 -11.646   7.712  1.00  0.00    -0.319 N 
HETATM   24  H   UNL     1      41.462 -12.583   7.881  1.00  0.00     0.169 HD
HETATM   25  O   UNL     1      41.566  -9.983   6.086  1.00  0.00    -0.265 OA
BRANCH  23  26
HETATM   26  C   UNL     1      42.318 -10.954   8.831  1.00  0.00     0.069 A 
HETATM   27  C   UNL     1      41.626 -10.015   9.605  1.00  0.00     0.095 A 
HETATM   28  C   UNL     1      42.219  -9.463  10.746  1.00  0.00     0.039 A 
HETATM   29  C   UNL     1      43.529  -9.793  11.095  1.00  0.00     0.009 A 
HETATM   30  C   UNL     1      44.260 -10.680  10.303  1.00  0.00    -0.060 A 
HETATM   31  C   UNL     1      45.676 -11.036  10.648  1.00  0.00     0.048 C 
HETATM   32  C   UNL     1      43.652 -11.242   9.171  1.00  0.00     0.039 A 
BRANCH  27  33
HETATM   33  O   UNL     1      40.378  -9.540   9.305  1.00  0.00    -0.354 OA
HETATM   34  C   UNL     1      39.376 -10.271  10.011  1.00  0.00     0.210 C 
ENDBRANCH  27  33
ENDBRANCH  23  26
ENDBRANCH   4  22
TORSDOF 8
ENDMDL
MODEL 7
REMARK VINA RESULT:      -7.9      2.644     10.190
REMARK  8 active torsions:
REMARK  status: ('A' for Active; 'I' for Inactive)
REMARK    1  A    between atoms: C_2  and  C_3 
REMARK    2  A    between atoms: C_6  and  N_7 
REMARK       I    between atoms: N_7  and  C_8 
REMARK    3  A    between atoms: C_8  and  C_9 
REMARK    4  A    between atoms: C_9  and  N_10 
REMARK    5  A    between atoms: C_13  and  C_14 
REMARK       I    between atoms: C_14  and  N_15 
REMARK    6  A    between atoms: N_15  and  C_16 
REMARK    7  A    between atoms: C_17  and  O_18 
REMARK    8  A    between atoms: C_26  and  N_27 
ROOT
HETATM    1  N   UNL     1      40.597 -13.479   4.130  1.00  0.00    -0.248 N 
HETATM    2  N   UNL     1      39.910 -14.208   5.040  1.00  0.00     0.007 NA
HETATM    3  N   UNL     1      39.858 -13.505   6.157  1.00  0.00    -0.150 NA
HETATM    4  C   UNL     1      40.560 -12.333   5.966  1.00  0.00     0.187 A 
HETATM    5  C   UNL     1      41.048 -12.301   4.669  1.00  0.00     0.151 A 
ENDROOT
BRANCH   1   6
HETATM    6  C   UNL     1      40.708 -13.984   2.779  1.00  0.00     0.251 C 
BRANCH   6   7
HETATM    7  C   UNL     1      41.832 -14.995   2.626  1.00  0.00     0.241 C 
HETATM    8  N   UNL     1      41.489 -16.291   2.975  1.00  0.00    -0.326 N 
HETATM    9  H   UNL     1      40.504 -16.460   3.184  1.00  0.00     0.169 HD
HETATM   10  O   UNL     1      42.951 -14.615   2.285  1.00  0.00    -0.271 OA
BRANCH   8  11
HETATM   11  C   UNL     1      42.309 -17.435   3.013  1.00  0.00     0.034 A 
HETATM   12  C   UNL     1      43.086 -17.809   4.107  1.00  0.00     0.030 A 
HETATM   13  C   UNL     1      43.858 -18.977   4.059  1.00  0.00     0.009 A 
HETATM   14  C   UNL     1      43.872 -19.782   2.915  1.00  0.00    -0.058 A 
HETATM   15  C   UNL     1      43.090 -19.406   1.818  1.00  0.00     0.009 A 
HETATM   16  C   UNL     1      42.315 -18.245   1.869  1.00  0.00     0.030 A 
BRANCH  14  17
HETATM   17  C   UNL     1      44.686 -21.050   2.876  1.00  0.00     0.034 C 
HETATM   18  C   UNL     1      44.248 -21.967   1.744  1.00  0.00     0.010 C 
ENDBRANCH  14  17
ENDBRANCH   8  11
ENDBRANCH   6   7
ENDBRANCH   1   6
BRANCH   5  19
HETATM   19  N   UNL     1      41.777 -11.382   3.999  1.00  0.00    -0.382 N 
HETATM   20  H   UNL     1      42.405 -10.769   4.529  1.00  0.00     0.157 HD
HETATM   21  H   UNL     1      41.571 -11.034   3.067  1.00  0.00     0.157 HD
ENDBRANCH   5  19
BRANCH   4  22
HETATM   22  C   UNL     1      40.677 -11.313   7.009  1.00  0.00     0.280 C 
HETATM   23  N   UNL     1      39.816 -11.575   8.060  1.00  0.00    -0.319 N 
HETATM   24  H   UNL     1      39.139 -12.305   7.865  1.00  0.00     0.169 HD
HETATM   25  O   UNL     1      41.409 -10.341   6.871  1.00  0.00    -0.265 OA
BRANCH  23  26
HETATM   26  C   UNL     1      39.598 -10.813   9.226  1.00  0.00     0.069 A 
HETATM   27  C   UNL     1      38.844  -9.636   9.316  1.00  0.00     0.095 A 
HETATM   28  C   UNL     1      38.635  -9.023  10.557  1.00  0.00     0.039 A 
HETATM   29  C   UNL     1      39.225  -9.538  11.711  1.00  0.00     0.009 A 
HETATM   30  C   UNL     1      40.031 -10.675  11.636  1.00  0.00    -0.060 A 
HETATM   31  C   UNL     1      40.691 -11.238  12.860  1.00  0.00     0.048 C 
HETATM   32  C   UNL     1      40.221 -11.294  10.391  1.00  0.00     0.039 A 
BRANCH  27  33
HETATM   33  O   UNL     1      38.303  -8.984   8.241  1.00  0.00    -0.354 OA
HETATM   34  C   UNL     1      38.570  -7.584   8.314  1.00  0.00     0.210 C 
ENDBRANCH  27  33
ENDBRANCH  23  26
ENDBRANCH   4  22
TORSDOF 8
ENDMDL
MODEL 8
REMARK VINA RESULT:      -7.8      2.045      3.202
REMARK  8 active torsions:
REMARK  status: ('A' for Active; 'I' for Inactive)
REMARK    1  A    between atoms: C_2  and  C_3 
REMARK    2  A    between atoms: C_6  and  N_7 
REMARK       I    between atoms: N_7  and  C_8 
REMARK    3  A    between atoms: C_8  and  C_9 
REMARK    4  A    between atoms: C_9  and  N_10 
REMARK    5  A    between atoms: C_13  and  C_14 
REMARK       I    between atoms: C_14  and  N_15 
REMARK    6  A    between atoms: N_15  and  C_16 
REMARK    7  A    between atoms: C_17  and  O_18 
REMARK    8  A    between atoms: C_26  and  N_27 
ROOT
HETATM    1  N   UNL     1      40.139 -11.970   5.602  1.00  0.00    -0.248 N 
HETATM    2  N   UNL     1      39.777 -13.097   6.258  1.00  0.00     0.007 NA
HETATM    3  N   UNL     1      40.584 -14.065   5.863  1.00  0.00    -0.150 NA
HETATM    4  C   UNL     1      41.442 -13.555   4.911  1.00  0.00     0.187 A 
HETATM    5  C   UNL     1      41.166 -12.209   4.726  1.00  0.00     0.151 A 
ENDROOT
BRANCH   1   6
HETATM    6  C   UNL     1      39.472 -10.731   5.935  1.00  0.00     0.251 C 
BRANCH   6   7
HETATM    7  C   UNL     1      39.588 -10.385   7.410  1.00  0.00     0.241 C 
HETATM    8  N   UNL     1      40.674 -10.960   8.050  1.00  0.00    -0.326 N 
HETATM    9  H   UNL     1      41.342 -11.454   7.458  1.00  0.00     0.169 HD
HETATM   10  O   UNL     1      38.716  -9.703   7.946  1.00  0.00    -0.271 OA
BRANCH   8  11
HETATM   11  C   UNL     1      41.022 -10.896   9.413  1.00  0.00     0.034 A 
HETATM   12  C   UNL     1      40.220 -11.363  10.452  1.00  0.00     0.030 A 
HETATM   13  C   UNL     1      40.659 -11.273  11.779  1.00  0.00     0.009 A 
HETATM   14  C   UNL     1      41.902 -10.708  12.087  1.00  0.00    -0.058 A 
HETATM   15  C   UNL     1      42.706 -10.241  11.043  1.00  0.00     0.009 A 
HETATM   16  C   UNL     1      42.270 -10.336   9.719  1.00  0.00     0.030 A 
BRANCH  14  17
HETATM   17  C   UNL     1      42.381 -10.634  13.515  1.00  0.00     0.034 C 
HETATM   18  C   UNL     1      43.223  -9.391  13.763  1.00  0.00     0.010 C 
ENDBRANCH  14  17
ENDBRANCH   8  11
ENDBRANCH   6   7
ENDBRANCH   1   6
BRANCH   5  19
HETATM   19  N   UNL     1      41.721 -11.274   3.924  1.00  0.00    -0.382 N 
HETATM   20  H   UNL     1      42.742 -11.241   3.837  1.00  0.00     0.157 HD
HETATM   21  H   UNL     1      41.266 -10.419   3.617  1.00  0.00     0.157 HD
ENDBRANCH   5  19
BRANCH   4  22
HETATM   22  C   UNL     1      42.484 -14.366   4.282  1.00  0.00     0.280 C 
HETATM   23  N   UNL     1      42.014 -15.631   3.975  1.00  0.00    -0.319 N 
HETATM   24  H   UNL     1      41.109 -15.843   4.382  1.00  0.00     0.169 HD
HETATM   25  O   UNL     1      43.625 -13.944   4.144  1.00  0.00    -0.265 OA
BRANCH  23  26
HETATM   26  C   UNL     1      42.715 -16.714   3.407  1.00  0.00     0.069 A 
HETATM   27  C   UNL     1      43.011 -16.886   2.049  1.00  0.00     0.095 A 
HETATM   28  C   UNL     1      43.793 -17.968   1.627  1.00  0.00     0.039 A 
HETATM   29  C   UNL     1      44.235 -18.923   2.542  1.00  0.00     0.009 A 
HETATM   30  C   UNL     1      43.900 -18.805   3.891  1.00  0.00    -0.060 A 
HETATM   31  C   UNL     1      44.349 -19.829   4.892  1.00  0.00     0.048 C 
HETATM   32  C   UNL     1      43.131 -17.709   4.310  1.00  0.00     0.039 A 
BRANCH  27  33
HETATM   33  O   UNL     1      42.548 -16.072   1.051  1.00  0.00    -0.354 OA
HETATM   34  C   UNL     1      41.348 -16.599   0.486  1.00  0.00     0.210 C 
ENDBRANCH  27  33
ENDBRANCH  23  26
ENDBRANCH   4  22
TORSDOF 8
ENDMDL
MODEL 9
REMARK VINA RESULT:      -7.7      2.377      9.805
REMARK  8 active torsions:
REMARK  status: ('A' for Active; 'I' for Inactive)
REMARK    1  A    between atoms: C_2  and  C_3 
REMARK    2  A    between atoms: C_6  and  N_7 
REMARK       I    between atoms: N_7  and  C_8 
REMARK    3  A    between atoms: C_8  and  C_9 
REMARK    4  A    between atoms: C_9  and  N_10 
REMARK    5  A    between atoms: C_13  and  C_14 
REMARK       I    between atoms: C_14  and  N_15 
REMARK    6  A    between atoms: N_15  and  C_16 
REMARK    7  A    between atoms: C_17  and  O_18 
REMARK    8  A    between atoms: C_26  and  N_27 
ROOT
HETATM    1  N   UNL     1      40.780 -13.233   4.112  1.00  0.00    -0.248 N 
HETATM    2  N   UNL     1      40.045 -14.100   4.848  1.00  0.00     0.007 NA
HETATM    3  N   UNL     1      39.689 -13.478   5.957  1.00  0.00    -0.150 NA
HETATM    4  C   UNL     1      40.243 -12.215   5.945  1.00  0.00     0.187 A 
HETATM    5  C   UNL     1      40.953 -12.041   4.768  1.00  0.00     0.151 A 
ENDROOT
BRANCH   1   6
HETATM    6  C   UNL     1      41.209 -13.637   2.791  1.00  0.00     0.251 C 
BRANCH   6   7
HETATM    7  C   UNL     1      42.283 -14.712   2.831  1.00  0.00     0.241 C 
HETATM    8  N   UNL     1      41.796 -16.009   2.826  1.00  0.00    -0.326 N 
HETATM    9  H   UNL     1      40.792 -16.117   2.680  1.00  0.00     0.169 HD
HETATM   10  O   UNL     1      43.465 -14.388   2.931  1.00  0.00    -0.271 OA
BRANCH   8  11
HETATM   11  C   UNL     1      42.516 -17.215   2.924  1.00  0.00     0.034 A 
HETATM   12  C   UNL     1      43.175 -17.645   4.074  1.00  0.00     0.030 A 
HETATM   13  C   UNL     1      43.851 -18.872   4.084  1.00  0.00     0.009 A 
HETATM   14  C   UNL     1      43.886 -19.682   2.944  1.00  0.00    -0.058 A 
HETATM   15  C   UNL     1      43.223 -19.249   1.791  1.00  0.00     0.009 A 
HETATM   16  C   UNL     1      42.543 -18.028   1.784  1.00  0.00     0.030 A 
BRANCH  14  17
HETATM   17  C   UNL     1      44.596 -21.011   2.965  1.00  0.00     0.034 C 
HETATM   18  C   UNL     1      44.190 -21.886   1.789  1.00  0.00     0.010 C 
ENDBRANCH  14  17
ENDBRANCH   8  11
ENDBRANCH   6   7
ENDBRANCH   1   6
BRANCH   5  19
HETATM   19  N   UNL     1      41.659 -10.997   4.282  1.00  0.00    -0.382 N 
HETATM   20  H   UNL     1      42.254 -11.143   3.460  1.00  0.00     0.157 HD
HETATM   21  H   UNL     1      41.892 -10.153   4.799  1.00  0.00     0.157 HD
ENDBRANCH   5  19
BRANCH   4  22
HETATM   22  C   UNL     1      40.022 -11.253   7.025  1.00  0.00     0.280 C 
HETATM   23  N   UNL     1      40.997 -11.367   8.001  1.00  0.00    -0.319 N 
HETATM   24  H   UNL     1      41.585 -12.188   7.901  1.00  0.00     0.169 HD
HETATM   25  O   UNL     1      39.039 -10.523   7.039  1.00  0.00    -0.265 OA
BRANCH  23  26
HETATM   26  C   UNL     1      41.113 -10.658   9.214  1.00  0.00     0.069 A 
HETATM   27  C   UNL     1      42.299 -10.173   9.779  1.00  0.00     0.095 A 
HETATM   28  C   UNL     1      42.263  -9.406  10.949  1.00  0.00     0.039 A 
HETATM   29  C   UNL     1      41.055  -9.165  11.602  1.00  0.00     0.009 A 
HETATM   30  C   UNL     1      39.867  -9.690  11.091  1.00  0.00    -0.060 A 
HETATM   31  C   UNL     1      38.558  -9.460  11.786  1.00  0.00     0.048 C 
HETATM   32  C   UNL     1      39.909 -10.443   9.908  1.00  0.00     0.039 A 
BRANCH  27  33
HETATM   33  O   UNL     1      43.549 -10.431   9.284  1.00  0.00    -0.354 OA
HETATM   34  C   UNL     1      44.120 -11.570   9.926  1.00  0.00     0.210 C 
ENDBRANCH  27  33
ENDBRANCH  23  26
ENDBRANCH   4  22
TORSDOF 8
ENDMDL
MODEL 10
REMARK VINA RESULT:      -7.7      6.569      9.820
REMARK  8 active torsions:
REMARK  status: ('A' for Active; 'I' for Inactive)
REMARK    1  A    between atoms: C_2  and  C_3 
REMARK    2  A    between atoms: C_6  and  N_7 
REMARK       I    between atoms: N_7  and  C_8 
REMARK    3  A    between atoms: C_8  and  C_9 
REMARK    4  A    between atoms: C_9  and  N_10 
REMARK    5  A    between atoms: C_13  and  C_14 
REMARK       I    between atoms: C_14  and  N_15 
REMARK    6  A    between atoms: N_15  and  C_16 
REMARK    7  A    between atoms: C_17  and  O_18 
REMARK    8  A    between atoms: C_26  and  N_27 
ROOT
HETATM    1  N   UNL     1      41.918 -13.814   0.759  1.00  0.00    -0.248 N 
HETATM    2  N   UNL     1      42.508 -13.229   1.827  1.00  0.00     0.007 NA
HETATM    3  N   UNL     1      42.711 -14.168   2.734  1.00  0.00    -0.150 NA
HETATM    4  C   UNL     1      42.202 -15.356   2.251  1.00  0.00     0.187 A 
HETATM    5  C   UNL     1      41.683 -15.147   0.984  1.00  0.00     0.151 A 
ENDROOT
BRANCH   1   6
HETATM    6  C   UNL     1      41.681 -13.016  -0.424  1.00  0.00     0.251 C 
BRANCH   6   7
HETATM    7  C   UNL     1      40.225 -13.036  -0.858  1.00  0.00     0.241 C 
HETATM    8  N   UNL     1      40.022 -13.440  -2.167  1.00  0.00    -0.326 N 
HETATM    9  H   UNL     1      40.840 -13.791  -2.666  1.00  0.00     0.169 HD
HETATM   10  O   UNL     1      39.353 -12.643  -0.084  1.00  0.00    -0.271 OA
BRANCH   8  11
HETATM   11  C   UNL     1      38.814 -13.500  -2.889  1.00  0.00     0.034 A 
HETATM   12  C   UNL     1      38.113 -12.384  -3.341  1.00  0.00     0.030 A 
HETATM   13  C   UNL     1      36.927 -12.542  -4.069  1.00  0.00     0.009 A 
HETATM   14  C   UNL     1      36.420 -13.816  -4.347  1.00  0.00    -0.058 A 
HETATM   15  C   UNL     1      37.126 -14.936  -3.894  1.00  0.00     0.009 A 
HETATM   16  C   UNL     1      38.312 -14.777  -3.173  1.00  0.00     0.030 A 
BRANCH  14  17
HETATM   17  C   UNL     1      35.155 -13.983  -5.150  1.00  0.00     0.034 C 
HETATM   18  C   UNL     1      34.436 -12.658  -5.352  1.00  0.00     0.010 C 
ENDBRANCH  14  17
ENDBRANCH   8  11
ENDBRANCH   6   7
ENDBRANCH   1   6
BRANCH   5  19
HETATM   19  N   UNL     1      41.090 -15.978   0.099  1.00  0.00    -0.382 N 
HETATM   20  H   UNL     1      41.060 -16.981   0.310  1.00  0.00     0.157 HD
HETATM   21  H   UNL     1      40.919 -15.770  -0.880  1.00  0.00     0.157 HD
ENDBRANCH   5  19
BRANCH   4  22
HETATM   22  C   UNL     1      42.287 -16.607   3.006  1.00  0.00     0.280 C 
HETATM   23  N   UNL     1      43.485 -17.256   2.761  1.00  0.00    -0.319 N 
HETATM   24  H   UNL     1      44.015 -16.863   1.991  1.00  0.00     0.169 HD
HETATM   25  O   UNL     1      41.351 -17.005   3.688  1.00  0.00    -0.265 OA
BRANCH  23  26
HETATM   26  C   UNL     1      43.925 -18.500   3.257  1.00  0.00     0.069 A 
HETATM   27  C   UNL     1      44.333 -18.769   4.569  1.00  0.00     0.095 A 
HETATM   28  C   UNL     1      44.666 -20.074   4.953  1.00  0.00     0.039 A 
HETATM   29  C   UNL     1      44.657 -21.111   4.021  1.00  0.00     0.009 A 
HETATM   30  C   UNL     1      44.314 -20.854   2.693  1.00  0.00    -0.060 A 
HETATM   31  C   UNL     1      44.314 -21.950   1.668  1.00  0.00     0.048 C 
HETATM   32  C   UNL     1      43.964 -19.548   2.320  1.00  0.00     0.039 A 
BRANCH  27  33
HETATM   33  O   UNL     1      44.478 -17.817   5.542  1.00  0.00    -0.354 OA
HETATM   34  C   UNL     1      43.415 -17.900   6.491  1.00  0.00     0.210 C 
ENDBRANCH  27  33
ENDBRANCH  23  26
ENDBRANCH   4  22
TORSDOF 8
ENDMDL
