MODEL 1
REMARK VINA RESULT:      -9.6      0.000      0.000
REMARK  9 active torsions:
REMARK  status: ('A' for Active; 'I' for Inactive)
REMARK    1  A    between atoms: O_2  and  C_3 
REMARK    2  A    between atoms: C_6  and  C_7 
REMARK    3  A    between atoms: C_8  and  C_9 
REMARK    4  A    between atoms: C_9  and  O_10 
REMARK    5  A    between atoms: O_10  and  C_11 
REMARK    6  A    between atoms: C_14  and  C_15 
REMARK    7  A    between atoms: C_17  and  O_18 
REMARK    8  A    between atoms: N_26  and  C_28 
REMARK    9  A    between atoms: C_28  and  C_29 
ROOT
HETATM    1  C   UNL     1      40.228 -16.806   2.338  1.00  0.00     0.243 C 
HETATM    2  N   UNL     1      41.075 -16.993   1.129  1.00  0.00    -0.235 NA
HETATM    3  C   UNL     1      41.204 -15.932   0.415  1.00  0.00     0.173 C 
HETATM    4  C   UNL     1      40.525 -14.684   0.662  1.00  0.00     0.057 A 
HETATM    5  C   UNL     1      39.437 -14.742   1.500  1.00  0.00     0.087 A 
HETATM    6  S   UNL     1      38.672 -13.245   1.704  1.00  0.00    -0.074 SA
HETATM    7  C   UNL     1      39.854 -12.469   0.754  1.00  0.00     0.018 A 
HETATM    8  C   UNL     1      40.791 -13.350   0.236  1.00  0.00    -0.024 A 
HETATM    9  C   UNL     1      41.930 -12.875  -0.613  1.00  0.00     0.068 C 
HETATM   10  C   UNL     1      42.130 -11.356  -0.478  1.00  0.00     0.240 C 
HETATM   11  N   UNL     1      40.809 -10.589  -0.564  1.00  0.00    -0.063 N 
HETATM   12  H   UNL     1      41.041  -9.602  -0.415  1.00  0.00     0.280 HD
HETATM   13  C   UNL     1      39.877 -10.990   0.572  1.00  0.00     0.282 C 
HETATM   14  N   UNL     1      39.095 -15.897   2.110  1.00  0.00    -0.357 N 
HETATM   15  H   UNL     1      38.410 -15.874   2.858  1.00  0.00     0.162 HD
ENDROOT
BRANCH   1  16
HETATM   16  C   UNL     1      41.055 -16.311   3.544  1.00  0.00    -0.014 A 
HETATM   17  C   UNL     1      40.462 -16.136   4.813  1.00  0.00     0.014 A 
HETATM   18  C   UNL     1      41.241 -15.883   5.943  1.00  0.00     0.038 A 
HETATM   19  C   UNL     1      42.621 -15.798   5.807  1.00  0.00     0.079 A 
HETATM   20  C   UNL     1      43.223 -15.837   4.554  1.00  0.00     0.038 A 
HETATM   21  C   UNL     1      42.440 -16.084   3.426  1.00  0.00     0.014 A 
BRANCH  19  22
HETATM   22  O   UNL     1      43.444 -15.656   6.922  1.00  0.00    -0.276 OA
BRANCH  22  23
HETATM   23  C   UNL     1      43.491 -16.806   7.689  1.00  0.00     0.288 C 
HETATM   24  O   UNL     1      43.491 -16.896   8.911  1.00  0.00    -0.260 OA
BRANCH  23  25
HETATM   25  C   UNL     1      43.512 -18.016   6.837  1.00  0.00     0.083 C 
HETATM   26  C   UNL     1      44.627 -18.555   6.321  1.00  0.00     0.017 C 
BRANCH  26  27
HETATM   27  C   UNL     1      44.598 -19.674   5.373  1.00  0.00    -0.036 A 
HETATM   28  C   UNL     1      44.486 -19.394   4.008  1.00  0.00     0.014 A 
HETATM   29  C   UNL     1      44.450 -20.432   3.073  1.00  0.00     0.037 A 
HETATM   30  C   UNL     1      44.541 -21.763   3.484  1.00  0.00     0.068 A 
HETATM   31  C   UNL     1      44.670 -22.049   4.843  1.00  0.00     0.037 A 
HETATM   32  C   UNL     1      44.702 -21.009   5.782  1.00  0.00     0.014 A 
BRANCH  30  33
HETATM   33  O   UNL     1      44.489 -22.676   2.469  1.00  0.00    -0.356 OA
HETATM   34  C   UNL     1      44.128 -22.190   1.182  1.00  0.00     0.210 C 
ENDBRANCH  30  33
ENDBRANCH  26  27
ENDBRANCH  23  25
ENDBRANCH  22  23
ENDBRANCH  19  22
ENDBRANCH   1  16
BRANCH   3  35
HETATM   35  O   UNL     1      42.022 -15.968  -0.652  1.00  0.00    -0.344 OA
HETATM   36  H   UNL     1      42.810 -16.469  -0.379  1.00  0.00     0.219 HD
ENDBRANCH   3  35
BRANCH  11  37
HETATM   37  C   UNL     1      40.118 -10.657  -1.908  1.00  0.00     0.273 C 
BRANCH  37  38
HETATM   38  C   UNL     1      40.998 -10.238  -3.054  1.00  0.00    -0.033 A 
HETATM   39  C   UNL     1      41.444 -11.188  -3.986  1.00  0.00     0.009 A 
HETATM   40  C   UNL     1      42.290 -10.812  -5.029  1.00  0.00     0.001 A 
HETATM   41  C   UNL     1      42.698  -9.486  -5.152  1.00  0.00     0.000 A 
HETATM   42  C   UNL     1      42.255  -8.531  -4.240  1.00  0.00     0.001 A 
HETATM   43  C   UNL     1      41.406  -8.902  -3.195  1.00  0.00     0.009 A 
ENDBRANCH  37  38
ENDBRANCH  11  37
TORSDOF 9
ENDMDL
MODEL 2
REMARK VINA RESULT:      -9.3      5.386     10.199
REMARK  9 active torsions:
REMARK  status: ('A' for Active; 'I' for Inactive)
REMARK    1  A    between atoms: O_2  and  C_3 
REMARK    2  A    between atoms: C_6  and  C_7 
REMARK    3  A    between atoms: C_8  and  C_9 
REMARK    4  A    between atoms: C_9  and  O_10 
REMARK    5  A    between atoms: O_10  and  C_11 
REMARK    6  A    between atoms: C_14  and  C_15 
REMARK    7  A    between atoms: C_17  and  O_18 
REMARK    8  A    between atoms: N_26  and  C_28 
REMARK    9  A    between atoms: C_28  and  C_29 
ROOT
HETATM    1  C   UNL     1      40.712 -11.736   2.192  1.00  0.00     0.243 C 
HETATM    2  N   UNL     1      39.823 -12.728   1.530  1.00  0.00    -0.235 NA
HETATM    3  C   UNL     1      40.179 -13.950   1.715  1.00  0.00     0.173 C 
HETATM    4  C   UNL     1      41.377 -14.366   2.402  1.00  0.00     0.057 A 
HETATM    5  C   UNL     1      42.345 -13.404   2.566  1.00  0.00     0.087 A 
HETATM    6  S   UNL     1      43.734 -13.983   3.343  1.00  0.00    -0.074 SA
HETATM    7  C   UNL     1      43.017 -15.511   3.569  1.00  0.00     0.018 A 
HETATM    8  C   UNL     1      41.753 -15.600   3.007  1.00  0.00    -0.024 A 
HETATM    9  C   UNL     1      40.936 -16.852   3.106  1.00  0.00     0.068 C 
HETATM   10  C   UNL     1      41.482 -17.789   4.197  1.00  0.00     0.240 C 
HETATM   11  N   UNL     1      43.004 -17.935   4.124  1.00  0.00    -0.063 N 
HETATM   12  H   UNL     1      43.273 -18.532   4.912  1.00  0.00     0.280 HD
HETATM   13  C   UNL     1      43.687 -16.591   4.347  1.00  0.00     0.282 C 
HETATM   14  N   UNL     1      42.129 -12.131   2.173  1.00  0.00    -0.357 N 
HETATM   15  H   UNL     1      42.776 -11.408   2.468  1.00  0.00     0.162 HD
ENDROOT
BRANCH   1  16
HETATM   16  C   UNL     1      40.272 -11.455   3.645  1.00  0.00    -0.014 A 
HETATM   17  C   UNL     1      39.140 -12.087   4.201  1.00  0.00     0.014 A 
HETATM   18  C   UNL     1      38.856 -11.990   5.564  1.00  0.00     0.038 A 
HETATM   19  C   UNL     1      39.706 -11.252   6.379  1.00  0.00     0.079 A 
HETATM   20  C   UNL     1      40.755 -10.512   5.841  1.00  0.00     0.038 A 
HETATM   21  C   UNL     1      41.030 -10.607   4.477  1.00  0.00     0.014 A 
BRANCH  19  22
HETATM   22  O   UNL     1      39.524 -11.217   7.760  1.00  0.00    -0.276 OA
BRANCH  22  23
HETATM   23  C   UNL     1      39.169  -9.957   8.209  1.00  0.00     0.288 C 
HETATM   24  O   UNL     1      38.388  -9.167   7.691  1.00  0.00    -0.260 OA
BRANCH  23  25
HETATM   25  C   UNL     1      39.842  -9.635   9.486  1.00  0.00     0.083 C 
HETATM   26  C   UNL     1      40.908 -10.294   9.964  1.00  0.00     0.017 C 
BRANCH  26  27
HETATM   27  C   UNL     1      41.467 -10.035  11.295  1.00  0.00    -0.036 A 
HETATM   28  C   UNL     1      40.597  -9.685  12.332  1.00  0.00     0.014 A 
HETATM   29  C   UNL     1      41.090  -9.425  13.613  1.00  0.00     0.037 A 
HETATM   30  C   UNL     1      42.456  -9.525  13.883  1.00  0.00     0.068 A 
HETATM   31  C   UNL     1      43.328  -9.890  12.858  1.00  0.00     0.037 A 
HETATM   32  C   UNL     1      42.835 -10.147  11.571  1.00  0.00     0.014 A 
BRANCH  30  33
HETATM   33  O   UNL     1      42.803  -9.242  15.174  1.00  0.00    -0.356 OA
HETATM   34  C   UNL     1      41.787  -9.381  16.159  1.00  0.00     0.210 C 
ENDBRANCH  30  33
ENDBRANCH  26  27
ENDBRANCH  23  25
ENDBRANCH  22  23
ENDBRANCH  19  22
ENDBRANCH   1  16
BRANCH   3  35
HETATM   35  O   UNL     1      39.393 -14.930   1.234  1.00  0.00    -0.344 OA
HETATM   36  H   UNL     1      38.956 -15.336   2.002  1.00  0.00     0.219 HD
ENDBRANCH   3  35
BRANCH  11  37
HETATM   37  C   UNL     1      43.520 -18.627   2.882  1.00  0.00     0.273 C 
BRANCH  37  38
HETATM   38  C   UNL     1      44.001 -20.029   3.136  1.00  0.00    -0.033 A 
HETATM   39  C   UNL     1      43.945 -20.991   2.115  1.00  0.00     0.009 A 
HETATM   40  C   UNL     1      44.354 -22.303   2.356  1.00  0.00     0.001 A 
HETATM   41  C   UNL     1      44.825 -22.667   3.615  1.00  0.00     0.000 A 
HETATM   42  C   UNL     1      44.896 -21.719   4.634  1.00  0.00     0.001 A 
HETATM   43  C   UNL     1      44.489 -20.405   4.397  1.00  0.00     0.009 A 
ENDBRANCH  37  38
ENDBRANCH  11  37
TORSDOF 9
ENDMDL
MODEL 3
REMARK VINA RESULT:      -8.7      2.970      7.661
REMARK  9 active torsions:
REMARK  status: ('A' for Active; 'I' for Inactive)
REMARK    1  A    between atoms: O_2  and  C_3 
REMARK    2  A    between atoms: C_6  and  C_7 
REMARK    3  A    between atoms: C_8  and  C_9 
REMARK    4  A    between atoms: C_9  and  O_10 
REMARK    5  A    between atoms: O_10  and  C_11 
REMARK    6  A    between atoms: C_14  and  C_15 
REMARK    7  A    between atoms: C_17  and  O_18 
REMARK    8  A    between atoms: N_26  and  C_28 
REMARK    9  A    between atoms: C_28  and  C_29 
ROOT
HETATM    1  C   UNL     1      38.560 -11.944  -0.184  1.00  0.00     0.243 C 
HETATM    2  N   UNL     1      37.604 -13.040   0.126  1.00  0.00    -0.235 NA
HETATM    3  C   UNL     1      38.163 -14.105   0.580  1.00  0.00     0.173 C 
HETATM    4  C   UNL     1      39.586 -14.305   0.694  1.00  0.00     0.057 A 
HETATM    5  C   UNL     1      40.378 -13.447  -0.030  1.00  0.00     0.087 A 
HETATM    6  S   UNL     1      42.033 -13.775   0.124  1.00  0.00    -0.074 SA
HETATM    7  C   UNL     1      41.721 -15.011   1.254  1.00  0.00     0.018 A 
HETATM    8  C   UNL     1      40.366 -15.213   1.469  1.00  0.00    -0.024 A 
HETATM    9  C   UNL     1      39.869 -16.240   2.440  1.00  0.00     0.068 C 
HETATM   10  C   UNL     1      40.989 -16.694   3.392  1.00  0.00     0.240 C 
HETATM   11  N   UNL     1      42.295 -16.986   2.650  1.00  0.00    -0.063 N 
HETATM   12  H   UNL     1      42.984 -17.231   3.368  1.00  0.00     0.280 HD
HETATM   13  C   UNL     1      42.817 -15.733   1.959  1.00  0.00     0.282 C 
HETATM   14  N   UNL     1      39.834 -12.432  -0.735  1.00  0.00    -0.357 N 
HETATM   15  H   UNL     1      40.441 -11.710  -1.106  1.00  0.00     0.162 HD
ENDROOT
BRANCH   1  16
HETATM   16  C   UNL     1      38.835 -11.058   1.050  1.00  0.00    -0.014 A 
HETATM   17  C   UNL     1      37.907 -10.974   2.111  1.00  0.00     0.014 A 
HETATM   18  C   UNL     1      38.236 -10.337   3.308  1.00  0.00     0.038 A 
HETATM   19  C   UNL     1      39.499  -9.775   3.448  1.00  0.00     0.079 A 
HETATM   20  C   UNL     1      40.387  -9.727   2.378  1.00  0.00     0.038 A 
HETATM   21  C   UNL     1      40.051 -10.359   1.181  1.00  0.00     0.014 A 
BRANCH  19  22
HETATM   22  O   UNL     1      39.909  -9.225   4.661  1.00  0.00    -0.276 OA
BRANCH  22  23
HETATM   23  C   UNL     1      39.671 -10.074   5.727  1.00  0.00     0.288 C 
HETATM   24  O   UNL     1      38.798  -9.980   6.583  1.00  0.00    -0.260 OA
BRANCH  23  25
HETATM   25  C   UNL     1      40.617 -11.212   5.726  1.00  0.00     0.083 C 
HETATM   26  C   UNL     1      40.247 -12.500   5.670  1.00  0.00     0.017 C 
BRANCH  26  27
HETATM   27  C   UNL     1      41.203 -13.604   5.807  1.00  0.00    -0.036 A 
HETATM   28  C   UNL     1      42.548 -13.369   5.504  1.00  0.00     0.014 A 
HETATM   29  C   UNL     1      43.488 -14.396   5.615  1.00  0.00     0.037 A 
HETATM   30  C   UNL     1      43.106 -15.668   6.046  1.00  0.00     0.068 A 
HETATM   31  C   UNL     1      41.770 -15.904   6.366  1.00  0.00     0.037 A 
HETATM   32  C   UNL     1      40.824 -14.876   6.251  1.00  0.00     0.014 A 
BRANCH  30  33
HETATM   33  O   UNL     1      44.124 -16.577   6.107  1.00  0.00    -0.356 OA
HETATM   34  C   UNL     1      43.855 -17.802   6.778  1.00  0.00     0.210 C 
ENDBRANCH  30  33
ENDBRANCH  26  27
ENDBRANCH  23  25
ENDBRANCH  22  23
ENDBRANCH  19  22
ENDBRANCH   1  16
BRANCH   3  35
HETATM   35  O   UNL     1      37.381 -15.125   0.976  1.00  0.00    -0.344 OA
HETATM   36  H   UNL     1      36.491 -14.944   0.626  1.00  0.00     0.219 HD
ENDBRANCH   3  35
BRANCH  11  37
HETATM   37  C   UNL     1      42.242 -18.166   1.706  1.00  0.00     0.273 C 
BRANCH  37  38
HETATM   38  C   UNL     1      43.051 -19.344   2.175  1.00  0.00    -0.033 A 
HETATM   39  C   UNL     1      43.875 -19.230   3.305  1.00  0.00     0.009 A 
HETATM   40  C   UNL     1      44.657 -20.308   3.723  1.00  0.00     0.001 A 
HETATM   41  C   UNL     1      44.623 -21.509   3.018  1.00  0.00     0.000 A 
HETATM   42  C   UNL     1      43.801 -21.638   1.900  1.00  0.00     0.001 A 
HETATM   43  C   UNL     1      43.016 -20.563   1.479  1.00  0.00     0.009 A 
ENDBRANCH  37  38
ENDBRANCH  11  37
TORSDOF 9
ENDMDL
MODEL 4
REMARK VINA RESULT:      -8.7      1.488      1.762
REMARK  9 active torsions:
REMARK  status: ('A' for Active; 'I' for Inactive)
REMARK    1  A    between atoms: O_2  and  C_3 
REMARK    2  A    between atoms: C_6  and  C_7 
REMARK    3  A    between atoms: C_8  and  C_9 
REMARK    4  A    between atoms: C_9  and  O_10 
REMARK    5  A    between atoms: O_10  and  C_11 
REMARK    6  A    between atoms: C_14  and  C_15 
REMARK    7  A    between atoms: C_17  and  O_18 
REMARK    8  A    between atoms: N_26  and  C_28 
REMARK    9  A    between atoms: C_28  and  C_29 
ROOT
HETATM    1  C   UNL     1      40.072 -16.038   2.222  1.00  0.00     0.243 C 
HETATM    2  N   UNL     1      40.931 -16.636   1.166  1.00  0.00    -0.235 NA
HETATM    3  C   UNL     1      41.124 -15.866   0.155  1.00  0.00     0.173 C 
HETATM    4  C   UNL     1      40.502 -14.579  -0.033  1.00  0.00     0.057 A 
HETATM    5  C   UNL     1      39.397 -14.321   0.743  1.00  0.00     0.087 A 
HETATM    6  S   UNL     1      38.702 -12.808   0.433  1.00  0.00    -0.074 SA
HETATM    7  C   UNL     1      39.938 -12.426  -0.676  1.00  0.00     0.018 A 
HETATM    8  C   UNL     1      40.841 -13.463  -0.853  1.00  0.00    -0.024 A 
HETATM    9  C   UNL     1      42.017 -13.331  -1.771  1.00  0.00     0.068 C 
HETATM   10  C   UNL     1      42.288 -11.858  -2.121  1.00  0.00     0.240 C 
HETATM   11  N   UNL     1      41.007 -11.107  -2.492  1.00  0.00    -0.063 N 
HETATM   12  H   UNL     1      41.284 -10.135  -2.658  1.00  0.00     0.280 HD
HETATM   13  C   UNL     1      40.036 -11.085  -1.319  1.00  0.00     0.282 C 
HETATM   14  N   UNL     1      38.988 -15.205   1.678  1.00  0.00    -0.357 N 
HETATM   15  H   UNL     1      38.292 -14.917   2.356  1.00  0.00     0.162 HD
ENDROOT
BRANCH   1  16
HETATM   16  C   UNL     1      40.898 -15.216   3.234  1.00  0.00    -0.014 A 
HETATM   17  C   UNL     1      40.389 -14.907   4.513  1.00  0.00     0.014 A 
HETATM   18  C   UNL     1      41.202 -14.341   5.496  1.00  0.00     0.038 A 
HETATM   19  C   UNL     1      42.533 -14.076   5.199  1.00  0.00     0.079 A 
HETATM   20  C   UNL     1      43.031 -14.248   3.912  1.00  0.00     0.038 A 
HETATM   21  C   UNL     1      42.212 -14.808   2.931  1.00  0.00     0.014 A 
BRANCH  19  22
HETATM   22  O   UNL     1      43.408 -13.613   6.180  1.00  0.00    -0.276 OA
BRANCH  22  23
HETATM   23  C   UNL     1      44.035 -14.647   6.852  1.00  0.00     0.288 C 
HETATM   24  O   UNL     1      44.406 -14.669   8.021  1.00  0.00    -0.260 OA
BRANCH  23  25
HETATM   25  C   UNL     1      44.205 -15.828   5.978  1.00  0.00     0.083 C 
HETATM   26  C   UNL     1      43.686 -17.038   6.235  1.00  0.00     0.017 C 
BRANCH  26  27
HETATM   27  C   UNL     1      43.986 -18.218   5.417  1.00  0.00    -0.036 A 
HETATM   28  C   UNL     1      43.754 -18.156   4.039  1.00  0.00     0.014 A 
HETATM   29  C   UNL     1      44.021 -19.260   3.226  1.00  0.00     0.037 A 
HETATM   30  C   UNL     1      44.538 -20.437   3.772  1.00  0.00     0.068 A 
HETATM   31  C   UNL     1      44.787 -20.499   5.142  1.00  0.00     0.037 A 
HETATM   32  C   UNL     1      44.516 -19.394   5.960  1.00  0.00     0.014 A 
BRANCH  30  33
HETATM   33  O   UNL     1      44.749 -21.438   2.866  1.00  0.00    -0.356 OA
HETATM   34  C   UNL     1      43.804 -21.563   1.811  1.00  0.00     0.210 C 
ENDBRANCH  30  33
ENDBRANCH  26  27
ENDBRANCH  23  25
ENDBRANCH  22  23
ENDBRANCH  19  22
ENDBRANCH   1  16
BRANCH   3  35
HETATM   35  O   UNL     1      41.960 -16.275  -0.817  1.00  0.00    -0.344 OA
HETATM   36  H   UNL     1      42.730 -15.682  -0.787  1.00  0.00     0.219 HD
ENDBRANCH   3  35
BRANCH  11  37
HETATM   37  C   UNL     1      40.340 -11.574  -3.765  1.00  0.00     0.273 C 
BRANCH  37  38
HETATM   38  C   UNL     1      40.551 -10.643  -4.928  1.00  0.00    -0.033 A 
HETATM   39  C   UNL     1      39.450 -10.117  -5.621  1.00  0.00     0.009 A 
HETATM   40  C   UNL     1      39.641  -9.283  -6.723  1.00  0.00     0.001 A 
HETATM   41  C   UNL     1      40.931  -8.967  -7.143  1.00  0.00     0.000 A 
HETATM   42  C   UNL     1      42.032  -9.474  -6.458  1.00  0.00     0.001 A 
HETATM   43  C   UNL     1      41.846 -10.307  -5.353  1.00  0.00     0.009 A 
ENDBRANCH  37  38
ENDBRANCH  11  37
TORSDOF 9
ENDMDL
MODEL 5
REMARK VINA RESULT:      -8.6      2.979      9.131
REMARK  9 active torsions:
REMARK  status: ('A' for Active; 'I' for Inactive)
REMARK    1  A    between atoms: O_2  and  C_3 
REMARK    2  A    between atoms: C_6  and  C_7 
REMARK    3  A    between atoms: C_8  and  C_9 
REMARK    4  A    between atoms: C_9  and  O_10 
REMARK    5  A    between atoms: O_10  and  C_11 
REMARK    6  A    between atoms: C_14  and  C_15 
REMARK    7  A    between atoms: C_17  and  O_18 
REMARK    8  A    between atoms: N_26  and  C_28 
REMARK    9  A    between atoms: C_28  and  C_29 
ROOT
HETATM    1  C   UNL     1      38.127 -10.887   2.494  1.00  0.00     0.243 C 
HETATM    2  N   UNL     1      38.662 -11.207   3.844  1.00  0.00    -0.235 NA
HETATM    3  C   UNL     1      39.412 -12.251   3.873  1.00  0.00     0.173 C 
HETATM    4  C   UNL     1      39.654 -13.124   2.750  1.00  0.00     0.057 A 
HETATM    5  C   UNL     1      38.773 -13.018   1.701  1.00  0.00     0.087 A 
HETATM    6  S   UNL     1      39.100 -14.105   0.443  1.00  0.00    -0.074 SA
HETATM    7  C   UNL     1      40.498 -14.665   1.240  1.00  0.00     0.018 A 
HETATM    8  C   UNL     1      40.683 -14.072   2.480  1.00  0.00    -0.024 A 
HETATM    9  C   UNL     1      41.862 -14.406   3.341  1.00  0.00     0.068 C 
HETATM   10  C   UNL     1      42.961 -15.116   2.531  1.00  0.00     0.240 C 
HETATM   11  N   UNL     1      42.396 -16.220   1.636  1.00  0.00    -0.063 N 
HETATM   12  H   UNL     1      43.191 -16.594   1.107  1.00  0.00     0.280 HD
HETATM   13  C   UNL     1      41.428 -15.643   0.611  1.00  0.00     0.282 C 
HETATM   14  N   UNL     1      37.796 -12.086   1.709  1.00  0.00    -0.357 N 
HETATM   15  H   UNL     1      37.281 -11.906   0.854  1.00  0.00     0.162 HD
ENDROOT
BRANCH   1  16
HETATM   16  C   UNL     1      39.096  -9.993   1.691  1.00  0.00    -0.014 A 
HETATM   17  C   UNL     1      40.326  -9.572   2.240  1.00  0.00     0.014 A 
HETATM   18  C   UNL     1      41.285  -8.934   1.452  1.00  0.00     0.038 A 
HETATM   19  C   UNL     1      41.015  -8.710   0.108  1.00  0.00     0.079 A 
HETATM   20  C   UNL     1      39.764  -8.995  -0.431  1.00  0.00     0.038 A 
HETATM   21  C   UNL     1      38.806  -9.626   0.362  1.00  0.00     0.014 A 
BRANCH  19  22
HETATM   22  O   UNL     1      41.983  -8.176  -0.739  1.00  0.00    -0.276 OA
BRANCH  22  23
HETATM   23  C   UNL     1      43.032  -9.053  -0.953  1.00  0.00     0.288 C 
HETATM   24  O   UNL     1      44.232  -8.833  -0.836  1.00  0.00    -0.260 OA
BRANCH  23  25
HETATM   25  C   UNL     1      42.538 -10.394  -1.335  1.00  0.00     0.083 C 
HETATM   26  C   UNL     1      42.187 -10.741  -2.582  1.00  0.00     0.017 C 
BRANCH  26  27
HETATM   27  C   UNL     1      41.576 -12.037  -2.900  1.00  0.00    -0.036 A 
HETATM   28  C   UNL     1      42.357 -13.191  -2.794  1.00  0.00     0.014 A 
HETATM   29  C   UNL     1      41.813 -14.443  -3.094  1.00  0.00     0.037 A 
HETATM   30  C   UNL     1      40.480 -14.564  -3.489  1.00  0.00     0.068 A 
HETATM   31  C   UNL     1      39.691 -13.418  -3.580  1.00  0.00     0.037 A 
HETATM   32  C   UNL     1      40.235 -12.161  -3.283  1.00  0.00     0.014 A 
BRANCH  30  33
HETATM   33  O   UNL     1      40.079 -15.843  -3.754  1.00  0.00    -0.356 OA
HETATM   34  C   UNL     1      38.751 -16.017  -4.232  1.00  0.00     0.210 C 
ENDBRANCH  30  33
ENDBRANCH  26  27
ENDBRANCH  23  25
ENDBRANCH  22  23
ENDBRANCH  19  22
ENDBRANCH   1  16
BRANCH   3  35
HETATM   35  O   UNL     1      40.021 -12.578   5.027  1.00  0.00    -0.344 OA
HETATM   36  H   UNL     1      40.893 -12.147   5.011  1.00  0.00     0.219 HD
ENDBRANCH   3  35
BRANCH  11  37
HETATM   37  C   UNL     1      41.797 -17.396   2.374  1.00  0.00     0.273 C 
BRANCH  37  38
HETATM   38  C   UNL     1      42.811 -18.433   2.772  1.00  0.00    -0.033 A 
HETATM   39  C   UNL     1      43.210 -19.419   1.856  1.00  0.00     0.009 A 
HETATM   40  C   UNL     1      44.122 -20.406   2.232  1.00  0.00     0.001 A 
HETATM   41  C   UNL     1      44.645 -20.417   3.523  1.00  0.00     0.000 A 
HETATM   42  C   UNL     1      44.266 -19.437   4.438  1.00  0.00     0.001 A 
HETATM   43  C   UNL     1      43.355 -18.447   4.066  1.00  0.00     0.009 A 
ENDBRANCH  37  38
ENDBRANCH  11  37
TORSDOF 9
ENDMDL
MODEL 6
REMARK VINA RESULT:      -8.4      2.117      2.823
REMARK  9 active torsions:
REMARK  status: ('A' for Active; 'I' for Inactive)
REMARK    1  A    between atoms: O_2  and  C_3 
REMARK    2  A    between atoms: C_6  and  C_7 
REMARK    3  A    between atoms: C_8  and  C_9 
REMARK    4  A    between atoms: C_9  and  O_10 
REMARK    5  A    between atoms: O_10  and  C_11 
REMARK    6  A    between atoms: C_14  and  C_15 
REMARK    7  A    between atoms: C_17  and  O_18 
REMARK    8  A    between atoms: N_26  and  C_28 
REMARK    9  A    between atoms: C_28  and  C_29 
ROOT
HETATM    1  C   UNL     1      40.365 -16.403   2.137  1.00  0.00     0.243 C 
HETATM    2  N   UNL     1      41.126 -16.662   0.885  1.00  0.00    -0.235 NA
HETATM    3  C   UNL     1      40.973 -15.755  -0.013  1.00  0.00     0.173 C 
HETATM    4  C   UNL     1      40.077 -14.630   0.094  1.00  0.00     0.057 A 
HETATM    5  C   UNL     1      39.100 -14.724   1.056  1.00  0.00     0.087 A 
HETATM    6  S   UNL     1      38.066 -13.383   1.088  1.00  0.00    -0.074 SA
HETATM    7  C   UNL     1      38.978 -12.602  -0.120  1.00  0.00     0.018 A 
HETATM    8  C   UNL     1      40.028 -13.379  -0.587  1.00  0.00    -0.024 A 
HETATM    9  C   UNL     1      40.969 -12.876  -1.638  1.00  0.00     0.068 C 
HETATM   10  C   UNL     1      40.866 -11.349  -1.795  1.00  0.00     0.240 C 
HETATM   11  N   UNL     1      39.413 -10.871  -1.851  1.00  0.00    -0.063 N 
HETATM   12  H   UNL     1      39.450  -9.849  -1.905  1.00  0.00     0.280 HD
HETATM   13  C   UNL     1      38.683 -11.209  -0.557  1.00  0.00     0.282 C 
HETATM   14  N   UNL     1      39.054 -15.781   1.894  1.00  0.00    -0.357 N 
HETATM   15  H   UNL     1      38.446 -15.740   2.705  1.00  0.00     0.162 HD
ENDROOT
BRANCH   1  16
HETATM   16  C   UNL     1      41.173 -15.539   3.129  1.00  0.00    -0.014 A 
HETATM   17  C   UNL     1      40.639 -15.174   4.383  1.00  0.00     0.014 A 
HETATM   18  C   UNL     1      41.434 -14.567   5.356  1.00  0.00     0.038 A 
HETATM   19  C   UNL     1      42.771 -14.317   5.075  1.00  0.00     0.079 A 
HETATM   20  C   UNL     1      43.294 -14.546   3.806  1.00  0.00     0.038 A 
HETATM   21  C   UNL     1      42.494 -15.147   2.835  1.00  0.00     0.014 A 
BRANCH  19  22
HETATM   22  O   UNL     1      43.627 -13.813   6.052  1.00  0.00    -0.276 OA
BRANCH  22  23
HETATM   23  C   UNL     1      44.134 -14.809   6.867  1.00  0.00     0.288 C 
HETATM   24  O   UNL     1      44.412 -14.737   8.059  1.00  0.00    -0.260 OA
BRANCH  23  25
HETATM   25  C   UNL     1      44.296 -16.078   6.124  1.00  0.00     0.083 C 
HETATM   26  C   UNL     1      43.665 -17.220   6.435  1.00  0.00     0.017 C 
BRANCH  26  27
HETATM   27  C   UNL     1      43.951 -18.491   5.761  1.00  0.00    -0.036 A 
HETATM   28  C   UNL     1      44.081 -18.498   4.369  1.00  0.00     0.014 A 
HETATM   29  C   UNL     1      44.347 -19.689   3.689  1.00  0.00     0.037 A 
HETATM   30  C   UNL     1      44.503 -20.887   4.387  1.00  0.00     0.068 A 
HETATM   31  C   UNL     1      44.391 -20.885   5.777  1.00  0.00     0.037 A 
HETATM   32  C   UNL     1      44.121 -19.691   6.460  1.00  0.00     0.014 A 
BRANCH  30  33
HETATM   33  O   UNL     1      44.757 -21.975   3.600  1.00  0.00    -0.356 OA
HETATM   34  C   UNL     1      44.352 -21.894   2.239  1.00  0.00     0.210 C 
ENDBRANCH  30  33
ENDBRANCH  26  27
ENDBRANCH  23  25
ENDBRANCH  22  23
ENDBRANCH  19  22
ENDBRANCH   1  16
BRANCH   3  35
HETATM   35  O   UNL     1      41.687 -15.846  -1.150  1.00  0.00    -0.344 OA
HETATM   36  H   UNL     1      41.199 -15.342  -1.824  1.00  0.00     0.219 HD
ENDBRANCH   3  35
BRANCH  11  37
HETATM   37  C   UNL     1      38.638 -11.325  -3.067  1.00  0.00     0.273 C 
BRANCH  37  38
HETATM   38  C   UNL     1      37.262 -10.725  -3.158  1.00  0.00    -0.033 A 
HETATM   39  C   UNL     1      37.101  -9.332  -3.208  1.00  0.00     0.009 A 
HETATM   40  C   UNL     1      35.826  -8.768  -3.254  1.00  0.00     0.001 A 
HETATM   41  C   UNL     1      34.700  -9.589  -3.251  1.00  0.00     0.000 A 
HETATM   42  C   UNL     1      34.847 -10.974  -3.213  1.00  0.00     0.001 A 
HETATM   43  C   UNL     1      36.121 -11.542  -3.169  1.00  0.00     0.009 A 
ENDBRANCH  37  38
ENDBRANCH  11  37
TORSDOF 9
ENDMDL
MODEL 7
REMARK VINA RESULT:      -8.4      4.634      9.455
REMARK  9 active torsions:
REMARK  status: ('A' for Active; 'I' for Inactive)
REMARK    1  A    between atoms: O_2  and  C_3 
REMARK    2  A    between atoms: C_6  and  C_7 
REMARK    3  A    between atoms: C_8  and  C_9 
REMARK    4  A    between atoms: C_9  and  O_10 
REMARK    5  A    between atoms: O_10  and  C_11 
REMARK    6  A    between atoms: C_14  and  C_15 
REMARK    7  A    between atoms: C_17  and  O_18 
REMARK    8  A    between atoms: N_26  and  C_28 
REMARK    9  A    between atoms: C_28  and  C_29 
ROOT
HETATM    1  C   UNL     1      42.766 -17.728   4.719  1.00  0.00     0.243 C 
HETATM    2  N   UNL     1      41.531 -17.926   5.522  1.00  0.00    -0.235 NA
HETATM    3  C   UNL     1      40.994 -16.831   5.930  1.00  0.00     0.173 C 
HETATM    4  C   UNL     1      41.557 -15.517   5.742  1.00  0.00     0.057 A 
HETATM    5  C   UNL     1      42.890 -15.471   5.410  1.00  0.00     0.087 A 
HETATM    6  S   UNL     1      43.483 -13.892   5.249  1.00  0.00    -0.074 SA
HETATM    7  C   UNL     1      41.932 -13.241   5.518  1.00  0.00     0.018 A 
HETATM    8  C   UNL     1      40.980 -14.214   5.786  1.00  0.00    -0.024 A 
HETATM    9  C   UNL     1      39.546 -13.861   6.034  1.00  0.00     0.068 C 
HETATM   10  C   UNL     1      39.234 -12.431   5.562  1.00  0.00     0.240 C 
HETATM   11  N   UNL     1      40.302 -11.429   6.008  1.00  0.00    -0.063 N 
HETATM   12  H   UNL     1      40.032 -10.526   5.608  1.00  0.00     0.280 HD
HETATM   13  C   UNL     1      41.657 -11.781   5.408  1.00  0.00     0.282 C 
HETATM   14  N   UNL     1      43.589 -16.606   5.196  1.00  0.00    -0.357 N 
HETATM   15  H   UNL     1      44.510 -16.545   4.777  1.00  0.00     0.162 HD
ENDROOT
BRANCH   1  16
HETATM   16  C   UNL     1      42.449 -17.536   3.220  1.00  0.00    -0.014 A 
HETATM   17  C   UNL     1      41.121 -17.384   2.768  1.00  0.00     0.014 A 
HETATM   18  C   UNL     1      40.846 -17.015   1.450  1.00  0.00     0.038 A 
HETATM   19  C   UNL     1      41.903 -16.800   0.575  1.00  0.00     0.079 A 
HETATM   20  C   UNL     1      43.215 -17.067   0.953  1.00  0.00     0.038 A 
HETATM   21  C   UNL     1      43.484 -17.443   2.269  1.00  0.00     0.014 A 
BRANCH  19  22
HETATM   22  O   UNL     1      41.681 -16.325  -0.716  1.00  0.00    -0.276 OA
BRANCH  22  23
HETATM   23  C   UNL     1      41.354 -14.981  -0.730  1.00  0.00     0.288 C 
HETATM   24  O   UNL     1      41.813 -14.088  -0.026  1.00  0.00    -0.260 OA
BRANCH  23  25
HETATM   25  C   UNL     1      40.346 -14.686  -1.773  1.00  0.00     0.083 C 
HETATM   26  C   UNL     1      39.250 -13.940  -1.572  1.00  0.00     0.017 C 
BRANCH  26  27
HETATM   27  C   UNL     1      38.205 -13.780  -2.590  1.00  0.00    -0.036 A 
HETATM   28  C   UNL     1      37.772 -12.490  -2.909  1.00  0.00     0.014 A 
HETATM   29  C   UNL     1      36.775 -12.295  -3.868  1.00  0.00     0.037 A 
HETATM   30  C   UNL     1      36.206 -13.383  -4.534  1.00  0.00     0.068 A 
HETATM   31  C   UNL     1      36.645 -14.671  -4.232  1.00  0.00     0.037 A 
HETATM   32  C   UNL     1      37.643 -14.868  -3.267  1.00  0.00     0.014 A 
BRANCH  30  33
HETATM   33  O   UNL     1      35.242 -13.051  -5.443  1.00  0.00    -0.356 OA
HETATM   34  C   UNL     1      35.308 -13.686  -6.714  1.00  0.00     0.210 C 
ENDBRANCH  30  33
ENDBRANCH  26  27
ENDBRANCH  23  25
ENDBRANCH  22  23
ENDBRANCH  19  22
ENDBRANCH   1  16
BRANCH   3  35
HETATM   35  O   UNL     1      39.823 -16.893   6.589  1.00  0.00    -0.344 OA
HETATM   36  H   UNL     1      39.458 -15.991   6.589  1.00  0.00     0.219 HD
ENDBRANCH   3  35
BRANCH  11  37
HETATM   37  C   UNL     1      40.388 -11.213   7.503  1.00  0.00     0.273 C 
BRANCH  37  38
HETATM   38  C   UNL     1      39.767  -9.921   7.957  1.00  0.00    -0.033 A 
HETATM   39  C   UNL     1      39.729  -9.597   9.322  1.00  0.00     0.009 A 
HETATM   40  C   UNL     1      39.120  -8.418   9.752  1.00  0.00     0.001 A 
HETATM   41  C   UNL     1      38.546  -7.551   8.825  1.00  0.00     0.000 A 
HETATM   42  C   UNL     1      38.587  -7.855   7.466  1.00  0.00     0.001 A 
HETATM   43  C   UNL     1      39.196  -9.033   7.031  1.00  0.00     0.009 A 
ENDBRANCH  37  38
ENDBRANCH  11  37
TORSDOF 9
ENDMDL
MODEL 8
REMARK VINA RESULT:      -8.2      4.705     11.223
REMARK  9 active torsions:
REMARK  status: ('A' for Active; 'I' for Inactive)
REMARK    1  A    between atoms: O_2  and  C_3 
REMARK    2  A    between atoms: C_6  and  C_7 
REMARK    3  A    between atoms: C_8  and  C_9 
REMARK    4  A    between atoms: C_9  and  O_10 
REMARK    5  A    between atoms: O_10  and  C_11 
REMARK    6  A    between atoms: C_14  and  C_15 
REMARK    7  A    between atoms: C_17  and  O_18 
REMARK    8  A    between atoms: N_26  and  C_28 
REMARK    9  A    between atoms: C_28  and  C_29 
ROOT
HETATM    1  C   UNL     1      41.158 -11.324   0.055  1.00  0.00     0.243 C 
HETATM    2  N   UNL     1      41.425 -12.273  -1.058  1.00  0.00    -0.235 NA
HETATM    3  C   UNL     1      41.737 -13.458  -0.667  1.00  0.00     0.173 C 
HETATM    4  C   UNL     1      41.929 -13.850   0.707  1.00  0.00     0.057 A 
HETATM    5  C   UNL     1      42.115 -12.828   1.608  1.00  0.00     0.087 A 
HETATM    6  S   UNL     1      42.375 -13.373   3.190  1.00  0.00    -0.074 SA
HETATM    7  C   UNL     1      42.136 -14.991   2.713  1.00  0.00     0.018 A 
HETATM    8  C   UNL     1      41.918 -15.122   1.350  1.00  0.00    -0.024 A 
HETATM    9  C   UNL     1      41.664 -16.457   0.720  1.00  0.00     0.068 C 
HETATM   10  C   UNL     1      41.289 -17.510   1.778  1.00  0.00     0.240 C 
HETATM   11  N   UNL     1      42.212 -17.459   2.997  1.00  0.00    -0.063 N 
HETATM   12  H   UNL     1      41.854 -18.156   3.657  1.00  0.00     0.280 HD
HETATM   13  C   UNL     1      42.111 -16.110   3.696  1.00  0.00     0.282 C 
HETATM   14  N   UNL     1      42.036 -11.538   1.216  1.00  0.00    -0.357 N 
HETATM   15  H   UNL     1      41.993 -10.812   1.922  1.00  0.00     0.162 HD
ENDROOT
BRANCH   1  16
HETATM   16  C   UNL     1      39.682 -11.370   0.506  1.00  0.00    -0.014 A 
HETATM   17  C   UNL     1      39.244 -10.662   1.645  1.00  0.00     0.014 A 
HETATM   18  C   UNL     1      37.885 -10.541   1.940  1.00  0.00     0.038 A 
HETATM   19  C   UNL     1      36.956 -11.134   1.094  1.00  0.00     0.079 A 
HETATM   20  C   UNL     1      37.359 -11.945   0.039  1.00  0.00     0.038 A 
HETATM   21  C   UNL     1      38.719 -12.069  -0.247  1.00  0.00     0.014 A 
BRANCH  19  22
HETATM   22  O   UNL     1      35.589 -10.948   1.287  1.00  0.00    -0.276 OA
BRANCH  22  23
HETATM   23  C   UNL     1      35.116  -9.825   0.633  1.00  0.00     0.288 C 
HETATM   24  O   UNL     1      34.963  -8.697   1.088  1.00  0.00    -0.260 OA
BRANCH  23  25
HETATM   25  C   UNL     1      34.816 -10.119  -0.786  1.00  0.00     0.083 C 
HETATM   26  C   UNL     1      33.731 -10.788  -1.205  1.00  0.00     0.017 C 
BRANCH  26  27
HETATM   27  C   UNL     1      33.533 -11.179  -2.605  1.00  0.00    -0.036 A 
HETATM   28  C   UNL     1      34.645 -11.222  -3.452  1.00  0.00     0.014 A 
HETATM   29  C   UNL     1      34.497 -11.584  -4.794  1.00  0.00     0.037 A 
HETATM   30  C   UNL     1      33.244 -11.922  -5.306  1.00  0.00     0.068 A 
HETATM   31  C   UNL     1      32.134 -11.897  -4.462  1.00  0.00     0.037 A 
HETATM   32  C   UNL     1      32.279 -11.531  -3.117  1.00  0.00     0.014 A 
BRANCH  30  33
HETATM   33  O   UNL     1      33.242 -12.253  -6.632  1.00  0.00    -0.356 OA
HETATM   34  C   UNL     1      32.378 -11.507  -7.481  1.00  0.00     0.210 C 
ENDBRANCH  30  33
ENDBRANCH  26  27
ENDBRANCH  23  25
ENDBRANCH  22  23
ENDBRANCH  19  22
ENDBRANCH   1  16
BRANCH   3  35
HETATM   35  O   UNL     1      41.911 -14.418  -1.594  1.00  0.00    -0.344 OA
HETATM   36  H   UNL     1      41.680 -15.260  -1.165  1.00  0.00     0.219 HD
ENDBRANCH   3  35
BRANCH  11  37
HETATM   37  C   UNL     1      43.649 -17.844   2.725  1.00  0.00     0.273 C 
BRANCH  37  38
HETATM   38  C   UNL     1      43.902 -19.323   2.830  1.00  0.00    -0.033 A 
HETATM   39  C   UNL     1      44.476 -19.860   3.993  1.00  0.00     0.009 A 
HETATM   40  C   UNL     1      44.748 -21.226   4.081  1.00  0.00     0.001 A 
HETATM   41  C   UNL     1      44.450 -22.067   3.013  1.00  0.00     0.000 A 
HETATM   42  C   UNL     1      43.870 -21.548   1.857  1.00  0.00     0.001 A 
HETATM   43  C   UNL     1      43.595 -20.183   1.764  1.00  0.00     0.009 A 
ENDBRANCH  37  38
ENDBRANCH  11  37
TORSDOF 9
ENDMDL
MODEL 9
REMARK VINA RESULT:      -8.1      4.691      7.465
REMARK  9 active torsions:
REMARK  status: ('A' for Active; 'I' for Inactive)
REMARK    1  A    between atoms: O_2  and  C_3 
REMARK    2  A    between atoms: C_6  and  C_7 
REMARK    3  A    between atoms: C_8  and  C_9 
REMARK    4  A    between atoms: C_9  and  O_10 
REMARK    5  A    between atoms: O_10  and  C_11 
REMARK    6  A    between atoms: C_14  and  C_15 
REMARK    7  A    between atoms: C_17  and  O_18 
REMARK    8  A    between atoms: N_26  and  C_28 
REMARK    9  A    between atoms: C_28  and  C_29 
ROOT
HETATM    1  C   UNL     1      41.592 -16.856   3.779  1.00  0.00     0.243 C 
HETATM    2  N   UNL     1      42.613 -17.119   2.730  1.00  0.00    -0.235 NA
HETATM    3  C   UNL     1      42.360 -16.551   1.604  1.00  0.00     0.173 C 
HETATM    4  C   UNL     1      41.160 -15.809   1.306  1.00  0.00     0.057 A 
HETATM    5  C   UNL     1      40.097 -16.008   2.155  1.00  0.00     0.087 A 
HETATM    6  S   UNL     1      38.716 -15.135   1.711  1.00  0.00    -0.074 SA
HETATM    7  C   UNL     1      39.553 -14.387   0.430  1.00  0.00     0.018 A 
HETATM    8  C   UNL     1      40.857 -14.842   0.303  1.00  0.00    -0.024 A 
HETATM    9  C   UNL     1      41.778 -14.303  -0.749  1.00  0.00     0.068 C 
HETATM   10  C   UNL     1      41.244 -12.984  -1.333  1.00  0.00     0.240 C 
HETATM   11  N   UNL     1      39.752 -13.059  -1.662  1.00  0.00    -0.063 N 
HETATM   12  H   UNL     1      39.484 -12.128  -1.995  1.00  0.00     0.280 HD
HETATM   13  C   UNL     1      38.933 -13.320  -0.404  1.00  0.00     0.282 C 
HETATM   14  N   UNL     1      40.222 -16.795   3.245  1.00  0.00    -0.357 N 
HETATM   15  H   UNL     1      39.492 -16.780   3.948  1.00  0.00     0.162 HD
ENDROOT
BRANCH   1  16
HETATM   16  C   UNL     1      41.899 -15.564   4.566  1.00  0.00    -0.014 A 
HETATM   17  C   UNL     1      43.168 -14.950   4.495  1.00  0.00     0.014 A 
HETATM   18  C   UNL     1      43.388 -13.685   5.042  1.00  0.00     0.038 A 
HETATM   19  C   UNL     1      42.336 -13.029   5.669  1.00  0.00     0.079 A 
HETATM   20  C   UNL     1      41.112 -13.659   5.869  1.00  0.00     0.038 A 
HETATM   21  C   UNL     1      40.899 -14.927   5.327  1.00  0.00     0.014 A 
BRANCH  19  22
HETATM   22  O   UNL     1      42.479 -11.723   6.132  1.00  0.00    -0.276 OA
BRANCH  22  23
HETATM   23  C   UNL     1      41.290 -11.205   6.614  1.00  0.00     0.288 C 
HETATM   24  O   UNL     1      40.273 -10.942   5.982  1.00  0.00    -0.260 OA
BRANCH  23  25
HETATM   25  C   UNL     1      41.347 -11.008   8.080  1.00  0.00     0.083 C 
HETATM   26  C   UNL     1      42.453 -10.652   8.750  1.00  0.00     0.017 C 
BRANCH  26  27
HETATM   27  C   UNL     1      42.506 -10.598  10.215  1.00  0.00    -0.036 A 
HETATM   28  C   UNL     1      41.376 -10.981  10.943  1.00  0.00     0.014 A 
HETATM   29  C   UNL     1      41.385 -10.938  12.339  1.00  0.00     0.037 A 
HETATM   30  C   UNL     1      42.525 -10.527  13.031  1.00  0.00     0.068 A 
HETATM   31  C   UNL     1      43.662 -10.159  12.312  1.00  0.00     0.037 A 
HETATM   32  C   UNL     1      43.653 -10.198  10.911  1.00  0.00     0.014 A 
BRANCH  30  33
HETATM   33  O   UNL     1      42.396 -10.529  14.391  1.00  0.00    -0.356 OA
HETATM   34  C   UNL     1      42.533  -9.278  15.054  1.00  0.00     0.210 C 
ENDBRANCH  30  33
ENDBRANCH  26  27
ENDBRANCH  23  25
ENDBRANCH  22  23
ENDBRANCH  19  22
ENDBRANCH   1  16
BRANCH   3  35
HETATM   35  O   UNL     1      43.265 -16.650   0.614  1.00  0.00    -0.344 OA
HETATM   36  H   UNL     1      44.140 -16.551   1.028  1.00  0.00     0.219 HD
ENDBRANCH   3  35
BRANCH  11  37
HETATM   37  C   UNL     1      39.392 -14.018  -2.775  1.00  0.00     0.273 C 
BRANCH  37  38
HETATM   38  C   UNL     1      38.105 -13.670  -3.471  1.00  0.00    -0.033 A 
HETATM   39  C   UNL     1      37.254 -14.686  -3.934  1.00  0.00     0.009 A 
HETATM   40  C   UNL     1      36.078 -14.369  -4.614  1.00  0.00     0.001 A 
HETATM   41  C   UNL     1      35.740 -13.036  -4.838  1.00  0.00     0.000 A 
HETATM   42  C   UNL     1      36.570 -12.018  -4.375  1.00  0.00     0.001 A 
HETATM   43  C   UNL     1      37.747 -12.330  -3.692  1.00  0.00     0.009 A 
ENDBRANCH  37  38
ENDBRANCH  11  37
TORSDOF 9
ENDMDL
MODEL 10
REMARK VINA RESULT:      -8.0      4.020      5.139
REMARK  9 active torsions:
REMARK  status: ('A' for Active; 'I' for Inactive)
REMARK    1  A    between atoms: O_2  and  C_3 
REMARK    2  A    between atoms: C_6  and  C_7 
REMARK    3  A    between atoms: C_8  and  C_9 
REMARK    4  A    between atoms: C_9  and  O_10 
REMARK    5  A    between atoms: O_10  and  C_11 
REMARK    6  A    between atoms: C_14  and  C_15 
REMARK    7  A    between atoms: C_17  and  O_18 
REMARK    8  A    between atoms: N_26  and  C_28 
REMARK    9  A    between atoms: C_28  and  C_29 
ROOT
HETATM    1  C   UNL     1      41.295 -15.464  -2.199  1.00  0.00     0.243 C 
HETATM    2  N   UNL     1      42.078 -14.479  -2.991  1.00  0.00    -0.235 NA
HETATM    3  C   UNL     1      41.366 -13.538  -3.501  1.00  0.00     0.173 C 
HETATM    4  C   UNL     1      39.928 -13.460  -3.429  1.00  0.00     0.057 A 
HETATM    5  C   UNL     1      39.275 -14.621  -3.092  1.00  0.00     0.087 A 
HETATM    6  S   UNL     1      37.589 -14.456  -3.070  1.00  0.00    -0.074 SA
HETATM    7  C   UNL     1      37.710 -12.791  -3.410  1.00  0.00     0.018 A 
HETATM    8  C   UNL     1      39.020 -12.374  -3.597  1.00  0.00    -0.024 A 
HETATM    9  C   UNL     1      39.354 -10.943  -3.887  1.00  0.00     0.068 C 
HETATM   10  C   UNL     1      38.174 -10.016  -3.550  1.00  0.00     0.240 C 
HETATM   11  N   UNL     1      36.844 -10.558  -4.076  1.00  0.00    -0.063 N 
HETATM   12  H   UNL     1      36.122  -9.902  -3.762  1.00  0.00     0.280 HD
HETATM   13  C   UNL     1      36.516 -11.900  -3.436  1.00  0.00     0.282 C 
HETATM   14  N   UNL     1      39.966 -15.735  -2.770  1.00  0.00    -0.357 N 
HETATM   15  H   UNL     1      39.474 -16.515  -2.350  1.00  0.00     0.162 HD
ENDROOT
BRANCH   1  16
HETATM   16  C   UNL     1      41.146 -15.024  -0.726  1.00  0.00    -0.014 A 
HETATM   17  C   UNL     1      40.434 -15.812   0.203  1.00  0.00     0.014 A 
HETATM   18  C   UNL     1      40.465 -15.522   1.568  1.00  0.00     0.038 A 
HETATM   19  C   UNL     1      41.208 -14.435   2.009  1.00  0.00     0.079 A 
HETATM   20  C   UNL     1      41.814 -13.564   1.109  1.00  0.00     0.038 A 
HETATM   21  C   UNL     1      41.774 -13.855  -0.255  1.00  0.00     0.014 A 
BRANCH  19  22
HETATM   22  O   UNL     1      41.356 -14.172   3.370  1.00  0.00    -0.276 OA
BRANCH  22  23
HETATM   23  C   UNL     1      42.681 -14.206   3.768  1.00  0.00     0.288 C 
HETATM   24  O   UNL     1      43.440 -13.259   3.937  1.00  0.00    -0.260 OA
BRANCH  23  25
HETATM   25  C   UNL     1      43.128 -15.594   4.022  1.00  0.00     0.083 C 
HETATM   26  C   UNL     1      43.564 -16.432   3.070  1.00  0.00     0.017 C 
BRANCH  26  27
HETATM   27  C   UNL     1      43.871 -17.841   3.336  1.00  0.00    -0.036 A 
HETATM   28  C   UNL     1      43.944 -18.728   2.257  1.00  0.00     0.014 A 
HETATM   29  C   UNL     1      44.229 -20.079   2.470  1.00  0.00     0.037 A 
HETATM   30  C   UNL     1      44.461 -20.563   3.759  1.00  0.00     0.068 A 
HETATM   31  C   UNL     1      44.406 -19.681   4.837  1.00  0.00     0.037 A 
HETATM   32  C   UNL     1      44.117 -18.326   4.626  1.00  0.00     0.014 A 
BRANCH  30  33
HETATM   33  O   UNL     1      44.724 -21.902   3.824  1.00  0.00    -0.356 OA
HETATM   34  C   UNL     1      45.109 -22.423   5.090  1.00  0.00     0.210 C 
ENDBRANCH  30  33
ENDBRANCH  26  27
ENDBRANCH  23  25
ENDBRANCH  22  23
ENDBRANCH  19  22
ENDBRANCH   1  16
BRANCH   3  35
HETATM   35  O   UNL     1      41.988 -12.545  -4.162  1.00  0.00    -0.344 OA
HETATM   36  H   UNL     1      42.024 -12.815  -5.096  1.00  0.00     0.219 HD
ENDBRANCH   3  35
BRANCH  11  37
HETATM   37  C   UNL     1      36.729 -10.612  -5.583  1.00  0.00     0.273 C 
BRANCH  37  38
HETATM   38  C   UNL     1      35.344 -10.945  -6.066  1.00  0.00    -0.033 A 
HETATM   39  C   UNL     1      35.145 -12.002  -6.968  1.00  0.00     0.009 A 
HETATM   40  C   UNL     1      33.867 -12.291  -7.448  1.00  0.00     0.001 A 
HETATM   41  C   UNL     1      32.777 -11.530  -7.032  1.00  0.00     0.000 A 
HETATM   42  C   UNL     1      32.959 -10.485  -6.129  1.00  0.00     0.001 A 
HETATM   43  C   UNL     1      34.236 -10.193  -5.645  1.00  0.00     0.009 A 
ENDBRANCH  37  38
ENDBRANCH  11  37
TORSDOF 9
ENDMDL
