MODEL 1
REMARK VINA RESULT:      -7.7      0.000      0.000
REMARK  10 active torsions:
REMARK  status: ('A' for Active; 'I' for Inactive)
REMARK    1  A    between atoms: O_2  and  C_3 
REMARK    2  A    between atoms: C_4  and  C_5 
REMARK       I    between atoms: C_5  and  N_6 
REMARK    3  A    between atoms: N_6  and  C_7 
REMARK    4  A    between atoms: C_7  and  N_8 
REMARK    5  A    between atoms: N_8  and  C_9 
REMARK    6  A    between atoms: C_10  and  C_11 
REMARK       I    between atoms: C_11  and  N_12 
REMARK    7  A    between atoms: N_12  and  C_13 
REMARK    8  A    between atoms: C_13  and  C_14 
REMARK    9  A    between atoms: C_14  and  C_15 
REMARK   10  A    between atoms: C_15  and  O_16 
ROOT
HETATM    1  N   UNL     1      41.770 -15.380   4.149  1.00  0.00    -0.332 N 
HETATM    2  H   UNL     1      42.548 -15.327   3.497  1.00  0.00     0.168 HD
ENDROOT
BRANCH   1   3
HETATM    3  C   UNL     1      41.604 -16.597   4.710  1.00  0.00     0.179 C 
HETATM    4  S   UNL     1      41.015 -16.696   6.273  1.00  0.00    -0.040 SA
BRANCH   3   5
HETATM    5  N   UNL     1      41.970 -17.744   4.077  1.00  0.00    -0.299 N 
HETATM    6  C   UNL     1      43.138 -17.933   3.342  1.00  0.00     0.260 C 
HETATM    7  O   UNL     1      43.773 -17.038   2.791  1.00  0.00    -0.267 OA
HETATM    8  H   UNL     1      41.697 -18.565   4.609  1.00  0.00     0.171 HD
BRANCH   6   9
HETATM    9  C   UNL     1      43.618 -19.351   3.208  1.00  0.00     0.065 A 
HETATM   10  C   UNL     1      44.371 -20.026   4.193  1.00  0.00     0.084 A 
HETATM   11  C   UNL     1      44.800 -21.338   3.949  1.00  0.00     0.038 A 
HETATM   12  C   UNL     1      44.498 -21.973   2.742  1.00  0.00     0.003 A 
HETATM   13  C   UNL     1      43.763 -21.309   1.766  1.00  0.00     0.001 A 
HETATM   14  C   UNL     1      43.328 -20.004   1.997  1.00  0.00     0.020 A 
BRANCH  10  15
HETATM   15  O   UNL     1      44.641 -19.351   5.356  1.00  0.00    -0.355 OA
HETATM   16  C   UNL     1      43.915 -19.725   6.525  1.00  0.00     0.210 C 
ENDBRANCH  10  15
ENDBRANCH   6   9
ENDBRANCH   3   5
ENDBRANCH   1   3
BRANCH   1  17
HETATM   17  C   UNL     1      41.214 -14.122   4.498  1.00  0.00     0.050 A 
HETATM   18  C   UNL     1      41.938 -13.251   5.340  1.00  0.00     0.058 A 
HETATM   19  C   UNL     1      41.345 -12.078   5.829  1.00  0.00     0.019 A 
HETATM   20  C   UNL     1      40.043 -11.748   5.461  1.00  0.00     0.001 A 
HETATM   21  C   UNL     1      39.331 -12.586   4.607  1.00  0.00     0.002 A 
HETATM   22  C   UNL     1      39.909 -13.768   4.130  1.00  0.00     0.030 A 
BRANCH  18  23
HETATM   23  C   UNL     1      43.356 -13.501   5.726  1.00  0.00     0.253 C 
HETATM   24  N   UNL     1      43.610 -13.482   7.083  1.00  0.00    -0.357 N 
HETATM   25  H   UNL     1      42.801 -13.548   7.700  1.00  0.00     0.162 HD
HETATM   26  O   UNL     1      44.208 -13.724   4.874  1.00  0.00    -0.268 OA
BRANCH  24  27
HETATM   27  C   UNL     1      44.914 -13.799   7.625  1.00  0.00     0.125 C 
BRANCH  27  28
HETATM   28  C   UNL     1      45.515 -12.585   8.318  1.00  0.00     0.046 C 
BRANCH  28  29
HETATM   29  C   UNL     1      44.694 -12.169   9.529  1.00  0.00     0.165 C 
BRANCH  29  30
HETATM   30  O   UNL     1      44.167 -13.323  10.172  1.00  0.00    -0.401 OA
HETATM   31  H   UNL     1      43.788 -13.896   9.483  1.00  0.00     0.209 HD
ENDBRANCH  29  30
ENDBRANCH  28  29
ENDBRANCH  27  28
ENDBRANCH  24  27
ENDBRANCH  18  23
ENDBRANCH   1  17
TORSDOF 10
ENDMDL
MODEL 2
REMARK VINA RESULT:      -7.5      3.019      4.920
REMARK  10 active torsions:
REMARK  status: ('A' for Active; 'I' for Inactive)
REMARK    1  A    between atoms: O_2  and  C_3 
REMARK    2  A    between atoms: C_4  and  C_5 
REMARK       I    between atoms: C_5  and  N_6 
REMARK    3  A    between atoms: N_6  and  C_7 
REMARK    4  A    between atoms: C_7  and  N_8 
REMARK    5  A    between atoms: N_8  and  C_9 
REMARK    6  A    between atoms: C_10  and  C_11 
REMARK       I    between atoms: C_11  and  N_12 
REMARK    7  A    between atoms: N_12  and  C_13 
REMARK    8  A    between atoms: C_13  and  C_14 
REMARK    9  A    between atoms: C_14  and  C_15 
REMARK   10  A    between atoms: C_15  and  O_16 
ROOT
HETATM    1  N   UNL     1      40.484 -16.044   4.837  1.00  0.00    -0.332 N 
HETATM    2  H   UNL     1      39.729 -16.713   4.969  1.00  0.00     0.168 HD
ENDROOT
BRANCH   1   3
HETATM    3  C   UNL     1      41.718 -16.593   4.876  1.00  0.00     0.179 C 
HETATM    4  S   UNL     1      42.955 -15.753   5.626  1.00  0.00    -0.040 SA
BRANCH   3   5
HETATM    5  N   UNL     1      42.008 -17.771   4.262  1.00  0.00    -0.299 N 
HETATM    6  C   UNL     1      42.961 -17.957   3.263  1.00  0.00     0.260 C 
HETATM    7  O   UNL     1      43.355 -17.083   2.497  1.00  0.00    -0.267 OA
HETATM    8  H   UNL     1      41.952 -18.551   4.909  1.00  0.00     0.171 HD
BRANCH   6   9
HETATM    9  C   UNL     1      43.512 -19.349   3.120  1.00  0.00     0.065 A 
HETATM   10  C   UNL     1      44.332 -19.977   4.083  1.00  0.00     0.084 A 
HETATM   11  C   UNL     1      44.821 -21.266   3.831  1.00  0.00     0.038 A 
HETATM   12  C   UNL     1      44.515 -21.923   2.638  1.00  0.00     0.003 A 
HETATM   13  C   UNL     1      43.715 -21.305   1.684  1.00  0.00     0.001 A 
HETATM   14  C   UNL     1      43.218 -20.023   1.922  1.00  0.00     0.020 A 
BRANCH  10  15
HETATM   15  O   UNL     1      44.602 -19.281   5.234  1.00  0.00    -0.355 OA
HETATM   16  C   UNL     1      44.064 -19.783   6.455  1.00  0.00     0.210 C 
ENDBRANCH  10  15
ENDBRANCH   6   9
ENDBRANCH   3   5
ENDBRANCH   1   3
BRANCH   1  17
HETATM   17  C   UNL     1      40.061 -14.763   4.399  1.00  0.00     0.050 A 
HETATM   18  C   UNL     1      40.042 -14.471   3.017  1.00  0.00     0.058 A 
HETATM   19  C   UNL     1      39.785 -13.167   2.570  1.00  0.00     0.019 A 
HETATM   20  C   UNL     1      39.514 -12.154   3.487  1.00  0.00     0.001 A 
HETATM   21  C   UNL     1      39.501 -12.440   4.849  1.00  0.00     0.002 A 
HETATM   22  C   UNL     1      39.775 -13.734   5.305  1.00  0.00     0.030 A 
BRANCH  18  23
HETATM   23  C   UNL     1      40.258 -15.513   1.973  1.00  0.00     0.253 C 
HETATM   24  N   UNL     1      41.056 -15.129   0.914  1.00  0.00    -0.357 N 
HETATM   25  H   UNL     1      41.618 -14.290   1.047  1.00  0.00     0.162 HD
HETATM   26  O   UNL     1      39.763 -16.627   2.088  1.00  0.00    -0.268 OA
BRANCH  24  27
HETATM   27  C   UNL     1      41.438 -16.053  -0.133  1.00  0.00     0.125 C 
BRANCH  27  28
HETATM   28  C   UNL     1      41.016 -15.521  -1.495  1.00  0.00     0.046 C 
BRANCH  28  29
HETATM   29  C   UNL     1      40.237 -14.221  -1.371  1.00  0.00     0.165 C 
BRANCH  29  30
HETATM   30  O   UNL     1      38.869 -14.504  -1.109  1.00  0.00    -0.401 OA
HETATM   31  H   UNL     1      38.836 -15.217  -0.448  1.00  0.00     0.209 HD
ENDBRANCH  29  30
ENDBRANCH  28  29
ENDBRANCH  27  28
ENDBRANCH  24  27
ENDBRANCH  18  23
ENDBRANCH   1  17
TORSDOF 10
ENDMDL
MODEL 3
REMARK VINA RESULT:      -7.5      3.822      6.373
REMARK  10 active torsions:
REMARK  status: ('A' for Active; 'I' for Inactive)
REMARK    1  A    between atoms: O_2  and  C_3 
REMARK    2  A    between atoms: C_4  and  C_5 
REMARK       I    between atoms: C_5  and  N_6 
REMARK    3  A    between atoms: N_6  and  C_7 
REMARK    4  A    between atoms: C_7  and  N_8 
REMARK    5  A    between atoms: N_8  and  C_9 
REMARK    6  A    between atoms: C_10  and  C_11 
REMARK       I    between atoms: C_11  and  N_12 
REMARK    7  A    between atoms: N_12  and  C_13 
REMARK    8  A    between atoms: C_13  and  C_14 
REMARK    9  A    between atoms: C_14  and  C_15 
REMARK   10  A    between atoms: C_15  and  O_16 
ROOT
HETATM    1  N   UNL     1      42.211 -14.959   2.343  1.00  0.00    -0.332 N 
HETATM    2  H   UNL     1      42.956 -14.552   1.783  1.00  0.00     0.168 HD
ENDROOT
BRANCH   1   3
HETATM    3  C   UNL     1      42.644 -15.814   3.295  1.00  0.00     0.179 C 
HETATM    4  S   UNL     1      43.189 -15.197   4.751  1.00  0.00    -0.040 SA
BRANCH   3   5
HETATM    5  N   UNL     1      42.723 -17.156   3.084  1.00  0.00    -0.299 N 
HETATM    6  C   UNL     1      43.707 -17.808   2.345  1.00  0.00     0.260 C 
HETATM    7  O   UNL     1      44.365 -17.295   1.443  1.00  0.00    -0.267 OA
HETATM    8  H   UNL     1      42.427 -17.678   3.902  1.00  0.00     0.171 HD
BRANCH   6   9
HETATM    9  C   UNL     1      43.943 -19.254   2.682  1.00  0.00     0.065 A 
HETATM   10  C   UNL     1      44.458 -19.704   3.917  1.00  0.00     0.084 A 
HETATM   11  C   UNL     1      44.673 -21.075   4.113  1.00  0.00     0.038 A 
HETATM   12  C   UNL     1      44.394 -21.991   3.096  1.00  0.00     0.003 A 
HETATM   13  C   UNL     1      43.895 -21.552   1.875  1.00  0.00     0.001 A 
HETATM   14  C   UNL     1      43.673 -20.190   1.669  1.00  0.00     0.020 A 
BRANCH  10  15
HETATM   15  O   UNL     1      44.716 -18.758   4.877  1.00  0.00    -0.355 OA
HETATM   16  C   UNL     1      44.016 -18.857   6.114  1.00  0.00     0.210 C 
ENDBRANCH  10  15
ENDBRANCH   6   9
ENDBRANCH   3   5
ENDBRANCH   1   3
BRANCH   1  17
HETATM   17  C   UNL     1      40.943 -14.350   2.161  1.00  0.00     0.050 A 
HETATM   18  C   UNL     1      40.287 -14.467   0.916  1.00  0.00     0.058 A 
HETATM   19  C   UNL     1      39.115 -13.742   0.659  1.00  0.00     0.019 A 
HETATM   20  C   UNL     1      38.570 -12.921   1.644  1.00  0.00     0.001 A 
HETATM   21  C   UNL     1      39.194 -12.823   2.885  1.00  0.00     0.002 A 
HETATM   22  C   UNL     1      40.375 -13.528   3.143  1.00  0.00     0.030 A 
BRANCH  18  23
HETATM   23  C   UNL     1      40.771 -15.373  -0.164  1.00  0.00     0.253 C 
HETATM   24  N   UNL     1      40.486 -14.961  -1.451  1.00  0.00    -0.357 N 
HETATM   25  H   UNL     1      40.204 -13.989  -1.567  1.00  0.00     0.162 HD
HETATM   26  O   UNL     1      41.392 -16.394   0.105  1.00  0.00    -0.268 OA
BRANCH  24  27
HETATM   27  C   UNL     1      40.967 -15.679  -2.611  1.00  0.00     0.125 C 
BRANCH  27  28
HETATM   28  C   UNL     1      39.883 -16.593  -3.163  1.00  0.00     0.046 C 
BRANCH  28  29
HETATM   29  C   UNL     1      39.026 -15.881  -4.198  1.00  0.00     0.165 C 
BRANCH  29  30
HETATM   30  O   UNL     1      38.947 -16.668  -5.380  1.00  0.00    -0.401 OA
HETATM   31  H   UNL     1      39.847 -16.752  -5.739  1.00  0.00     0.209 HD
ENDBRANCH  29  30
ENDBRANCH  28  29
ENDBRANCH  27  28
ENDBRANCH  24  27
ENDBRANCH  18  23
ENDBRANCH   1  17
TORSDOF 10
ENDMDL
MODEL 4
REMARK VINA RESULT:      -7.3      2.210      7.511
REMARK  10 active torsions:
REMARK  status: ('A' for Active; 'I' for Inactive)
REMARK    1  A    between atoms: O_2  and  C_3 
REMARK    2  A    between atoms: C_4  and  C_5 
REMARK       I    between atoms: C_5  and  N_6 
REMARK    3  A    between atoms: N_6  and  C_7 
REMARK    4  A    between atoms: C_7  and  N_8 
REMARK    5  A    between atoms: N_8  and  C_9 
REMARK    6  A    between atoms: C_10  and  C_11 
REMARK       I    between atoms: C_11  and  N_12 
REMARK    7  A    between atoms: N_12  and  C_13 
REMARK    8  A    between atoms: C_13  and  C_14 
REMARK    9  A    between atoms: C_14  and  C_15 
REMARK   10  A    between atoms: C_15  and  O_16 
ROOT
HETATM    1  N   UNL     1      44.594 -19.302   5.069  1.00  0.00    -0.332 N 
HETATM    2  H   UNL     1      45.379 -18.658   5.005  1.00  0.00     0.168 HD
ENDROOT
BRANCH   1   3
HETATM    3  C   UNL     1      43.731 -19.019   6.069  1.00  0.00     0.179 C 
HETATM    4  S   UNL     1      43.683 -20.022   7.407  1.00  0.00    -0.040 SA
BRANCH   3   5
HETATM    5  N   UNL     1      42.844 -17.990   5.992  1.00  0.00    -0.299 N 
HETATM    6  C   UNL     1      42.827 -16.866   6.815  1.00  0.00     0.260 C 
HETATM    7  O   UNL     1      43.282 -16.822   7.955  1.00  0.00    -0.267 OA
HETATM    8  H   UNL     1      42.597 -17.783   5.030  1.00  0.00     0.171 HD
BRANCH   6   9
HETATM    9  C   UNL     1      42.174 -15.636   6.248  1.00  0.00     0.065 A 
HETATM   10  C   UNL     1      42.871 -14.456   5.911  1.00  0.00     0.084 A 
HETATM   11  C   UNL     1      42.157 -13.353   5.422  1.00  0.00     0.038 A 
HETATM   12  C   UNL     1      40.769 -13.411   5.279  1.00  0.00     0.003 A 
HETATM   13  C   UNL     1      40.078 -14.569   5.617  1.00  0.00     0.001 A 
HETATM   14  C   UNL     1      40.776 -15.675   6.102  1.00  0.00     0.020 A 
BRANCH  10  15
HETATM   15  O   UNL     1      44.233 -14.456   6.076  1.00  0.00    -0.355 OA
HETATM   16  C   UNL     1      44.767 -13.756   7.197  1.00  0.00     0.210 C 
ENDBRANCH  10  15
ENDBRANCH   6   9
ENDBRANCH   3   5
ENDBRANCH   1   3
BRANCH   1  17
HETATM   17  C   UNL     1      44.462 -20.175   3.959  1.00  0.00     0.050 A 
HETATM   18  C   UNL     1      43.828 -19.716   2.784  1.00  0.00     0.058 A 
HETATM   19  C   UNL     1      43.541 -20.605   1.738  1.00  0.00     0.019 A 
HETATM   20  C   UNL     1      43.910 -21.944   1.837  1.00  0.00     0.001 A 
HETATM   21  C   UNL     1      44.563 -22.399   2.980  1.00  0.00     0.002 A 
HETATM   22  C   UNL     1      44.835 -21.524   4.037  1.00  0.00     0.030 A 
BRANCH  18  23
HETATM   23  C   UNL     1      43.461 -18.287   2.576  1.00  0.00     0.253 C 
HETATM   24  N   UNL     1      42.118 -17.997   2.709  1.00  0.00    -0.357 N 
HETATM   25  H   UNL     1      41.543 -18.701   3.169  1.00  0.00     0.162 HD
HETATM   26  O   UNL     1      44.320 -17.450   2.323  1.00  0.00    -0.268 OA
BRANCH  24  27
HETATM   27  C   UNL     1      41.613 -16.643   2.630  1.00  0.00     0.125 C 
BRANCH  27  28
HETATM   28  C   UNL     1      40.707 -16.480   1.419  1.00  0.00     0.046 C 
BRANCH  28  29
HETATM   29  C   UNL     1      41.509 -16.303   0.140  1.00  0.00     0.165 C 
BRANCH  29  30
HETATM   30  O   UNL     1      40.672 -15.785  -0.886  1.00  0.00    -0.401 OA
HETATM   31  H   UNL     1      41.210 -15.185  -1.431  1.00  0.00     0.209 HD
ENDBRANCH  29  30
ENDBRANCH  28  29
ENDBRANCH  27  28
ENDBRANCH  24  27
ENDBRANCH  18  23
ENDBRANCH   1  17
TORSDOF 10
ENDMDL
MODEL 5
REMARK VINA RESULT:      -7.2      2.958      6.808
REMARK  10 active torsions:
REMARK  status: ('A' for Active; 'I' for Inactive)
REMARK    1  A    between atoms: O_2  and  C_3 
REMARK    2  A    between atoms: C_4  and  C_5 
REMARK       I    between atoms: C_5  and  N_6 
REMARK    3  A    between atoms: N_6  and  C_7 
REMARK    4  A    between atoms: C_7  and  N_8 
REMARK    5  A    between atoms: N_8  and  C_9 
REMARK    6  A    between atoms: C_10  and  C_11 
REMARK       I    between atoms: C_11  and  N_12 
REMARK    7  A    between atoms: N_12  and  C_13 
REMARK    8  A    between atoms: C_13  and  C_14 
REMARK    9  A    between atoms: C_14  and  C_15 
REMARK   10  A    between atoms: C_15  and  O_16 
ROOT
HETATM    1  N   UNL     1      43.730 -18.013   3.083  1.00  0.00    -0.332 N 
HETATM    2  H   UNL     1      44.557 -17.505   2.778  1.00  0.00     0.168 HD
ENDROOT
BRANCH   1   3
HETATM    3  C   UNL     1      42.604 -17.268   3.103  1.00  0.00     0.179 C 
HETATM    4  S   UNL     1      41.544 -17.436   4.387  1.00  0.00    -0.040 SA
BRANCH   3   5
HETATM    5  N   UNL     1      42.262 -16.441   2.079  1.00  0.00    -0.299 N 
HETATM    6  C   UNL     1      41.293 -16.699   1.112  1.00  0.00     0.260 C 
HETATM    7  O   UNL     1      40.926 -17.818   0.765  1.00  0.00    -0.267 OA
HETATM    8  H   UNL     1      42.294 -15.467   2.362  1.00  0.00     0.171 HD
BRANCH   6   9
HETATM    9  C   UNL     1      40.686 -15.497   0.441  1.00  0.00     0.065 A 
HETATM   10  C   UNL     1      39.725 -14.657   1.045  1.00  0.00     0.084 A 
HETATM   11  C   UNL     1      39.198 -13.583   0.315  1.00  0.00     0.038 A 
HETATM   12  C   UNL     1      39.606 -13.348  -1.000  1.00  0.00     0.003 A 
HETATM   13  C   UNL     1      40.546 -14.178  -1.601  1.00  0.00     0.001 A 
HETATM   14  C   UNL     1      41.081 -15.248  -0.884  1.00  0.00     0.020 A 
BRANCH  10  15
HETATM   15  O   UNL     1      39.360 -14.939   2.337  1.00  0.00    -0.355 OA
HETATM   16  C   UNL     1      39.804 -14.053   3.361  1.00  0.00     0.210 C 
ENDBRANCH  10  15
ENDBRANCH   6   9
ENDBRANCH   3   5
ENDBRANCH   1   3
BRANCH   1  17
HETATM   17  C   UNL     1      43.906 -19.418   3.170  1.00  0.00     0.050 A 
HETATM   18  C   UNL     1      44.485 -19.976   4.331  1.00  0.00     0.058 A 
HETATM   19  C   UNL     1      44.818 -21.338   4.374  1.00  0.00     0.019 A 
HETATM   20  C   UNL     1      44.551 -22.158   3.280  1.00  0.00     0.001 A 
HETATM   21  C   UNL     1      43.953 -21.622   2.143  1.00  0.00     0.002 A 
HETATM   22  C   UNL     1      43.635 -20.260   2.084  1.00  0.00     0.030 A 
BRANCH  18  23
HETATM   23  C   UNL     1      44.741 -19.179   5.564  1.00  0.00     0.253 C 
HETATM   24  N   UNL     1      43.774 -19.281   6.543  1.00  0.00    -0.357 N 
HETATM   25  H   UNL     1      43.117 -20.056   6.457  1.00  0.00     0.162 HD
HETATM   26  O   UNL     1      45.758 -18.506   5.674  1.00  0.00    -0.268 OA
BRANCH  24  27
HETATM   27  C   UNL     1      43.919 -18.645   7.835  1.00  0.00     0.125 C 
BRANCH  27  28
HETATM   28  C   UNL     1      43.053 -17.396   7.917  1.00  0.00     0.046 C 
BRANCH  28  29
HETATM   29  C   UNL     1      43.726 -16.205   7.254  1.00  0.00     0.165 C 
BRANCH  29  30
HETATM   30  O   UNL     1      43.938 -15.177   8.214  1.00  0.00    -0.401 OA
HETATM   31  H   UNL     1      43.066 -14.831   8.471  1.00  0.00     0.209 HD
ENDBRANCH  29  30
ENDBRANCH  28  29
ENDBRANCH  27  28
ENDBRANCH  24  27
ENDBRANCH  18  23
ENDBRANCH   1  17
TORSDOF 10
ENDMDL
MODEL 6
REMARK VINA RESULT:      -7.2      2.884      3.843
REMARK  10 active torsions:
REMARK  status: ('A' for Active; 'I' for Inactive)
REMARK    1  A    between atoms: O_2  and  C_3 
REMARK    2  A    between atoms: C_4  and  C_5 
REMARK       I    between atoms: C_5  and  N_6 
REMARK    3  A    between atoms: N_6  and  C_7 
REMARK    4  A    between atoms: C_7  and  N_8 
REMARK    5  A    between atoms: N_8  and  C_9 
REMARK    6  A    between atoms: C_10  and  C_11 
REMARK       I    between atoms: C_11  and  N_12 
REMARK    7  A    between atoms: N_12  and  C_13 
REMARK    8  A    between atoms: C_13  and  C_14 
REMARK    9  A    between atoms: C_14  and  C_15 
REMARK   10  A    between atoms: C_15  and  O_16 
ROOT
HETATM    1  N   UNL     1      41.258 -15.955   3.051  1.00  0.00    -0.332 N 
HETATM    2  H   UNL     1      40.321 -15.994   3.444  1.00  0.00     0.168 HD
ENDROOT
BRANCH   1   3
HETATM    3  C   UNL     1      42.176 -16.660   3.748  1.00  0.00     0.179 C 
HETATM    4  S   UNL     1      43.070 -15.881   4.929  1.00  0.00    -0.040 SA
BRANCH   3   5
HETATM    5  N   UNL     1      42.453 -17.963   3.473  1.00  0.00    -0.299 N 
HETATM    6  C   UNL     1      43.566 -18.431   2.779  1.00  0.00     0.260 C 
HETATM    7  O   UNL     1      44.208 -17.779   1.959  1.00  0.00    -0.267 OA
HETATM    8  H   UNL     1      42.175 -18.571   4.237  1.00  0.00     0.171 HD
BRANCH   6   9
HETATM    9  C   UNL     1      43.974 -19.851   3.055  1.00  0.00     0.065 A 
HETATM   10  C   UNL     1      44.514 -20.293   4.283  1.00  0.00     0.084 A 
HETATM   11  C   UNL     1      44.895 -21.635   4.421  1.00  0.00     0.038 A 
HETATM   12  C   UNL     1      44.756 -22.528   3.356  1.00  0.00     0.003 A 
HETATM   13  C   UNL     1      44.232 -22.094   2.143  1.00  0.00     0.001 A 
HETATM   14  C   UNL     1      43.846 -20.762   1.993  1.00  0.00     0.020 A 
BRANCH  10  15
HETATM   15  O   UNL     1      44.630 -19.371   5.292  1.00  0.00    -0.355 OA
HETATM   16  C   UNL     1      43.960 -19.641   6.520  1.00  0.00     0.210 C 
ENDBRANCH  10  15
ENDBRANCH   6   9
ENDBRANCH   3   5
ENDBRANCH   1   3
BRANCH   1  17
HETATM   17  C   UNL     1      41.325 -15.389   1.752  1.00  0.00     0.050 A 
HETATM   18  C   UNL     1      41.250 -13.987   1.599  1.00  0.00     0.058 A 
HETATM   19  C   UNL     1      41.150 -13.416   0.323  1.00  0.00     0.019 A 
HETATM   20  C   UNL     1      41.155 -14.228  -0.809  1.00  0.00     0.001 A 
HETATM   21  C   UNL     1      41.258 -15.610  -0.669  1.00  0.00     0.002 A 
HETATM   22  C   UNL     1      41.339 -16.189   0.602  1.00  0.00     0.030 A 
BRANCH  18  23
HETATM   23  C   UNL     1      41.305 -13.049   2.756  1.00  0.00     0.253 C 
HETATM   24  N   UNL     1      40.083 -12.572   3.186  1.00  0.00    -0.357 N 
HETATM   25  H   UNL     1      39.258 -13.072   2.860  1.00  0.00     0.162 HD
HETATM   26  O   UNL     1      42.375 -12.758   3.277  1.00  0.00    -0.268 OA
BRANCH  24  27
HETATM   27  C   UNL     1      39.957 -11.728   4.355  1.00  0.00     0.125 C 
BRANCH  27  28
HETATM   28  C   UNL     1      39.235 -12.466   5.473  1.00  0.00     0.046 C 
BRANCH  28  29
HETATM   29  C   UNL     1      40.042 -13.655   5.970  1.00  0.00     0.165 C 
BRANCH  29  30
HETATM   30  O   UNL     1      39.553 -14.851   5.375  1.00  0.00    -0.401 OA
HETATM   31  H   UNL     1      40.032 -14.981   4.538  1.00  0.00     0.209 HD
ENDBRANCH  29  30
ENDBRANCH  28  29
ENDBRANCH  27  28
ENDBRANCH  24  27
ENDBRANCH  18  23
ENDBRANCH   1  17
TORSDOF 10
ENDMDL
MODEL 7
REMARK VINA RESULT:      -7.2      3.881      5.451
REMARK  10 active torsions:
REMARK  status: ('A' for Active; 'I' for Inactive)
REMARK    1  A    between atoms: O_2  and  C_3 
REMARK    2  A    between atoms: C_4  and  C_5 
REMARK       I    between atoms: C_5  and  N_6 
REMARK    3  A    between atoms: N_6  and  C_7 
REMARK    4  A    between atoms: C_7  and  N_8 
REMARK    5  A    between atoms: N_8  and  C_9 
REMARK    6  A    between atoms: C_10  and  C_11 
REMARK       I    between atoms: C_11  and  N_12 
REMARK    7  A    between atoms: N_12  and  C_13 
REMARK    8  A    between atoms: C_13  and  C_14 
REMARK    9  A    between atoms: C_14  and  C_15 
REMARK   10  A    between atoms: C_15  and  O_16 
ROOT
HETATM    1  N   UNL     1      41.516 -15.398   1.595  1.00  0.00    -0.332 N 
HETATM    2  H   UNL     1      42.329 -15.155   1.034  1.00  0.00     0.168 HD
ENDROOT
BRANCH   1   3
HETATM    3  C   UNL     1      41.811 -16.086   2.719  1.00  0.00     0.179 C 
HETATM    4  S   UNL     1      41.900 -15.264   4.173  1.00  0.00    -0.040 SA
BRANCH   3   5
HETATM    5  N   UNL     1      42.113 -17.413   2.701  1.00  0.00    -0.299 N 
HETATM    6  C   UNL     1      43.178 -17.997   2.019  1.00  0.00     0.260 C 
HETATM    7  O   UNL     1      43.720 -17.524   1.024  1.00  0.00    -0.267 OA
HETATM    8  H   UNL     1      41.926 -17.849   3.598  1.00  0.00     0.171 HD
BRANCH   6   9
HETATM    9  C   UNL     1      43.663 -19.317   2.550  1.00  0.00     0.065 A 
HETATM   10  C   UNL     1      44.282 -19.483   3.808  1.00  0.00     0.084 A 
HETATM   11  C   UNL     1      44.730 -20.756   4.189  1.00  0.00     0.038 A 
HETATM   12  C   UNL     1      44.579 -21.850   3.334  1.00  0.00     0.003 A 
HETATM   13  C   UNL     1      43.977 -21.688   2.091  1.00  0.00     0.001 A 
HETATM   14  C   UNL     1      43.524 -20.428   1.700  1.00  0.00     0.020 A 
BRANCH  10  15
HETATM   15  O   UNL     1      44.407 -18.373   4.604  1.00  0.00    -0.355 OA
HETATM   16  C   UNL     1      43.674 -18.346   5.826  1.00  0.00     0.210 C 
ENDBRANCH  10  15
ENDBRANCH   6   9
ENDBRANCH   3   5
ENDBRANCH   1   3
BRANCH   1  17
HETATM   17  C   UNL     1      40.318 -14.750   1.200  1.00  0.00     0.050 A 
HETATM   18  C   UNL     1      40.388 -13.544   0.469  1.00  0.00     0.058 A 
HETATM   19  C   UNL     1      39.227 -12.802   0.208  1.00  0.00     0.019 A 
HETATM   20  C   UNL     1      37.988 -13.267   0.645  1.00  0.00     0.001 A 
HETATM   21  C   UNL     1      37.906 -14.470   1.341  1.00  0.00     0.002 A 
HETATM   22  C   UNL     1      39.062 -15.207   1.621  1.00  0.00     0.030 A 
BRANCH  18  23
HETATM   23  C   UNL     1      41.666 -13.015  -0.087  1.00  0.00     0.253 C 
HETATM   24  N   UNL     1      41.784 -13.084  -1.461  1.00  0.00    -0.357 N 
HETATM   25  H   UNL     1      40.927 -13.249  -1.985  1.00  0.00     0.162 HD
HETATM   26  O   UNL     1      42.521 -12.541   0.650  1.00  0.00    -0.268 OA
BRANCH  24  27
HETATM   27  C   UNL     1      42.922 -12.528  -2.162  1.00  0.00     0.125 C 
BRANCH  27  28
HETATM   28  C   UNL     1      42.563 -11.185  -2.782  1.00  0.00     0.046 C 
BRANCH  28  29
HETATM   29  C   UNL     1      43.181 -10.030  -2.010  1.00  0.00     0.165 C 
BRANCH  29  30
HETATM   30  O   UNL     1      43.891 -10.529  -0.885  1.00  0.00    -0.401 OA
HETATM   31  H   UNL     1      44.382  -9.786  -0.493  1.00  0.00     0.209 HD
ENDBRANCH  29  30
ENDBRANCH  28  29
ENDBRANCH  27  28
ENDBRANCH  24  27
ENDBRANCH  18  23
ENDBRANCH   1  17
TORSDOF 10
ENDMDL
MODEL 8
REMARK VINA RESULT:      -7.1      3.133      5.680
REMARK  10 active torsions:
REMARK  status: ('A' for Active; 'I' for Inactive)
REMARK    1  A    between atoms: O_2  and  C_3 
REMARK    2  A    between atoms: C_4  and  C_5 
REMARK       I    between atoms: C_5  and  N_6 
REMARK    3  A    between atoms: N_6  and  C_7 
REMARK    4  A    between atoms: C_7  and  N_8 
REMARK    5  A    between atoms: N_8  and  C_9 
REMARK    6  A    between atoms: C_10  and  C_11 
REMARK       I    between atoms: C_11  and  N_12 
REMARK    7  A    between atoms: N_12  and  C_13 
REMARK    8  A    between atoms: C_13  and  C_14 
REMARK    9  A    between atoms: C_14  and  C_15 
REMARK   10  A    between atoms: C_15  and  O_16 
ROOT
HETATM    1  N   UNL     1      41.211 -15.158   4.251  1.00  0.00    -0.332 N 
HETATM    2  H   UNL     1      40.767 -16.072   4.315  1.00  0.00     0.168 HD
ENDROOT
BRANCH   1   3
HETATM    3  C   UNL     1      42.560 -15.204   4.210  1.00  0.00     0.179 C 
HETATM    4  S   UNL     1      43.414 -13.773   4.059  1.00  0.00    -0.040 SA
BRANCH   3   5
HETATM    5  N   UNL     1      43.247 -16.378   4.211  1.00  0.00    -0.299 N 
HETATM    6  C   UNL     1      42.750 -17.613   4.619  1.00  0.00     0.260 C 
HETATM    7  O   UNL     1      41.831 -17.772   5.417  1.00  0.00    -0.267 OA
HETATM    8  H   UNL     1      43.871 -16.443   3.413  1.00  0.00     0.171 HD
BRANCH   6   9
HETATM    9  C   UNL     1      43.427 -18.826   4.042  1.00  0.00     0.065 A 
HETATM   10  C   UNL     1      43.326 -19.217   2.689  1.00  0.00     0.084 A 
HETATM   11  C   UNL     1      43.969 -20.387   2.263  1.00  0.00     0.038 A 
HETATM   12  C   UNL     1      44.693 -21.170   3.166  1.00  0.00     0.003 A 
HETATM   13  C   UNL     1      44.788 -20.792   4.501  1.00  0.00     0.001 A 
HETATM   14  C   UNL     1      44.155 -19.628   4.936  1.00  0.00     0.020 A 
BRANCH  10  15
HETATM   15  O   UNL     1      42.599 -18.411   1.849  1.00  0.00    -0.355 OA
HETATM   16  C   UNL     1      43.313 -17.627   0.897  1.00  0.00     0.210 C 
ENDBRANCH  10  15
ENDBRANCH   6   9
ENDBRANCH   3   5
ENDBRANCH   1   3
BRANCH   1  17
HETATM   17  C   UNL     1      40.316 -14.093   3.972  1.00  0.00     0.050 A 
HETATM   18  C   UNL     1      39.944 -13.830   2.635  1.00  0.00     0.058 A 
HETATM   19  C   UNL     1      39.195 -12.688   2.318  1.00  0.00     0.019 A 
HETATM   20  C   UNL     1      38.784 -11.819   3.326  1.00  0.00     0.001 A 
HETATM   21  C   UNL     1      39.121 -12.087   4.650  1.00  0.00     0.002 A 
HETATM   22  C   UNL     1      39.885 -13.214   4.973  1.00  0.00     0.030 A 
BRANCH  18  23
HETATM   23  C   UNL     1      40.289 -14.745   1.510  1.00  0.00     0.253 C 
HETATM   24  N   UNL     1      40.866 -14.138   0.413  1.00  0.00    -0.357 N 
HETATM   25  H   UNL     1      41.228 -13.196   0.550  1.00  0.00     0.162 HD
HETATM   26  O   UNL     1      40.080 -15.949   1.595  1.00  0.00    -0.268 OA
BRANCH  24  27
HETATM   27  C   UNL     1      41.344 -14.899  -0.722  1.00  0.00     0.125 C 
BRANCH  27  28
HETATM   28  C   UNL     1      40.341 -14.843  -1.865  1.00  0.00     0.046 C 
BRANCH  28  29
HETATM   29  C   UNL     1      40.840 -15.600  -3.085  1.00  0.00     0.165 C 
BRANCH  29  30
HETATM   30  O   UNL     1      42.125 -15.117  -3.458  1.00  0.00    -0.401 OA
HETATM   31  H   UNL     1      42.035 -14.170  -3.662  1.00  0.00     0.209 HD
ENDBRANCH  29  30
ENDBRANCH  28  29
ENDBRANCH  27  28
ENDBRANCH  24  27
ENDBRANCH  18  23
ENDBRANCH   1  17
TORSDOF 10
ENDMDL
MODEL 9
REMARK VINA RESULT:      -7.0      3.708      4.944
REMARK  10 active torsions:
REMARK  status: ('A' for Active; 'I' for Inactive)
REMARK    1  A    between atoms: O_2  and  C_3 
REMARK    2  A    between atoms: C_4  and  C_5 
REMARK       I    between atoms: C_5  and  N_6 
REMARK    3  A    between atoms: N_6  and  C_7 
REMARK    4  A    between atoms: C_7  and  N_8 
REMARK    5  A    between atoms: N_8  and  C_9 
REMARK    6  A    between atoms: C_10  and  C_11 
REMARK       I    between atoms: C_11  and  N_12 
REMARK    7  A    between atoms: N_12  and  C_13 
REMARK    8  A    between atoms: C_13  and  C_14 
REMARK    9  A    between atoms: C_14  and  C_15 
REMARK   10  A    between atoms: C_15  and  O_16 
ROOT
HETATM    1  N   UNL     1      41.951 -15.809   0.158  1.00  0.00    -0.332 N 
HETATM    2  H   UNL     1      42.864 -15.442   0.415  1.00  0.00     0.168 HD
ENDROOT
BRANCH   1   3
HETATM    3  C   UNL     1      41.446 -16.695   1.043  1.00  0.00     0.179 C 
HETATM    4  S   UNL     1      40.075 -16.283   1.909  1.00  0.00    -0.040 SA
BRANCH   3   5
HETATM    5  N   UNL     1      42.055 -17.881   1.311  1.00  0.00    -0.299 N 
HETATM    6  C   UNL     1      43.418 -18.066   1.532  1.00  0.00     0.260 C 
HETATM    7  O   UNL     1      44.305 -17.332   1.107  1.00  0.00    -0.267 OA
HETATM    8  H   UNL     1      41.472 -18.474   1.894  1.00  0.00     0.171 HD
BRANCH   6   9
HETATM    9  C   UNL     1      43.803 -19.279   2.334  1.00  0.00     0.065 A 
HETATM   10  C   UNL     1      44.204 -19.235   3.687  1.00  0.00     0.084 A 
HETATM   11  C   UNL     1      44.578 -20.424   4.330  1.00  0.00     0.038 A 
HETATM   12  C   UNL     1      44.567 -21.639   3.642  1.00  0.00     0.003 A 
HETATM   13  C   UNL     1      44.180 -21.684   2.307  1.00  0.00     0.001 A 
HETATM   14  C   UNL     1      43.803 -20.510   1.656  1.00  0.00     0.020 A 
BRANCH  10  15
HETATM   15  O   UNL     1      44.199 -18.013   4.310  1.00  0.00    -0.355 OA
HETATM   16  C   UNL     1      44.100 -17.992   5.732  1.00  0.00     0.210 C 
ENDBRANCH  10  15
ENDBRANCH   6   9
ENDBRANCH   3   5
ENDBRANCH   1   3
BRANCH   1  17
HETATM   17  C   UNL     1      41.328 -15.125  -0.918  1.00  0.00     0.050 A 
HETATM   18  C   UNL     1      40.962 -13.770  -0.762  1.00  0.00     0.058 A 
HETATM   19  C   UNL     1      40.203 -13.121  -1.746  1.00  0.00     0.019 A 
HETATM   20  C   UNL     1      39.829 -13.802  -2.903  1.00  0.00     0.001 A 
HETATM   21  C   UNL     1      40.212 -15.129  -3.078  1.00  0.00     0.002 A 
HETATM   22  C   UNL     1      40.954 -15.790  -2.092  1.00  0.00     0.030 A 
BRANCH  18  23
HETATM   23  C   UNL     1      41.378 -12.956   0.416  1.00  0.00     0.253 C 
HETATM   24  N   UNL     1      40.400 -12.759   1.370  1.00  0.00    -0.357 N 
HETATM   25  H   UNL     1      39.586 -13.369   1.322  1.00  0.00     0.162 HD
HETATM   26  O   UNL     1      42.520 -12.524   0.507  1.00  0.00    -0.268 OA
BRANCH  24  27
HETATM   27  C   UNL     1      40.670 -12.072   2.615  1.00  0.00     0.125 C 
BRANCH  27  28
HETATM   28  C   UNL     1      41.081 -13.062   3.695  1.00  0.00     0.046 C 
BRANCH  28  29
HETATM   29  C   UNL     1      42.537 -12.882   4.095  1.00  0.00     0.165 C 
BRANCH  29  30
HETATM   30  O   UNL     1      43.380 -13.512   3.140  1.00  0.00    -0.401 OA
HETATM   31  H   UNL     1      44.301 -13.365   3.417  1.00  0.00     0.209 HD
ENDBRANCH  29  30
ENDBRANCH  28  29
ENDBRANCH  27  28
ENDBRANCH  24  27
ENDBRANCH  18  23
ENDBRANCH   1  17
TORSDOF 10
ENDMDL
MODEL 10
REMARK VINA RESULT:      -6.9      4.451      7.098
REMARK  10 active torsions:
REMARK  status: ('A' for Active; 'I' for Inactive)
REMARK    1  A    between atoms: O_2  and  C_3 
REMARK    2  A    between atoms: C_4  and  C_5 
REMARK       I    between atoms: C_5  and  N_6 
REMARK    3  A    between atoms: N_6  and  C_7 
REMARK    4  A    between atoms: C_7  and  N_8 
REMARK    5  A    between atoms: N_8  and  C_9 
REMARK    6  A    between atoms: C_10  and  C_11 
REMARK       I    between atoms: C_11  and  N_12 
REMARK    7  A    between atoms: N_12  and  C_13 
REMARK    8  A    between atoms: C_13  and  C_14 
REMARK    9  A    between atoms: C_14  and  C_15 
REMARK   10  A    between atoms: C_15  and  O_16 
ROOT
HETATM    1  N   UNL     1      40.388 -16.662   2.666  1.00  0.00    -0.332 N 
HETATM    2  H   UNL     1      39.766 -17.168   3.293  1.00  0.00     0.168 HD
ENDROOT
BRANCH   1   3
HETATM    3  C   UNL     1      39.980 -15.405   2.384  1.00  0.00     0.179 C 
HETATM    4  S   UNL     1      39.897 -14.283   3.623  1.00  0.00    -0.040 SA
BRANCH   3   5
HETATM    5  N   UNL     1      39.561 -15.039   1.143  1.00  0.00    -0.299 N 
HETATM    6  C   UNL     1      40.346 -14.437   0.163  1.00  0.00     0.260 C 
HETATM    7  O   UNL     1      41.349 -13.764   0.381  1.00  0.00    -0.267 OA
HETATM    8  H   UNL     1      38.892 -15.703   0.766  1.00  0.00     0.171 HD
BRANCH   6   9
HETATM    9  C   UNL     1      39.892 -14.620  -1.259  1.00  0.00     0.065 A 
HETATM   10  C   UNL     1      38.669 -14.128  -1.767  1.00  0.00     0.084 A 
HETATM   11  C   UNL     1      38.327 -14.387  -3.101  1.00  0.00     0.038 A 
HETATM   12  C   UNL     1      39.177 -15.133  -3.922  1.00  0.00     0.003 A 
HETATM   13  C   UNL     1      40.378 -15.625  -3.423  1.00  0.00     0.001 A 
HETATM   14  C   UNL     1      40.732 -15.372  -2.098  1.00  0.00     0.020 A 
BRANCH  10  15
HETATM   15  O   UNL     1      37.874 -13.406  -0.914  1.00  0.00    -0.355 OA
HETATM   16  C   UNL     1      37.713 -12.014  -1.173  1.00  0.00     0.210 C 
ENDBRANCH  10  15
ENDBRANCH   6   9
ENDBRANCH   3   5
ENDBRANCH   1   3
BRANCH   1  17
HETATM   17  C   UNL     1      41.638 -17.295   2.446  1.00  0.00     0.050 A 
HETATM   18  C   UNL     1      42.396 -17.741   3.550  1.00  0.00     0.058 A 
HETATM   19  C   UNL     1      43.701 -18.220   3.368  1.00  0.00     0.019 A 
HETATM   20  C   UNL     1      44.250 -18.289   2.089  1.00  0.00     0.001 A 
HETATM   21  C   UNL     1      43.497 -17.879   0.992  1.00  0.00     0.002 A 
HETATM   22  C   UNL     1      42.201 -17.381   1.166  1.00  0.00     0.030 A 
BRANCH  18  23
HETATM   23  C   UNL     1      41.857 -17.760   4.939  1.00  0.00     0.253 C 
HETATM   24  N   UNL     1      42.774 -17.471   5.931  1.00  0.00    -0.357 N 
HETATM   25  H   UNL     1      43.646 -17.037   5.633  1.00  0.00     0.162 HD
HETATM   26  O   UNL     1      40.675 -18.000   5.150  1.00  0.00    -0.268 OA
BRANCH  24  27
HETATM   27  C   UNL     1      42.389 -17.356   7.321  1.00  0.00     0.125 C 
BRANCH  27  28
HETATM   28  C   UNL     1      43.618 -17.193   8.204  1.00  0.00     0.046 C 
BRANCH  28  29
HETATM   29  C   UNL     1      44.235 -18.538   8.556  1.00  0.00     0.165 C 
BRANCH  29  30
HETATM   30  O   UNL     1      43.553 -19.576   7.865  1.00  0.00    -0.401 OA
HETATM   31  H   UNL     1      42.870 -19.161   7.310  1.00  0.00     0.209 HD
ENDBRANCH  29  30
ENDBRANCH  28  29
ENDBRANCH  27  28
ENDBRANCH  24  27
ENDBRANCH  18  23
ENDBRANCH   1  17
TORSDOF 10
ENDMDL
