MODEL 1
REMARK VINA RESULT:      -8.0      0.000      0.000
REMARK  7 active torsions:
REMARK  status: ('A' for Active; 'I' for Inactive)
REMARK    1  A    between atoms: N_6  and  C_7 
REMARK    2  A    between atoms: C_11  and  N_12 
REMARK    3  A    between atoms: N_12  and  C_13 
REMARK    4  A    between atoms: C_13  and  N_14 
REMARK       I    between atoms: N_14  and  C_15 
REMARK    5  A    between atoms: C_15  and  C_16 
REMARK    6  A    between atoms: C_17  and  C_18 
REMARK    7  A    between atoms: C_20  and  C_21 
ROOT
HETATM    1  C   UNL     1      43.755 -14.907   6.360  1.00  0.00     0.179 C 
HETATM    2  S   UNL     1      44.988 -13.920   6.904  1.00  0.00    -0.040 SA
ENDROOT
BRANCH   1   3
HETATM    3  N   UNL     1      43.502 -14.845   5.015  1.00  0.00    -0.333 N 
HETATM    4  H   UNL     1      44.360 -14.970   4.480  1.00  0.00     0.168 HD
BRANCH   3   5
HETATM    5  C   UNL     1      42.362 -14.523   4.252  1.00  0.00     0.036 A 
HETATM    6  C   UNL     1      42.589 -13.793   3.083  1.00  0.00     0.055 A 
HETATM    7  C   UNL     1      41.523 -13.344   2.295  1.00  0.00     0.062 A 
HETATM    8  C   UNL     1      40.181 -13.618   2.638  1.00  0.00     0.052 A 
HETATM    9 CL   UNL     1      41.931 -12.321   0.950  1.00  0.00    -0.082 Cl
HETATM   10  C   UNL     1      39.976 -14.361   3.811  1.00  0.00     0.033 A 
HETATM   11  C   UNL     1      41.045 -14.798   4.614  1.00  0.00     0.032 A 
BRANCH   8  12
HETATM   12  N   UNL     1      39.112 -13.120   1.896  1.00  0.00    -0.376 N 
HETATM   13  C   UNL     1      38.256 -14.082   1.181  1.00  0.00     0.150 C 
HETATM   14  C   UNL     1      37.747 -13.421  -0.118  1.00  0.00     0.254 C 
HETATM   15  N   UNL     1      37.030 -12.099   0.194  1.00  0.00    -0.072 N 
HETATM   16  C   UNL     1      36.557 -11.423  -1.059  1.00  0.00     0.269 C 
HETATM   17  H   UNL     1      36.205 -12.330   0.760  1.00  0.00     0.279 HD
HETATM   18  C   UNL     1      37.908 -11.165   1.035  1.00  0.00     0.254 C 
HETATM   19  C   UNL     1      38.439 -11.879   2.299  1.00  0.00     0.150 C 
ENDBRANCH   8  12
ENDBRANCH   3   5
ENDBRANCH   1   3
BRANCH   1  20
HETATM   20  N   UNL     1      43.015 -15.816   7.093  1.00  0.00    -0.300 N 
HETATM   21  C   UNL     1      43.164 -17.131   7.507  1.00  0.00     0.247 C 
HETATM   22  O   UNL     1      42.156 -17.814   7.673  1.00  0.00    -0.268 OA
HETATM   23  H   UNL     1      42.024 -15.623   7.041  1.00  0.00     0.171 HD
BRANCH  21  24
HETATM   24  C   UNL     1      44.524 -17.679   7.714  1.00  0.00     0.077 C 
HETATM   25  C   UNL     1      45.234 -18.346   6.791  1.00  0.00     0.042 C 
BRANCH  25  26
HETATM   26  C   UNL     1      44.733 -18.724   5.521  1.00  0.00     0.076 A 
HETATM   27  O   UNL     1      44.071 -17.871   4.666  1.00  0.00    -0.310 OA
HETATM   28  C   UNL     1      43.718 -18.569   3.548  1.00  0.00     0.086 A 
HETATM   29  C   UNL     1      44.141 -19.874   3.661  1.00  0.00     0.041 A 
HETATM   30  C   UNL     1      44.761 -19.979   4.927  1.00  0.00     0.040 A 
BRANCH  28  31
HETATM   31  C   UNL     1      43.007 -17.824   2.521  1.00  0.00    -0.002 A 
HETATM   32  C   UNL     1      43.713 -17.140   1.521  1.00  0.00     0.016 A 
HETATM   33  C   UNL     1      43.033 -16.438   0.521  1.00  0.00     0.024 A 
HETATM   34  C   UNL     1      41.640 -16.427   0.510  1.00  0.00     0.034 A 
HETATM   35 CL   UNL     1      40.798 -15.556  -0.712  1.00  0.00    -0.084 Cl
HETATM   36  C   UNL     1      40.922 -17.110   1.488  1.00  0.00     0.024 A 
HETATM   37  C   UNL     1      41.604 -17.801   2.494  1.00  0.00     0.016 A 
ENDBRANCH  28  31
ENDBRANCH  25  26
ENDBRANCH  21  24
ENDBRANCH   1  20
TORSDOF 7
ENDMDL
MODEL 2
REMARK VINA RESULT:      -7.9      3.178      5.046
REMARK  7 active torsions:
REMARK  status: ('A' for Active; 'I' for Inactive)
REMARK    1  A    between atoms: N_6  and  C_7 
REMARK    2  A    between atoms: C_11  and  N_12 
REMARK    3  A    between atoms: N_12  and  C_13 
REMARK    4  A    between atoms: C_13  and  N_14 
REMARK       I    between atoms: N_14  and  C_15 
REMARK    5  A    between atoms: C_15  and  C_16 
REMARK    6  A    between atoms: C_17  and  C_18 
REMARK    7  A    between atoms: C_20  and  C_21 
ROOT
HETATM    1  C   UNL     1      41.521 -12.369   3.649  1.00  0.00     0.179 C 
HETATM    2  S   UNL     1      41.082 -10.991   4.485  1.00  0.00    -0.040 SA
ENDROOT
BRANCH   1   3
HETATM    3  N   UNL     1      41.850 -12.179   2.333  1.00  0.00    -0.333 N 
HETATM    4  H   UNL     1      42.744 -11.698   2.249  1.00  0.00     0.168 HD
BRANCH   3   5
HETATM    5  C   UNL     1      41.165 -12.386   1.119  1.00  0.00     0.036 A 
HETATM    6  C   UNL     1      39.778 -12.225   1.158  1.00  0.00     0.055 A 
HETATM    7  C   UNL     1      38.989 -12.491   0.032  1.00  0.00     0.062 A 
HETATM    8  C   UNL     1      39.559 -12.919  -1.188  1.00  0.00     0.052 A 
HETATM    9 CL   UNL     1      37.268 -12.398   0.253  1.00  0.00    -0.082 Cl
HETATM   10  C   UNL     1      40.954 -13.064  -1.207  1.00  0.00     0.033 A 
HETATM   11  C   UNL     1      41.747 -12.814  -0.073  1.00  0.00     0.032 A 
BRANCH   8  12
HETATM   12  N   UNL     1      38.777 -13.249  -2.293  1.00  0.00    -0.376 N 
HETATM   13  C   UNL     1      38.402 -12.171  -3.224  1.00  0.00     0.150 C 
HETATM   14  C   UNL     1      37.007 -12.482  -3.806  1.00  0.00     0.254 C 
HETATM   15  N   UNL     1      36.992 -13.871  -4.461  1.00  0.00    -0.072 N 
HETATM   16  C   UNL     1      35.635 -14.208  -5.003  1.00  0.00     0.269 C 
HETATM   17  H   UNL     1      37.650 -13.839  -5.250  1.00  0.00     0.279 HD
HETATM   18  C   UNL     1      37.493 -14.955  -3.499  1.00  0.00     0.254 C 
HETATM   19  C   UNL     1      38.869 -14.582  -2.900  1.00  0.00     0.150 C 
ENDBRANCH   8  12
ENDBRANCH   3   5
ENDBRANCH   1   3
BRANCH   1  20
HETATM   20  N   UNL     1      41.652 -13.652   4.147  1.00  0.00    -0.300 N 
HETATM   21  C   UNL     1      40.879 -14.803   4.171  1.00  0.00     0.247 C 
HETATM   22  O   UNL     1      41.018 -15.586   5.109  1.00  0.00    -0.268 OA
HETATM   23  H   UNL     1      42.273 -13.685   4.944  1.00  0.00     0.171 HD
BRANCH  21  24
HETATM   24  C   UNL     1      39.900 -15.045   3.088  1.00  0.00     0.077 C 
HETATM   25  C   UNL     1      40.073 -15.906   2.073  1.00  0.00     0.042 C 
BRANCH  25  26
HETATM   26  C   UNL     1      41.271 -16.621   1.830  1.00  0.00     0.076 A 
HETATM   27  O   UNL     1      41.733 -17.648   2.623  1.00  0.00    -0.310 OA
HETATM   28  C   UNL     1      42.915 -18.092   2.108  1.00  0.00     0.086 A 
HETATM   29  C   UNL     1      43.236 -17.366   0.983  1.00  0.00     0.041 A 
HETATM   30  C   UNL     1      42.205 -16.412   0.823  1.00  0.00     0.040 A 
BRANCH  28  31
HETATM   31  C   UNL     1      43.556 -19.189   2.817  1.00  0.00    -0.002 A 
HETATM   32  C   UNL     1      43.932 -19.043   4.160  1.00  0.00     0.016 A 
HETATM   33  C   UNL     1      44.533 -20.100   4.851  1.00  0.00     0.024 A 
HETATM   34  C   UNL     1      44.750 -21.314   4.203  1.00  0.00     0.034 A 
HETATM   35 CL   UNL     1      45.498 -22.615   5.045  1.00  0.00    -0.084 Cl
HETATM   36  C   UNL     1      44.373 -21.481   2.873  1.00  0.00     0.024 A 
HETATM   37  C   UNL     1      43.784 -20.418   2.181  1.00  0.00     0.016 A 
ENDBRANCH  28  31
ENDBRANCH  25  26
ENDBRANCH  21  24
ENDBRANCH   1  20
TORSDOF 7
ENDMDL
MODEL 3
REMARK VINA RESULT:      -7.8      3.091      4.940
REMARK  7 active torsions:
REMARK  status: ('A' for Active; 'I' for Inactive)
REMARK    1  A    between atoms: N_6  and  C_7 
REMARK    2  A    between atoms: C_11  and  N_12 
REMARK    3  A    between atoms: N_12  and  C_13 
REMARK    4  A    between atoms: C_13  and  N_14 
REMARK       I    between atoms: N_14  and  C_15 
REMARK    5  A    between atoms: C_15  and  C_16 
REMARK    6  A    between atoms: C_17  and  C_18 
REMARK    7  A    between atoms: C_20  and  C_21 
ROOT
HETATM    1  C   UNL     1      41.430 -15.112   2.326  1.00  0.00     0.179 C 
HETATM    2  S   UNL     1      40.619 -16.558   2.529  1.00  0.00    -0.040 SA
ENDROOT
BRANCH   1   3
HETATM    3  N   UNL     1      40.703 -14.107   1.744  1.00  0.00    -0.333 N 
HETATM    4  H   UNL     1      40.703 -13.274   2.331  1.00  0.00     0.168 HD
BRANCH   3   5
HETATM    5  C   UNL     1      39.877 -14.036   0.605  1.00  0.00     0.036 A 
HETATM    6  C   UNL     1      40.502 -14.258  -0.625  1.00  0.00     0.055 A 
HETATM    7  C   UNL     1      39.796 -14.127  -1.827  1.00  0.00     0.062 A 
HETATM    8  C   UNL     1      38.427 -13.780  -1.848  1.00  0.00     0.052 A 
HETATM    9 CL   UNL     1      40.721 -14.281  -3.290  1.00  0.00    -0.082 Cl
HETATM   10  C   UNL     1      37.817 -13.572  -0.601  1.00  0.00     0.033 A 
HETATM   11  C   UNL     1      38.528 -13.686   0.607  1.00  0.00     0.032 A 
BRANCH   8  12
HETATM   12  N   UNL     1      37.733 -13.583  -3.040  1.00  0.00    -0.376 N 
HETATM   13  C   UNL     1      37.895 -12.292  -3.730  1.00  0.00     0.150 C 
HETATM   14  C   UNL     1      36.571 -11.941  -4.443  1.00  0.00     0.254 C 
HETATM   15  N   UNL     1      36.149 -13.077  -5.387  1.00  0.00    -0.072 N 
HETATM   16  C   UNL     1      34.846 -12.771  -6.065  1.00  0.00     0.269 C 
HETATM   17  H   UNL     1      36.873 -13.150  -6.112  1.00  0.00     0.279 HD
HETATM   18  C   UNL     1      36.098 -14.426  -4.661  1.00  0.00     0.254 C 
HETATM   19  C   UNL     1      37.423 -14.716  -3.919  1.00  0.00     0.150 C 
ENDBRANCH   8  12
ENDBRANCH   3   5
ENDBRANCH   1   3
BRANCH   1  20
HETATM   20  N   UNL     1      42.713 -14.799   2.733  1.00  0.00    -0.300 N 
HETATM   21  C   UNL     1      43.290 -14.021   3.725  1.00  0.00     0.247 C 
HETATM   22  O   UNL     1      44.396 -13.526   3.517  1.00  0.00    -0.268 OA
HETATM   23  H   UNL     1      43.375 -14.862   1.971  1.00  0.00     0.171 HD
BRANCH  21  24
HETATM   24  C   UNL     1      42.556 -13.792   4.990  1.00  0.00     0.077 C 
HETATM   25  C   UNL     1      42.589 -14.605   6.057  1.00  0.00     0.042 C 
BRANCH  25  26
HETATM   26  C   UNL     1      43.242 -15.863   6.081  1.00  0.00     0.076 A 
HETATM   27  O   UNL     1      43.217 -16.767   5.041  1.00  0.00    -0.310 OA
HETATM   28  C   UNL     1      43.930 -17.868   5.411  1.00  0.00     0.086 A 
HETATM   29  C   UNL     1      44.424 -17.698   6.685  1.00  0.00     0.041 A 
HETATM   30  C   UNL     1      43.963 -16.435   7.120  1.00  0.00     0.040 A 
BRANCH  28  31
HETATM   31  C   UNL     1      44.019 -18.938   4.430  1.00  0.00    -0.002 A 
HETATM   32  C   UNL     1      43.428 -18.796   3.167  1.00  0.00     0.016 A 
HETATM   33  C   UNL     1      43.526 -19.815   2.214  1.00  0.00     0.024 A 
HETATM   34  C   UNL     1      44.227 -20.979   2.518  1.00  0.00     0.034 A 
HETATM   35 CL   UNL     1      44.342 -22.240   1.353  1.00  0.00    -0.084 Cl
HETATM   36  C   UNL     1      44.830 -21.134   3.763  1.00  0.00     0.024 A 
HETATM   37  C   UNL     1      44.720 -20.119   4.718  1.00  0.00     0.016 A 
ENDBRANCH  28  31
ENDBRANCH  25  26
ENDBRANCH  21  24
ENDBRANCH   1  20
TORSDOF 7
ENDMDL
MODEL 4
REMARK VINA RESULT:      -7.7      5.400      7.624
REMARK  7 active torsions:
REMARK  status: ('A' for Active; 'I' for Inactive)
REMARK    1  A    between atoms: N_6  and  C_7 
REMARK    2  A    between atoms: C_11  and  N_12 
REMARK    3  A    between atoms: N_12  and  C_13 
REMARK    4  A    between atoms: C_13  and  N_14 
REMARK       I    between atoms: N_14  and  C_15 
REMARK    5  A    between atoms: C_15  and  C_16 
REMARK    6  A    between atoms: C_17  and  C_18 
REMARK    7  A    between atoms: C_20  and  C_21 
ROOT
HETATM    1  C   UNL     1      41.264 -13.058   5.443  1.00  0.00     0.179 C 
HETATM    2  S   UNL     1      39.818 -13.771   5.879  1.00  0.00    -0.040 SA
ENDROOT
BRANCH   1   3
HETATM    3  N   UNL     1      41.497 -11.821   5.985  1.00  0.00    -0.333 N 
HETATM    4  H   UNL     1      41.968 -11.216   5.315  1.00  0.00     0.168 HD
BRANCH   3   5
HETATM    5  C   UNL     1      41.344 -11.280   7.277  1.00  0.00     0.036 A 
HETATM    6  C   UNL     1      42.516 -11.119   8.020  1.00  0.00     0.055 A 
HETATM    7  C   UNL     1      42.473 -10.673   9.347  1.00  0.00     0.062 A 
HETATM    8  C   UNL     1      41.252 -10.354   9.982  1.00  0.00     0.052 A 
HETATM    9 CL   UNL     1      43.982 -10.658  10.209  1.00  0.00    -0.082 Cl
HETATM   10  C   UNL     1      40.089 -10.513   9.213  1.00  0.00     0.033 A 
HETATM   11  C   UNL     1      40.128 -10.979   7.887  1.00  0.00     0.032 A 
BRANCH   8  12
HETATM   12  N   UNL     1      41.193  -9.972  11.321  1.00  0.00    -0.376 N 
HETATM   13  C   UNL     1      41.031  -8.540  11.626  1.00  0.00     0.150 C 
HETATM   14  C   UNL     1      41.775  -8.227  12.942  1.00  0.00     0.254 C 
HETATM   15  N   UNL     1      41.281  -9.141  14.073  1.00  0.00    -0.072 N 
HETATM   16  C   UNL     1      42.016  -8.876  15.353  1.00  0.00     0.269 C 
HETATM   17  H   UNL     1      40.289  -8.921  14.226  1.00  0.00     0.279 HD
HETATM   18  C   UNL     1      41.360 -10.621  13.679  1.00  0.00     0.254 C 
HETATM   19  C   UNL     1      40.647 -10.883  12.333  1.00  0.00     0.150 C 
ENDBRANCH   8  12
ENDBRANCH   3   5
ENDBRANCH   1   3
BRANCH   1  20
HETATM   20  N   UNL     1      42.267 -13.595   4.659  1.00  0.00    -0.300 N 
HETATM   21  C   UNL     1      43.649 -13.692   4.724  1.00  0.00     0.247 C 
HETATM   22  O   UNL     1      44.286 -13.741   3.674  1.00  0.00    -0.268 OA
HETATM   23  H   UNL     1      42.005 -13.629   3.683  1.00  0.00     0.171 HD
BRANCH  21  24
HETATM   24  C   UNL     1      44.316 -13.713   6.046  1.00  0.00     0.077 C 
HETATM   25  C   UNL     1      44.431 -14.793   6.833  1.00  0.00     0.042 C 
BRANCH  25  26
HETATM   26  C   UNL     1      43.826 -16.045   6.561  1.00  0.00     0.076 A 
HETATM   27  O   UNL     1      44.181 -16.864   5.511  1.00  0.00    -0.310 OA
HETATM   28  C   UNL     1      43.387 -17.972   5.541  1.00  0.00     0.086 A 
HETATM   29  C   UNL     1      42.511 -17.889   6.600  1.00  0.00     0.041 A 
HETATM   30  C   UNL     1      42.772 -16.651   7.231  1.00  0.00     0.040 A 
BRANCH  28  31
HETATM   31  C   UNL     1      43.621 -18.962   4.502  1.00  0.00    -0.002 A 
HETATM   32  C   UNL     1      43.055 -18.804   3.229  1.00  0.00     0.016 A 
HETATM   33  C   UNL     1      43.292 -19.743   2.220  1.00  0.00     0.024 A 
HETATM   34  C   UNL     1      44.108 -20.842   2.479  1.00  0.00     0.034 A 
HETATM   35 CL   UNL     1      44.395 -22.007   1.245  1.00  0.00    -0.084 Cl
HETATM   36  C   UNL     1      44.689 -21.010   3.734  1.00  0.00     0.024 A 
HETATM   37  C   UNL     1      44.440 -20.075   4.743  1.00  0.00     0.016 A 
ENDBRANCH  28  31
ENDBRANCH  25  26
ENDBRANCH  21  24
ENDBRANCH   1  20
TORSDOF 7
ENDMDL
MODEL 5
REMARK VINA RESULT:      -7.5      2.901      4.160
REMARK  7 active torsions:
REMARK  status: ('A' for Active; 'I' for Inactive)
REMARK    1  A    between atoms: N_6  and  C_7 
REMARK    2  A    between atoms: C_11  and  N_12 
REMARK    3  A    between atoms: N_12  and  C_13 
REMARK    4  A    between atoms: C_13  and  N_14 
REMARK       I    between atoms: N_14  and  C_15 
REMARK    5  A    between atoms: C_15  and  C_16 
REMARK    6  A    between atoms: C_17  and  C_18 
REMARK    7  A    between atoms: C_20  and  C_21 
ROOT
HETATM    1  C   UNL     1      40.209 -14.120   5.534  1.00  0.00     0.179 C 
HETATM    2  S   UNL     1      39.431 -12.713   5.987  1.00  0.00    -0.040 SA
ENDROOT
BRANCH   1   3
HETATM    3  N   UNL     1      39.723 -14.723   4.403  1.00  0.00    -0.333 N 
HETATM    4  H   UNL     1      39.367 -15.653   4.614  1.00  0.00     0.168 HD
BRANCH   3   5
HETATM    5  C   UNL     1      39.739 -14.383   3.036  1.00  0.00     0.036 A 
HETATM    6  C   UNL     1      40.227 -13.112   2.722  1.00  0.00     0.055 A 
HETATM    7  C   UNL     1      40.207 -12.636   1.406  1.00  0.00     0.062 A 
HETATM    8  C   UNL     1      39.708 -13.421   0.342  1.00  0.00     0.052 A 
HETATM    9 CL   UNL     1      40.702 -10.987   1.170  1.00  0.00    -0.082 Cl
HETATM   10  C   UNL     1      39.232 -14.698   0.678  1.00  0.00     0.033 A 
HETATM   11  C   UNL     1      39.235 -15.171   2.003  1.00  0.00     0.032 A 
BRANCH   8  12
HETATM   12  N   UNL     1      39.623 -12.932  -0.960  1.00  0.00    -0.376 N 
HETATM   13  C   UNL     1      40.171 -13.760  -2.048  1.00  0.00     0.150 C 
HETATM   14  C   UNL     1      40.729 -12.829  -3.146  1.00  0.00     0.254 C 
HETATM   15  N   UNL     1      39.646 -11.850  -3.625  1.00  0.00    -0.072 N 
HETATM   16  C   UNL     1      40.177 -10.913  -4.669  1.00  0.00     0.269 C 
HETATM   17  H   UNL     1      38.901 -12.412  -4.054  1.00  0.00     0.279 HD
HETATM   18  C   UNL     1      39.019 -11.084  -2.454  1.00  0.00     0.254 C 
HETATM   19  C   UNL     1      38.519 -12.050  -1.355  1.00  0.00     0.150 C 
ENDBRANCH   8  12
ENDBRANCH   3   5
ENDBRANCH   1   3
BRANCH   1  20
HETATM   20  N   UNL     1      41.314 -14.702   6.127  1.00  0.00    -0.300 N 
HETATM   21  C   UNL     1      42.659 -14.843   5.821  1.00  0.00     0.247 C 
HETATM   22  O   UNL     1      43.260 -15.827   6.247  1.00  0.00    -0.268 OA
HETATM   23  H   UNL     1      41.056 -15.471   6.730  1.00  0.00     0.171 HD
BRANCH  21  24
HETATM   24  C   UNL     1      43.325 -13.823   4.979  1.00  0.00     0.077 C 
HETATM   25  C   UNL     1      43.605 -13.966   3.675  1.00  0.00     0.042 C 
BRANCH  25  26
HETATM   26  C   UNL     1      43.409 -15.164   2.944  1.00  0.00     0.076 A 
HETATM   27  O   UNL     1      43.798 -16.410   3.384  1.00  0.00    -0.310 OA
HETATM   28  C   UNL     1      43.471 -17.326   2.427  1.00  0.00     0.086 A 
HETATM   29  C   UNL     1      42.873 -16.693   1.361  1.00  0.00     0.041 A 
HETATM   30  C   UNL     1      42.859 -15.315   1.678  1.00  0.00     0.040 A 
BRANCH  28  31
HETATM   31  C   UNL     1      43.804 -18.711   2.720  1.00  0.00    -0.002 A 
HETATM   32  C   UNL     1      44.365 -19.061   3.956  1.00  0.00     0.016 A 
HETATM   33  C   UNL     1      44.671 -20.395   4.249  1.00  0.00     0.024 A 
HETATM   34  C   UNL     1      44.404 -21.387   3.308  1.00  0.00     0.034 A 
HETATM   35 CL   UNL     1      44.788 -23.027   3.658  1.00  0.00    -0.084 Cl
HETATM   36  C   UNL     1      43.837 -21.059   2.079  1.00  0.00     0.024 A 
HETATM   37  C   UNL     1      43.544 -19.724   1.785  1.00  0.00     0.016 A 
ENDBRANCH  28  31
ENDBRANCH  25  26
ENDBRANCH  21  24
ENDBRANCH   1  20
TORSDOF 7
ENDMDL
MODEL 6
REMARK VINA RESULT:      -7.4      4.152      5.637
REMARK  7 active torsions:
REMARK  status: ('A' for Active; 'I' for Inactive)
REMARK    1  A    between atoms: N_6  and  C_7 
REMARK    2  A    between atoms: C_11  and  N_12 
REMARK    3  A    between atoms: N_12  and  C_13 
REMARK    4  A    between atoms: C_13  and  N_14 
REMARK       I    between atoms: N_14  and  C_15 
REMARK    5  A    between atoms: C_15  and  C_16 
REMARK    6  A    between atoms: C_17  and  C_18 
REMARK    7  A    between atoms: C_20  and  C_21 
ROOT
HETATM    1  C   UNL     1      39.729 -15.506   2.021  1.00  0.00     0.179 C 
HETATM    2  S   UNL     1      40.398 -17.025   1.844  1.00  0.00    -0.040 SA
ENDROOT
BRANCH   1   3
HETATM    3  N   UNL     1      39.395 -14.871   0.854  1.00  0.00    -0.333 N 
HETATM    4  H   UNL     1      38.522 -15.239   0.479  1.00  0.00     0.168 HD
BRANCH   3   5
HETATM    5  C   UNL     1      40.055 -13.940   0.028  1.00  0.00     0.036 A 
HETATM    6  C   UNL     1      39.237 -13.091  -0.722  1.00  0.00     0.055 A 
HETATM    7  C   UNL     1      39.784 -12.187  -1.640  1.00  0.00     0.062 A 
HETATM    8  C   UNL     1      41.179 -12.085  -1.838  1.00  0.00     0.052 A 
HETATM    9 CL   UNL     1      38.656 -11.296  -2.617  1.00  0.00    -0.082 Cl
HETATM   10  C   UNL     1      41.982 -12.940  -1.068  1.00  0.00     0.033 A 
HETATM   11  C   UNL     1      41.434 -13.861  -0.157  1.00  0.00     0.032 A 
BRANCH   8  12
HETATM   12  N   UNL     1      41.729 -11.236  -2.796  1.00  0.00    -0.376 N 
HETATM   13  C   UNL     1      42.479 -10.058  -2.330  1.00  0.00     0.150 C 
HETATM   14  C   UNL     1      42.282  -8.911  -3.344  1.00  0.00     0.254 C 
HETATM   15  N   UNL     1      42.692  -9.362  -4.754  1.00  0.00    -0.072 N 
HETATM   16  C   UNL     1      42.476  -8.272  -5.763  1.00  0.00     0.269 C 
HETATM   17  H   UNL     1      43.697  -9.570  -4.723  1.00  0.00     0.279 HD
HETATM   18  C   UNL     1      41.975 -10.653  -5.165  1.00  0.00     0.254 C 
HETATM   19  C   UNL     1      42.155 -11.759  -4.100  1.00  0.00     0.150 C 
ENDBRANCH   8  12
ENDBRANCH   3   5
ENDBRANCH   1   3
BRANCH   1  20
HETATM   20  N   UNL     1      39.418 -14.852   3.198  1.00  0.00    -0.300 N 
HETATM   21  C   UNL     1      40.093 -14.064   4.119  1.00  0.00     0.247 C 
HETATM   22  O   UNL     1      39.718 -14.074   5.289  1.00  0.00    -0.268 OA
HETATM   23  H   UNL     1      38.649 -15.295   3.683  1.00  0.00     0.171 HD
BRANCH  21  24
HETATM   24  C   UNL     1      41.251 -13.256   3.674  1.00  0.00     0.077 C 
HETATM   25  C   UNL     1      42.530 -13.658   3.713  1.00  0.00     0.042 C 
BRANCH  25  26
HETATM   26  C   UNL     1      42.967 -14.873   4.298  1.00  0.00     0.076 A 
HETATM   27  O   UNL     1      43.161 -16.043   3.596  1.00  0.00    -0.310 OA
HETATM   28  C   UNL     1      43.562 -17.009   4.471  1.00  0.00     0.086 A 
HETATM   29  C   UNL     1      43.632 -16.486   5.743  1.00  0.00     0.041 A 
HETATM   30  C   UNL     1      43.227 -15.136   5.636  1.00  0.00     0.040 A 
BRANCH  28  31
HETATM   31  C   UNL     1      43.822 -18.323   3.906  1.00  0.00    -0.002 A 
HETATM   32  C   UNL     1      43.443 -18.618   2.589  1.00  0.00     0.016 A 
HETATM   33  C   UNL     1      43.707 -19.875   2.034  1.00  0.00     0.024 A 
HETATM   34  C   UNL     1      44.363 -20.841   2.795  1.00  0.00     0.034 A 
HETATM   35 CL   UNL     1      44.681 -22.392   2.122  1.00  0.00    -0.084 Cl
HETATM   36  C   UNL     1      44.757 -20.562   4.101  1.00  0.00     0.024 A 
HETATM   37  C   UNL     1      44.481 -19.309   4.656  1.00  0.00     0.016 A 
ENDBRANCH  28  31
ENDBRANCH  25  26
ENDBRANCH  21  24
ENDBRANCH   1  20
TORSDOF 7
ENDMDL
MODEL 7
REMARK VINA RESULT:      -7.3      5.977      8.506
REMARK  7 active torsions:
REMARK  status: ('A' for Active; 'I' for Inactive)
REMARK    1  A    between atoms: N_6  and  C_7 
REMARK    2  A    between atoms: C_11  and  N_12 
REMARK    3  A    between atoms: N_12  and  C_13 
REMARK    4  A    between atoms: C_13  and  N_14 
REMARK       I    between atoms: N_14  and  C_15 
REMARK    5  A    between atoms: C_15  and  C_16 
REMARK    6  A    between atoms: C_17  and  C_18 
REMARK    7  A    between atoms: C_20  and  C_21 
ROOT
HETATM    1  C   UNL     1      43.561 -13.227   7.074  1.00  0.00     0.179 C 
HETATM    2  S   UNL     1      45.151 -13.637   7.376  1.00  0.00    -0.040 SA
ENDROOT
BRANCH   1   3
HETATM    3  N   UNL     1      43.177 -11.991   7.523  1.00  0.00    -0.333 N 
HETATM    4  H   UNL     1      42.986 -11.366   6.741  1.00  0.00     0.168 HD
BRANCH   3   5
HETATM    5  C   UNL     1      43.122 -11.391   8.796  1.00  0.00     0.036 A 
HETATM    6  C   UNL     1      41.869 -10.929   9.207  1.00  0.00     0.055 A 
HETATM    7  C   UNL     1      41.715 -10.239  10.415  1.00  0.00     0.062 A 
HETATM    8  C   UNL     1      42.811  -9.993  11.273  1.00  0.00     0.052 A 
HETATM    9 CL   UNL     1      40.137  -9.587  10.740  1.00  0.00    -0.082 Cl
HETATM   10  C   UNL     1      44.058 -10.474  10.845  1.00  0.00     0.033 A 
HETATM   11  C   UNL     1      44.218 -11.152   9.624  1.00  0.00     0.032 A 
BRANCH   8  12
HETATM   12  N   UNL     1      42.680  -9.250  12.444  1.00  0.00    -0.376 N 
HETATM   13  C   UNL     1      43.255  -9.802  13.683  1.00  0.00     0.150 C 
HETATM   14  C   UNL     1      42.378  -9.365  14.875  1.00  0.00     0.254 C 
HETATM   15  N   UNL     1      42.238  -7.835  14.909  1.00  0.00    -0.072 N 
HETATM   16  C   UNL     1      41.360  -7.390  16.042  1.00  0.00     0.269 C 
HETATM   17  H   UNL     1      43.177  -7.451  15.067  1.00  0.00     0.279 HD
HETATM   18  C   UNL     1      41.741  -7.283  13.568  1.00  0.00     0.254 C 
HETATM   19  C   UNL     1      42.616  -7.785  12.395  1.00  0.00     0.150 C 
ENDBRANCH   8  12
ENDBRANCH   3   5
ENDBRANCH   1   3
BRANCH   1  20
HETATM   20  N   UNL     1      42.618 -13.958   6.375  1.00  0.00    -0.300 N 
HETATM   21  C   UNL     1      42.025 -13.894   5.123  1.00  0.00     0.247 C 
HETATM   22  O   UNL     1      40.885 -14.332   4.988  1.00  0.00    -0.268 OA
HETATM   23  H   UNL     1      41.973 -14.431   6.994  1.00  0.00     0.171 HD
BRANCH  21  24
HETATM   24  C   UNL     1      42.768 -13.286   3.996  1.00  0.00     0.077 C 
HETATM   25  C   UNL     1      43.086 -13.915   2.855  1.00  0.00     0.042 C 
BRANCH  25  26
HETATM   26  C   UNL     1      42.857 -15.292   2.613  1.00  0.00     0.076 A 
HETATM   27  O   UNL     1      43.518 -16.311   3.264  1.00  0.00    -0.310 OA
HETATM   28  C   UNL     1      43.063 -17.501   2.775  1.00  0.00     0.086 A 
HETATM   29  C   UNL     1      42.111 -17.273   1.807  1.00  0.00     0.041 A 
HETATM   30  C   UNL     1      42.000 -15.869   1.686  1.00  0.00     0.040 A 
BRANCH  28  31
HETATM   31  C   UNL     1      43.649 -18.701   3.351  1.00  0.00    -0.002 A 
HETATM   32  C   UNL     1      43.902 -18.778   4.728  1.00  0.00     0.016 A 
HETATM   33  C   UNL     1      44.448 -19.937   5.289  1.00  0.00     0.024 A 
HETATM   34  C   UNL     1      44.735 -21.030   4.474  1.00  0.00     0.034 A 
HETATM   35 CL   UNL     1      45.417 -22.454   5.158  1.00  0.00    -0.084 Cl
HETATM   36  C   UNL     1      44.480 -20.975   3.106  1.00  0.00     0.024 A 
HETATM   37  C   UNL     1      43.945 -19.811   2.547  1.00  0.00     0.016 A 
ENDBRANCH  28  31
ENDBRANCH  25  26
ENDBRANCH  21  24
ENDBRANCH   1  20
TORSDOF 7
ENDMDL
MODEL 8
REMARK VINA RESULT:      -7.3      3.326      7.680
REMARK  7 active torsions:
REMARK  status: ('A' for Active; 'I' for Inactive)
REMARK    1  A    between atoms: N_6  and  C_7 
REMARK    2  A    between atoms: C_11  and  N_12 
REMARK    3  A    between atoms: N_12  and  C_13 
REMARK    4  A    between atoms: C_13  and  N_14 
REMARK       I    between atoms: N_14  and  C_15 
REMARK    5  A    between atoms: C_15  and  C_16 
REMARK    6  A    between atoms: C_17  and  C_18 
REMARK    7  A    between atoms: C_20  and  C_21 
ROOT
HETATM    1  C   UNL     1      41.188 -11.208   4.941  1.00  0.00     0.179 C 
HETATM    2  S   UNL     1      41.354 -11.109   6.600  1.00  0.00    -0.040 SA
ENDROOT
BRANCH   1   3
HETATM    3  N   UNL     1      40.871 -12.449   4.455  1.00  0.00    -0.333 N 
HETATM    4  H   UNL     1      39.900 -12.481   4.151  1.00  0.00     0.168 HD
BRANCH   3   5
HETATM    5  C   UNL     1      41.552 -13.682   4.414  1.00  0.00     0.036 A 
HETATM    6  C   UNL     1      41.039 -14.697   5.226  1.00  0.00     0.055 A 
HETATM    7  C   UNL     1      41.686 -15.934   5.331  1.00  0.00     0.062 A 
HETATM    8  C   UNL     1      42.871 -16.213   4.613  1.00  0.00     0.052 A 
HETATM    9 CL   UNL     1      41.033 -17.055   6.486  1.00  0.00    -0.082 Cl
HETATM   10  C   UNL     1      43.362 -15.184   3.796  1.00  0.00     0.033 A 
HETATM   11  C   UNL     1      42.724 -13.934   3.703  1.00  0.00     0.032 A 
BRANCH   8  12
HETATM   12  N   UNL     1      43.558 -17.416   4.761  1.00  0.00    -0.376 N 
HETATM   13  C   UNL     1      44.061 -18.081   3.546  1.00  0.00     0.150 C 
HETATM   14  C   UNL     1      44.012 -19.609   3.761  1.00  0.00     0.254 C 
HETATM   15  N   UNL     1      44.792 -20.000   5.025  1.00  0.00    -0.072 N 
HETATM   16  C   UNL     1      44.730 -21.479   5.272  1.00  0.00     0.269 C 
HETATM   17  H   UNL     1      45.775 -19.748   4.863  1.00  0.00     0.279 HD
HETATM   18  C   UNL     1      44.319 -19.209   6.250  1.00  0.00     0.254 C 
HETATM   19  C   UNL     1      44.334 -17.688   5.976  1.00  0.00     0.150 C 
ENDBRANCH   8  12
ENDBRANCH   3   5
ENDBRANCH   1   3
BRANCH   1  20
HETATM   20  N   UNL     1      41.269 -10.179   4.022  1.00  0.00    -0.300 N 
HETATM   21  C   UNL     1      40.374  -9.424   3.279  1.00  0.00     0.247 C 
HETATM   22  O   UNL     1      40.741  -8.974   2.195  1.00  0.00    -0.268 OA
HETATM   23  H   UNL     1      42.148 -10.190   3.522  1.00  0.00     0.171 HD
BRANCH  21  24
HETATM   24  C   UNL     1      39.005  -9.201   3.796  1.00  0.00     0.077 C 
HETATM   25  C   UNL     1      37.936  -9.952   3.494  1.00  0.00     0.042 C 
BRANCH  25  26
HETATM   26  C   UNL     1      37.942 -11.000   2.541  1.00  0.00     0.076 A 
HETATM   27  O   UNL     1      38.832 -12.053   2.554  1.00  0.00    -0.310 OA
HETATM   28  C   UNL     1      38.561 -12.859   1.488  1.00  0.00     0.086 A 
HETATM   29  C   UNL     1      37.503 -12.346   0.772  1.00  0.00     0.041 A 
HETATM   30  C   UNL     1      37.128 -11.150   1.426  1.00  0.00     0.040 A 
BRANCH  28  31
HETATM   31  C   UNL     1      39.404 -14.035   1.339  1.00  0.00    -0.002 A 
HETATM   32  C   UNL     1      40.479 -14.029   0.440  1.00  0.00     0.016 A 
HETATM   33  C   UNL     1      41.304 -15.152   0.306  1.00  0.00     0.024 A 
HETATM   34  C   UNL     1      41.060 -16.283   1.082  1.00  0.00     0.034 A 
HETATM   35 CL   UNL     1      42.064 -17.670   0.914  1.00  0.00    -0.084 Cl
HETATM   36  C   UNL     1      40.004 -16.302   1.988  1.00  0.00     0.024 A 
HETATM   37  C   UNL     1      39.174 -15.184   2.111  1.00  0.00     0.016 A 
ENDBRANCH  28  31
ENDBRANCH  25  26
ENDBRANCH  21  24
ENDBRANCH   1  20
TORSDOF 7
ENDMDL
MODEL 9
REMARK VINA RESULT:      -7.3      3.636      8.043
REMARK  7 active torsions:
REMARK  status: ('A' for Active; 'I' for Inactive)
REMARK    1  A    between atoms: N_6  and  C_7 
REMARK    2  A    between atoms: C_11  and  N_12 
REMARK    3  A    between atoms: N_12  and  C_13 
REMARK    4  A    between atoms: C_13  and  N_14 
REMARK       I    between atoms: N_14  and  C_15 
REMARK    5  A    between atoms: C_15  and  C_16 
REMARK    6  A    between atoms: C_17  and  C_18 
REMARK    7  A    between atoms: C_20  and  C_21 
ROOT
HETATM    1  C   UNL     1      41.119 -14.446  -1.645  1.00  0.00     0.179 C 
HETATM    2  S   UNL     1      40.719 -14.703  -3.246  1.00  0.00    -0.040 SA
ENDROOT
BRANCH   1   3
HETATM    3  N   UNL     1      40.563 -15.323  -0.752  1.00  0.00    -0.333 N 
HETATM    4  H   UNL     1      39.646 -15.631  -1.071  1.00  0.00     0.168 HD
BRANCH   3   5
HETATM    5  C   UNL     1      40.929 -15.766   0.535  1.00  0.00     0.036 A 
HETATM    6  C   UNL     1      42.240 -16.227   0.678  1.00  0.00     0.055 A 
HETATM    7  C   UNL     1      42.685 -16.771   1.888  1.00  0.00     0.062 A 
HETATM    8  C   UNL     1      41.838 -16.865   3.015  1.00  0.00     0.052 A 
HETATM    9 CL   UNL     1      44.288 -17.444   1.893  1.00  0.00    -0.082 Cl
HETATM   10  C   UNL     1      40.528 -16.388   2.852  1.00  0.00     0.033 A 
HETATM   11  C   UNL     1      40.074 -15.857   1.631  1.00  0.00     0.032 A 
BRANCH   8  12
HETATM   12  N   UNL     1      42.251 -17.465   4.202  1.00  0.00    -0.376 N 
HETATM   13  C   UNL     1      41.482 -17.182   5.426  1.00  0.00     0.150 C 
HETATM   14  C   UNL     1      42.446 -17.193   6.632  1.00  0.00     0.254 C 
HETATM   15  N   UNL     1      43.210 -18.524   6.699  1.00  0.00    -0.072 N 
HETATM   16  C   UNL     1      44.179 -18.543   7.845  1.00  0.00     0.269 C 
HETATM   17  H   UNL     1      42.515 -19.262   6.860  1.00  0.00     0.279 HD
HETATM   18  C   UNL     1      43.909 -18.842   5.372  1.00  0.00     0.254 C 
HETATM   19  C   UNL     1      42.920 -18.771   4.185  1.00  0.00     0.150 C 
ENDBRANCH   8  12
ENDBRANCH   3   5
ENDBRANCH   1   3
BRANCH   1  20
HETATM   20  N   UNL     1      41.990 -13.502  -1.133  1.00  0.00    -0.300 N 
HETATM   21  C   UNL     1      42.153 -12.128  -1.233  1.00  0.00     0.247 C 
HETATM   22  O   UNL     1      43.282 -11.659  -1.110  1.00  0.00    -0.268 OA
HETATM   23  H   UNL     1      42.893 -13.901  -0.917  1.00  0.00     0.171 HD
BRANCH  21  24
HETATM   24  C   UNL     1      40.975 -11.273  -1.502  1.00  0.00     0.077 C 
HETATM   25  C   UNL     1      40.004 -11.000  -0.618  1.00  0.00     0.042 C 
BRANCH  25  26
HETATM   26  C   UNL     1      39.908 -11.588   0.668  1.00  0.00     0.076 A 
HETATM   27  O   UNL     1      40.994 -11.948   1.436  1.00  0.00    -0.310 OA
HETATM   28  C   UNL     1      40.537 -12.496   2.598  1.00  0.00     0.086 A 
HETATM   29  C   UNL     1      39.160 -12.501   2.601  1.00  0.00     0.041 A 
HETATM   30  C   UNL     1      38.762 -11.949   1.362  1.00  0.00     0.040 A 
BRANCH  28  31
HETATM   31  C   UNL     1      41.549 -12.935   3.546  1.00  0.00    -0.002 A 
HETATM   32  C   UNL     1      41.276 -12.952   4.921  1.00  0.00     0.016 A 
HETATM   33  C   UNL     1      42.240 -13.391   5.835  1.00  0.00     0.024 A 
HETATM   34  C   UNL     1      43.480 -13.828   5.373  1.00  0.00     0.034 A 
HETATM   35 CL   UNL     1      44.673 -14.359   6.493  1.00  0.00    -0.084 Cl
HETATM   36  C   UNL     1      43.765 -13.829   4.010  1.00  0.00     0.024 A 
HETATM   37  C   UNL     1      42.804 -13.378   3.101  1.00  0.00     0.016 A 
ENDBRANCH  28  31
ENDBRANCH  25  26
ENDBRANCH  21  24
ENDBRANCH   1  20
TORSDOF 7
ENDMDL
MODEL 10
REMARK VINA RESULT:      -7.2      5.766      8.175
REMARK  7 active torsions:
REMARK  status: ('A' for Active; 'I' for Inactive)
REMARK    1  A    between atoms: N_6  and  C_7 
REMARK    2  A    between atoms: C_11  and  N_12 
REMARK    3  A    between atoms: N_12  and  C_13 
REMARK    4  A    between atoms: C_13  and  N_14 
REMARK       I    between atoms: N_14  and  C_15 
REMARK    5  A    between atoms: C_15  and  C_16 
REMARK    6  A    between atoms: C_17  and  C_18 
REMARK    7  A    between atoms: C_20  and  C_21 
ROOT
HETATM    1  C   UNL     1      40.110 -11.470   5.374  1.00  0.00     0.179 C 
HETATM    2  S   UNL     1      39.132 -10.169   5.000  1.00  0.00    -0.040 SA
ENDROOT
BRANCH   1   3
HETATM    3  N   UNL     1      41.051 -11.240   6.343  1.00  0.00    -0.333 N 
HETATM    4  H   UNL     1      41.987 -11.437   5.992  1.00  0.00     0.168 HD
BRANCH   3   5
HETATM    5  C   UNL     1      40.980 -10.926   7.714  1.00  0.00     0.036 A 
HETATM    6  C   UNL     1      42.192 -10.628   8.342  1.00  0.00     0.055 A 
HETATM    7  C   UNL     1      42.251 -10.387   9.720  1.00  0.00     0.062 A 
HETATM    8  C   UNL     1      41.093 -10.421  10.528  1.00  0.00     0.052 A 
HETATM    9 CL   UNL     1      43.835 -10.177  10.403  1.00  0.00    -0.082 Cl
HETATM   10  C   UNL     1      39.885 -10.712   9.875  1.00  0.00     0.033 A 
HETATM   11  C   UNL     1      39.826 -10.972   8.494  1.00  0.00     0.032 A 
BRANCH   8  12
HETATM   12  N   UNL     1      41.151 -10.248  11.909  1.00  0.00    -0.376 N 
HETATM   13  C   UNL     1      40.085  -9.461  12.554  1.00  0.00     0.150 C 
HETATM   14  C   UNL     1      40.685  -8.715  13.766  1.00  0.00     0.254 C 
HETATM   15  N   UNL     1      41.364  -9.704  14.725  1.00  0.00    -0.072 N 
HETATM   16  C   UNL     1      41.984  -8.995  15.894  1.00  0.00     0.269 C 
HETATM   17  H   UNL     1      40.631 -10.326  15.085  1.00  0.00     0.279 HD
HETATM   18  C   UNL     1      42.388 -10.583  13.999  1.00  0.00     0.254 C 
HETATM   19  C   UNL     1      41.762 -11.272  12.764  1.00  0.00     0.150 C 
ENDBRANCH   8  12
ENDBRANCH   3   5
ENDBRANCH   1   3
BRANCH   1  20
HETATM   20  N   UNL     1      40.035 -12.755   4.870  1.00  0.00    -0.300 N 
HETATM   21  C   UNL     1      40.486 -13.418   3.738  1.00  0.00     0.247 C 
HETATM   22  O   UNL     1      39.838 -14.373   3.317  1.00  0.00    -0.268 OA
HETATM   23  H   UNL     1      39.212 -13.241   5.199  1.00  0.00     0.171 HD
BRANCH  21  24
HETATM   24  C   UNL     1      41.715 -12.947   3.060  1.00  0.00     0.077 C 
HETATM   25  C   UNL     1      42.877 -13.616   3.021  1.00  0.00     0.042 C 
BRANCH  25  26
HETATM   26  C   UNL     1      43.127 -14.820   3.726  1.00  0.00     0.076 A 
HETATM   27  O   UNL     1      43.347 -16.038   3.120  1.00  0.00    -0.310 OA
HETATM   28  C   UNL     1      43.534 -16.975   4.093  1.00  0.00     0.086 A 
HETATM   29  C   UNL     1      43.438 -16.385   5.333  1.00  0.00     0.041 A 
HETATM   30  C   UNL     1      43.152 -15.020   5.099  1.00  0.00     0.040 A 
BRANCH  28  31
HETATM   31  C   UNL     1      43.787 -18.334   3.640  1.00  0.00    -0.002 A 
HETATM   32  C   UNL     1      43.341 -18.757   2.380  1.00  0.00     0.016 A 
HETATM   33  C   UNL     1      43.597 -20.058   1.932  1.00  0.00     0.024 A 
HETATM   34  C   UNL     1      44.311 -20.938   2.742  1.00  0.00     0.034 A 
HETATM   35 CL   UNL     1      44.620 -22.542   2.201  1.00  0.00    -0.084 Cl
HETATM   36  C   UNL     1      44.771 -20.532   3.992  1.00  0.00     0.024 A 
HETATM   37  C   UNL     1      44.503 -19.235   4.441  1.00  0.00     0.016 A 
ENDBRANCH  28  31
ENDBRANCH  25  26
ENDBRANCH  21  24
ENDBRANCH   1  20
TORSDOF 7
ENDMDL
