MODEL 1
REMARK VINA RESULT:      -8.9      0.000      0.000
REMARK  7 active torsions:
REMARK  status: ('A' for Active; 'I' for Inactive)
REMARK    1  A    between atoms: C_2  and  N_3 
REMARK    2  A    between atoms: N_3  and  C_4 
REMARK    3  A    between atoms: C_4  and  N_5 
REMARK    4  A    between atoms: N_5  and  N_6 
REMARK    5  A    between atoms: N_6  and  C_7 
REMARK    6  A    between atoms: N_8  and  C_9 
REMARK    7  A    between atoms: C_9  and  C_10 
ROOT
HETATM    1  C   UNL     1      41.034 -16.913   1.108  1.00  0.00     0.204 C 
HETATM    2  N   UNL     1      40.550 -16.118   2.125  1.00  0.00    -0.283 N 
HETATM    3  C   UNL     1      41.205 -16.072   3.340  1.00  0.00     0.259 C 
HETATM    4  O   UNL     1      41.079 -15.129   4.116  1.00  0.00    -0.267 OA
HETATM    5  C   UNL     1      42.099 -17.216   3.659  1.00  0.00     0.049 C 
HETATM    6  C   UNL     1      42.406 -18.005   2.610  1.00  0.00     0.083 C 
HETATM    7  C   UNL     1      43.317 -19.164   2.817  1.00  0.00    -0.000 A 
HETATM    8  C   UNL     1      43.597 -19.614   4.116  1.00  0.00    -0.044 A 
HETATM    9  C   UNL     1      44.414 -20.737   4.319  1.00  0.00     0.008 A 
HETATM   10  C   UNL     1      44.973 -21.407   3.233  1.00  0.00     0.001 A 
HETATM   11  C   UNL     1      44.709 -20.965   1.940  1.00  0.00     0.001 A 
HETATM   12  C   UNL     1      43.885 -19.855   1.736  1.00  0.00     0.014 A 
HETATM   13  C   UNL     1      42.937 -18.943   5.288  1.00  0.00     0.054 C 
HETATM   14  C   UNL     1      42.664 -17.420   5.079  1.00  0.00    -0.002 C 
HETATM   15  C   UNL     1      43.978 -16.593   5.182  1.00  0.00     0.015 C 
HETATM   16  C   UNL     1      44.625 -16.612   6.568  1.00  0.00     0.001 C 
HETATM   17  C   UNL     1      43.644 -16.216   7.665  1.00  0.00     0.000 C 
HETATM   18  C   UNL     1      42.366 -17.046   7.622  1.00  0.00     0.001 C 
HETATM   19  C   UNL     1      41.711 -16.988   6.237  1.00  0.00     0.015 C 
HETATM   20  N   UNL     1      41.958 -17.803   1.330  1.00  0.00    -0.217 NA
ENDROOT
BRANCH   1  21
HETATM   21  N   UNL     1      40.555 -16.749  -0.181  1.00  0.00    -0.171 NA
HETATM   22  H   UNL     1      39.581 -16.482  -0.300  1.00  0.00     0.156 HD
BRANCH  21  23
HETATM   23  N   UNL     1      41.408 -16.011  -1.033  1.00  0.00    -0.291 N 
HETATM   24  H   UNL     1      42.364 -16.367  -1.012  1.00  0.00     0.183 HD
BRANCH  23  25
HETATM   25  C   UNL     1      40.926 -15.534  -2.226  1.00  0.00     0.182 C 
HETATM   26  S   UNL     1      41.486 -14.189  -3.045  1.00  0.00    -0.040 SA
BRANCH  25  27
HETATM   27  N   UNL     1      39.946 -16.283  -2.817  1.00  0.00    -0.367 N 
HETATM   28  H   UNL     1      39.520 -16.953  -2.186  1.00  0.00     0.161 HD
BRANCH  27  29
HETATM   29  C   UNL     1      39.190 -15.953  -4.016  1.00  0.00     0.117 C 
HETATM   30  C   UNL     1      37.837 -15.357  -3.666  1.00  0.00     0.026 C 
ENDBRANCH  27  29
ENDBRANCH  25  27
ENDBRANCH  23  25
ENDBRANCH  21  23
ENDBRANCH   1  21
BRANCH   2  31
HETATM   31  C   UNL     1      39.438 -15.191   1.937  1.00  0.00     0.173 C 
BRANCH  31  32
HETATM   32  C   UNL     1      39.716 -13.970   1.082  1.00  0.00    -0.040 A 
HETATM   33  C   UNL     1      40.851 -13.161   1.231  1.00  0.00     0.009 A 
HETATM   34  C   UNL     1      41.030 -12.030   0.430  1.00  0.00     0.001 A 
HETATM   35  C   UNL     1      40.074 -11.688  -0.524  1.00  0.00     0.000 A 
HETATM   36  C   UNL     1      38.938 -12.477  -0.681  1.00  0.00     0.001 A 
HETATM   37  C   UNL     1      38.761 -13.610   0.115  1.00  0.00     0.009 A 
ENDBRANCH  31  32
ENDBRANCH   2  31
TORSDOF 7
ENDMDL
MODEL 2
REMARK VINA RESULT:      -8.4      1.486      1.960
REMARK  7 active torsions:
REMARK  status: ('A' for Active; 'I' for Inactive)
REMARK    1  A    between atoms: C_2  and  N_3 
REMARK    2  A    between atoms: N_3  and  C_4 
REMARK    3  A    between atoms: C_4  and  N_5 
REMARK    4  A    between atoms: N_5  and  N_6 
REMARK    5  A    between atoms: N_6  and  C_7 
REMARK    6  A    between atoms: N_8  and  C_9 
REMARK    7  A    between atoms: C_9  and  C_10 
ROOT
HETATM    1  C   UNL     1      40.746 -15.972   1.393  1.00  0.00     0.204 C 
HETATM    2  N   UNL     1      40.344 -15.330   2.545  1.00  0.00    -0.283 N 
HETATM    3  C   UNL     1      41.062 -15.491   3.714  1.00  0.00     0.259 C 
HETATM    4  O   UNL     1      41.011 -14.676   4.631  1.00  0.00    -0.267 OA
HETATM    5  C   UNL     1      41.929 -16.696   3.803  1.00  0.00     0.049 C 
HETATM    6  C   UNL     1      42.153 -17.321   2.630  1.00  0.00     0.083 C 
HETATM    7  C   UNL     1      43.030 -18.524   2.606  1.00  0.00    -0.000 A 
HETATM    8  C   UNL     1      43.359 -19.177   3.803  1.00  0.00    -0.044 A 
HETATM    9  C   UNL     1      44.145 -20.340   3.785  1.00  0.00     0.008 A 
HETATM   10  C   UNL     1      44.622 -20.849   2.580  1.00  0.00     0.001 A 
HETATM   11  C   UNL     1      44.308 -20.206   1.387  1.00  0.00     0.001 A 
HETATM   12  C   UNL     1      43.516 -19.055   1.401  1.00  0.00     0.014 A 
HETATM   13  C   UNL     1      42.786 -18.676   5.099  1.00  0.00     0.054 C 
HETATM   14  C   UNL     1      42.558 -17.132   5.141  1.00  0.00    -0.002 C 
HETATM   15  C   UNL     1      43.905 -16.369   5.295  1.00  0.00     0.015 C 
HETATM   16  C   UNL     1      44.621 -16.620   6.624  1.00  0.00     0.001 C 
HETATM   17  C   UNL     1      43.713 -16.371   7.822  1.00  0.00     0.000 C 
HETATM   18  C   UNL     1      42.405 -17.148   7.724  1.00  0.00     0.001 C 
HETATM   19  C   UNL     1      41.682 -16.858   6.404  1.00  0.00     0.015 C 
HETATM   20  N   UNL     1      41.647 -16.911   1.424  1.00  0.00    -0.217 NA
ENDROOT
BRANCH   1  21
HETATM   21  N   UNL     1      40.208 -15.597   0.173  1.00  0.00    -0.171 NA
HETATM   22  H   UNL     1      39.944 -14.622   0.045  1.00  0.00     0.156 HD
BRANCH  21  23
HETATM   23  N   UNL     1      40.896 -16.106  -0.951  1.00  0.00    -0.291 N 
HETATM   24  H   UNL     1      40.770 -17.114  -1.048  1.00  0.00     0.183 HD
BRANCH  23  25
HETATM   25  C   UNL     1      40.969 -15.355  -2.098  1.00  0.00     0.182 C 
HETATM   26  S   UNL     1      39.858 -15.358  -3.348  1.00  0.00    -0.040 SA
BRANCH  25  27
HETATM   27  N   UNL     1      42.017 -14.479  -2.174  1.00  0.00    -0.367 N 
HETATM   28  H   UNL     1      42.714 -14.748  -2.859  1.00  0.00     0.161 HD
BRANCH  27  29
HETATM   29  C   UNL     1      42.031 -13.087  -1.750  1.00  0.00     0.117 C 
HETATM   30  C   UNL     1      42.587 -12.186  -2.839  1.00  0.00     0.026 C 
ENDBRANCH  27  29
ENDBRANCH  25  27
ENDBRANCH  23  25
ENDBRANCH  21  23
ENDBRANCH   1  21
BRANCH   2  31
HETATM   31  C   UNL     1      39.259 -14.355   2.564  1.00  0.00     0.173 C 
BRANCH  31  32
HETATM   32  C   UNL     1      39.665 -12.895   2.497  1.00  0.00    -0.040 A 
HETATM   33  C   UNL     1      40.656 -12.404   1.635  1.00  0.00     0.009 A 
HETATM   34  C   UNL     1      41.004 -11.052   1.647  1.00  0.00     0.001 A 
HETATM   35  C   UNL     1      40.375 -10.172   2.526  1.00  0.00     0.000 A 
HETATM   36  C   UNL     1      39.394 -10.644   3.393  1.00  0.00     0.001 A 
HETATM   37  C   UNL     1      39.040 -11.994   3.378  1.00  0.00     0.009 A 
ENDBRANCH  31  32
ENDBRANCH   2  31
TORSDOF 7
ENDMDL
MODEL 3
REMARK VINA RESULT:      -8.4      2.509      7.327
REMARK  7 active torsions:
REMARK  status: ('A' for Active; 'I' for Inactive)
REMARK    1  A    between atoms: C_2  and  N_3 
REMARK    2  A    between atoms: N_3  and  C_4 
REMARK    3  A    between atoms: C_4  and  N_5 
REMARK    4  A    between atoms: N_5  and  N_6 
REMARK    5  A    between atoms: N_6  and  C_7 
REMARK    6  A    between atoms: N_8  and  C_9 
REMARK    7  A    between atoms: C_9  and  C_10 
ROOT
HETATM    1  C   UNL     1      41.314 -16.644   2.696  1.00  0.00     0.204 C 
HETATM    2  N   UNL     1      40.837 -15.774   3.654  1.00  0.00    -0.283 N 
HETATM    3  C   UNL     1      40.007 -14.732   3.291  1.00  0.00     0.259 C 
HETATM    4  O   UNL     1      39.251 -14.189   4.092  1.00  0.00    -0.267 OA
HETATM    5  C   UNL     1      40.051 -14.310   1.866  1.00  0.00     0.049 C 
HETATM    6  C   UNL     1      40.656 -15.181   1.035  1.00  0.00     0.083 C 
HETATM    7  C   UNL     1      40.730 -14.864  -0.417  1.00  0.00    -0.000 A 
HETATM    8  C   UNL     1      40.464 -13.563  -0.867  1.00  0.00    -0.044 A 
HETATM    9  C   UNL     1      40.580 -13.243  -2.229  1.00  0.00     0.008 A 
HETATM   10  C   UNL     1      40.942 -14.220  -3.153  1.00  0.00     0.001 A 
HETATM   11  C   UNL     1      41.201 -15.517  -2.720  1.00  0.00     0.001 A 
HETATM   12  C   UNL     1      41.098 -15.834  -1.363  1.00  0.00     0.014 A 
HETATM   13  C   UNL     1      40.147 -12.487   0.134  1.00  0.00     0.054 C 
HETATM   14  C   UNL     1      39.390 -12.997   1.400  1.00  0.00    -0.002 C 
HETATM   15  C   UNL     1      37.901 -13.313   1.077  1.00  0.00     0.015 C 
HETATM   16  C   UNL     1      37.070 -12.090   0.682  1.00  0.00     0.001 C 
HETATM   17  C   UNL     1      37.179 -10.968   1.707  1.00  0.00     0.000 C 
HETATM   18  C   UNL     1      38.628 -10.600   2.006  1.00  0.00     0.001 C 
HETATM   19  C   UNL     1      39.438 -11.829   2.434  1.00  0.00     0.015 C 
HETATM   20  N   UNL     1      41.197 -16.378   1.427  1.00  0.00    -0.217 NA
ENDROOT
BRANCH   1  21
HETATM   21  N   UNL     1      41.904 -17.836   3.081  1.00  0.00    -0.171 NA
HETATM   22  H   UNL     1      41.457 -18.705   2.799  1.00  0.00     0.156 HD
BRANCH  21  23
HETATM   23  N   UNL     1      43.305 -17.882   2.898  1.00  0.00    -0.291 N 
HETATM   24  H   UNL     1      43.713 -16.948   2.866  1.00  0.00     0.183 HD
BRANCH  23  25
HETATM   25  C   UNL     1      44.033 -18.883   3.492  1.00  0.00     0.182 C 
HETATM   26  S   UNL     1      44.265 -19.087   5.135  1.00  0.00    -0.040 SA
BRANCH  25  27
HETATM   27  N   UNL     1      44.549 -19.829   2.648  1.00  0.00    -0.367 N 
HETATM   28  H   UNL     1      45.306 -19.478   2.071  1.00  0.00     0.161 HD
BRANCH  27  29
HETATM   29  C   UNL     1      44.457 -21.274   2.788  1.00  0.00     0.117 C 
HETATM   30  C   UNL     1      43.999 -21.923   1.493  1.00  0.00     0.026 C 
ENDBRANCH  27  29
ENDBRANCH  25  27
ENDBRANCH  23  25
ENDBRANCH  21  23
ENDBRANCH   1  21
BRANCH   2  31
HETATM   31  C   UNL     1      41.051 -15.984   5.082  1.00  0.00     0.173 C 
BRANCH  31  32
HETATM   32  C   UNL     1      42.336 -15.426   5.660  1.00  0.00    -0.040 A 
HETATM   33  C   UNL     1      42.992 -14.298   5.146  1.00  0.00     0.009 A 
HETATM   34  C   UNL     1      44.193 -13.856   5.706  1.00  0.00     0.001 A 
HETATM   35  C   UNL     1      44.760 -14.537   6.782  1.00  0.00     0.000 A 
HETATM   36  C   UNL     1      44.124 -15.662   7.300  1.00  0.00     0.001 A 
HETATM   37  C   UNL     1      42.922 -16.102   6.745  1.00  0.00     0.009 A 
ENDBRANCH  31  32
ENDBRANCH   2  31
TORSDOF 7
ENDMDL
MODEL 4
REMARK VINA RESULT:      -8.0      4.594      8.573
REMARK  7 active torsions:
REMARK  status: ('A' for Active; 'I' for Inactive)
REMARK    1  A    between atoms: C_2  and  N_3 
REMARK    2  A    between atoms: N_3  and  C_4 
REMARK    3  A    between atoms: C_4  and  N_5 
REMARK    4  A    between atoms: N_5  and  N_6 
REMARK    5  A    between atoms: N_6  and  C_7 
REMARK    6  A    between atoms: N_8  and  C_9 
REMARK    7  A    between atoms: C_9  and  C_10 
ROOT
HETATM    1  C   UNL     1      42.355 -13.194   6.219  1.00  0.00     0.204 C 
HETATM    2  N   UNL     1      43.191 -14.257   6.484  1.00  0.00    -0.283 N 
HETATM    3  C   UNL     1      43.428 -15.210   5.514  1.00  0.00     0.259 C 
HETATM    4  O   UNL     1      44.426 -15.927   5.529  1.00  0.00    -0.267 OA
HETATM    5  C   UNL     1      42.424 -15.315   4.422  1.00  0.00     0.049 C 
HETATM    6  C   UNL     1      41.572 -14.274   4.335  1.00  0.00     0.083 C 
HETATM    7  C   UNL     1      40.544 -14.268   3.259  1.00  0.00    -0.000 A 
HETATM    8  C   UNL     1      40.258 -15.446   2.553  1.00  0.00    -0.044 A 
HETATM    9  C   UNL     1      39.255 -15.462   1.571  1.00  0.00     0.008 A 
HETATM   10  C   UNL     1      38.544 -14.303   1.273  1.00  0.00     0.001 A 
HETATM   11  C   UNL     1      38.823 -13.125   1.960  1.00  0.00     0.001 A 
HETATM   12  C   UNL     1      39.813 -13.111   2.947  1.00  0.00     0.014 A 
HETATM   13  C   UNL     1      40.969 -16.718   2.923  1.00  0.00     0.054 C 
HETATM   14  C   UNL     1      42.425 -16.506   3.444  1.00  0.00    -0.002 C 
HETATM   15  C   UNL     1      43.395 -16.153   2.279  1.00  0.00     0.015 C 
HETATM   16  C   UNL     1      43.584 -17.276   1.257  1.00  0.00     0.001 C 
HETATM   17  C   UNL     1      43.980 -18.591   1.916  1.00  0.00     0.000 C 
HETATM   18  C   UNL     1      43.018 -18.990   3.029  1.00  0.00     0.001 C 
HETATM   19  C   UNL     1      42.867 -17.869   4.063  1.00  0.00     0.015 C 
HETATM   20  N   UNL     1      41.596 -13.181   5.162  1.00  0.00    -0.217 NA
ENDROOT
BRANCH   1  21
HETATM   21  N   UNL     1      42.337 -12.103   7.072  1.00  0.00    -0.171 NA
HETATM   22  H   UNL     1      43.083 -11.416   6.987  1.00  0.00     0.156 HD
BRANCH  21  23
HETATM   23  N   UNL     1      41.072 -11.490   7.213  1.00  0.00    -0.291 N 
HETATM   24  H   UNL     1      40.366 -11.943   6.633  1.00  0.00     0.183 HD
BRANCH  23  25
HETATM   25  C   UNL     1      40.684 -11.010   8.439  1.00  0.00     0.182 C 
HETATM   26  S   UNL     1      39.129 -10.587   8.883  1.00  0.00    -0.040 SA
BRANCH  25  27
HETATM   27  N   UNL     1      41.663 -10.945   9.393  1.00  0.00    -0.367 N 
HETATM   28  H   UNL     1      42.280 -11.751   9.387  1.00  0.00     0.161 HD
BRANCH  27  29
HETATM   29  C   UNL     1      42.163  -9.753  10.060  1.00  0.00     0.117 C 
HETATM   30  C   UNL     1      43.060 -10.114  11.232  1.00  0.00     0.026 C 
ENDBRANCH  27  29
ENDBRANCH  25  27
ENDBRANCH  23  25
ENDBRANCH  21  23
ENDBRANCH   1  21
BRANCH   2  31
HETATM   31  C   UNL     1      43.971 -14.358   7.714  1.00  0.00     0.173 C 
BRANCH  31  32
HETATM   32  C   UNL     1      45.057 -13.318   7.910  1.00  0.00    -0.040 A 
HETATM   33  C   UNL     1      46.201 -13.231   7.105  1.00  0.00     0.009 A 
HETATM   34  C   UNL     1      47.181 -12.268   7.362  1.00  0.00     0.001 A 
HETATM   35  C   UNL     1      47.035 -11.385   8.430  1.00  0.00     0.000 A 
HETATM   36  C   UNL     1      45.907 -11.462   9.242  1.00  0.00     0.001 A 
HETATM   37  C   UNL     1      44.926 -12.419   8.984  1.00  0.00     0.009 A 
ENDBRANCH  31  32
ENDBRANCH   2  31
TORSDOF 7
ENDMDL
MODEL 5
REMARK VINA RESULT:      -8.0      2.968      8.646
REMARK  7 active torsions:
REMARK  status: ('A' for Active; 'I' for Inactive)
REMARK    1  A    between atoms: C_2  and  N_3 
REMARK    2  A    between atoms: N_3  and  C_4 
REMARK    3  A    between atoms: C_4  and  N_5 
REMARK    4  A    between atoms: N_5  and  N_6 
REMARK    5  A    between atoms: N_6  and  C_7 
REMARK    6  A    between atoms: N_8  and  C_9 
REMARK    7  A    between atoms: C_9  and  C_10 
ROOT
HETATM    1  C   UNL     1      42.214 -13.356   2.345  1.00  0.00     0.204 C 
HETATM    2  N   UNL     1      41.178 -14.257   2.221  1.00  0.00    -0.283 N 
HETATM    3  C   UNL     1      40.630 -14.515   0.981  1.00  0.00     0.259 C 
HETATM    4  O   UNL     1      40.015 -15.550   0.739  1.00  0.00    -0.267 OA
HETATM    5  C   UNL     1      40.841 -13.484  -0.070  1.00  0.00     0.049 C 
HETATM    6  C   UNL     1      41.794 -12.573   0.214  1.00  0.00     0.083 C 
HETATM    7  C   UNL     1      42.102 -11.513  -0.783  1.00  0.00    -0.000 A 
HETATM    8  C   UNL     1      41.220 -11.270  -1.846  1.00  0.00    -0.044 A 
HETATM    9  C   UNL     1      41.476 -10.239  -2.763  1.00  0.00     0.008 A 
HETATM   10  C   UNL     1      42.622  -9.456  -2.639  1.00  0.00     0.001 A 
HETATM   11  C   UNL     1      43.509  -9.692  -1.594  1.00  0.00     0.001 A 
HETATM   12  C   UNL     1      43.248 -10.710  -0.673  1.00  0.00     0.014 A 
HETATM   13  C   UNL     1      39.945 -12.060  -1.942  1.00  0.00     0.054 C 
HETATM   14  C   UNL     1      40.057 -13.519  -1.396  1.00  0.00    -0.002 C 
HETATM   15  C   UNL     1      40.845 -14.430  -2.381  1.00  0.00     0.015 C 
HETATM   16  C   UNL     1      40.152 -14.647  -3.727  1.00  0.00     0.001 C 
HETATM   17  C   UNL     1      38.718 -15.136  -3.563  1.00  0.00     0.000 C 
HETATM   18  C   UNL     1      37.904 -14.233  -2.642  1.00  0.00     0.001 C 
HETATM   19  C   UNL     1      38.595 -14.054  -1.286  1.00  0.00     0.015 C 
HETATM   20  N   UNL     1      42.540 -12.564   1.364  1.00  0.00    -0.217 NA
ENDROOT
BRANCH   1  21
HETATM   21  N   UNL     1      42.946 -13.306   3.520  1.00  0.00    -0.171 NA
HETATM   22  H   UNL     1      43.961 -13.330   3.454  1.00  0.00     0.156 HD
BRANCH  21  23
HETATM   23  N   UNL     1      42.503 -12.332   4.444  1.00  0.00    -0.291 N 
HETATM   24  H   UNL     1      42.132 -11.506   3.975  1.00  0.00     0.183 HD
BRANCH  23  25
HETATM   25  C   UNL     1      41.904 -12.731   5.613  1.00  0.00     0.182 C 
HETATM   26  S   UNL     1      40.475 -12.131   6.240  1.00  0.00    -0.040 SA
BRANCH  25  27
HETATM   27  N   UNL     1      42.511 -13.763   6.274  1.00  0.00    -0.367 N 
HETATM   28  H   UNL     1      41.983 -14.628   6.235  1.00  0.00     0.161 HD
BRANCH  27  29
HETATM   29  C   UNL     1      43.922 -13.882   6.613  1.00  0.00     0.117 C 
HETATM   30  C   UNL     1      44.320 -15.335   6.806  1.00  0.00     0.026 C 
ENDBRANCH  27  29
ENDBRANCH  25  27
ENDBRANCH  23  25
ENDBRANCH  21  23
ENDBRANCH   1  21
BRANCH   2  31
HETATM   31  C   UNL     1      40.714 -15.079   3.334  1.00  0.00     0.173 C 
BRANCH  31  32
HETATM   32  C   UNL     1      41.574 -16.276   3.692  1.00  0.00    -0.040 A 
HETATM   33  C   UNL     1      42.553 -16.809   2.842  1.00  0.00     0.009 A 
HETATM   34  C   UNL     1      43.288 -17.935   3.221  1.00  0.00     0.001 A 
HETATM   35  C   UNL     1      43.050 -18.549   4.449  1.00  0.00     0.000 A 
HETATM   36  C   UNL     1      42.076 -18.036   5.302  1.00  0.00     0.001 A 
HETATM   37  C   UNL     1      41.345 -16.908   4.927  1.00  0.00     0.009 A 
ENDBRANCH  31  32
ENDBRANCH   2  31
TORSDOF 7
ENDMDL
MODEL 6
REMARK VINA RESULT:      -7.9      4.682      7.527
REMARK  7 active torsions:
REMARK  status: ('A' for Active; 'I' for Inactive)
REMARK    1  A    between atoms: C_2  and  N_3 
REMARK    2  A    between atoms: N_3  and  C_4 
REMARK    3  A    between atoms: C_4  and  N_5 
REMARK    4  A    between atoms: N_5  and  N_6 
REMARK    5  A    between atoms: N_6  and  C_7 
REMARK    6  A    between atoms: N_8  and  C_9 
REMARK    7  A    between atoms: C_9  and  C_10 
ROOT
HETATM    1  C   UNL     1      39.724 -13.304   6.117  1.00  0.00     0.204 C 
HETATM    2  N   UNL     1      39.524 -12.817   4.843  1.00  0.00    -0.283 N 
HETATM    3  C   UNL     1      39.834 -13.597   3.746  1.00  0.00     0.259 C 
HETATM    4  O   UNL     1      39.330 -13.405   2.643  1.00  0.00    -0.267 OA
HETATM    5  C   UNL     1      40.795 -14.709   3.969  1.00  0.00     0.049 C 
HETATM    6  C   UNL     1      41.014 -15.019   5.262  1.00  0.00     0.083 C 
HETATM    7  C   UNL     1      41.941 -16.135   5.593  1.00  0.00    -0.000 A 
HETATM    8  C   UNL     1      42.804 -16.645   4.613  1.00  0.00    -0.044 A 
HETATM    9  C   UNL     1      43.717 -17.664   4.929  1.00  0.00     0.008 A 
HETATM   10  C   UNL     1      43.762 -18.194   6.216  1.00  0.00     0.001 A 
HETATM   11  C   UNL     1      42.905 -17.702   7.196  1.00  0.00     0.001 A 
HETATM   12  C   UNL     1      42.005 -16.679   6.886  1.00  0.00     0.014 A 
HETATM   13  C   UNL     1      42.813 -16.026   3.243  1.00  0.00     0.054 C 
HETATM   14  C   UNL     1      41.428 -15.469   2.787  1.00  0.00    -0.002 C 
HETATM   15  C   UNL     1      40.458 -16.622   2.399  1.00  0.00     0.015 C 
HETATM   16  C   UNL     1      40.895 -17.427   1.174  1.00  0.00     0.001 C 
HETATM   17  C   UNL     1      41.187 -16.533  -0.026  1.00  0.00     0.000 C 
HETATM   18  C   UNL     1      42.176 -15.423   0.310  1.00  0.00     0.001 C 
HETATM   19  C   UNL     1      41.706 -14.604   1.517  1.00  0.00     0.015 C 
HETATM   20  N   UNL     1      40.414 -14.389   6.323  1.00  0.00    -0.217 NA
ENDROOT
BRANCH   1  21
HETATM   21  N   UNL     1      39.161 -12.651   7.200  1.00  0.00    -0.171 NA
HETATM   22  H   UNL     1      38.490 -13.161   7.771  1.00  0.00     0.156 HD
BRANCH  21  23
HETATM   23  N   UNL     1      40.081 -11.927   7.991  1.00  0.00    -0.291 N 
HETATM   24  H   UNL     1      40.907 -11.655   7.457  1.00  0.00     0.183 HD
BRANCH  23  25
HETATM   25  C   UNL     1      39.617 -11.056   8.944  1.00  0.00     0.182 C 
HETATM   26  S   UNL     1      38.933  -9.558   8.657  1.00  0.00    -0.040 SA
BRANCH  25  27
HETATM   27  N   UNL     1      39.662 -11.503  10.236  1.00  0.00    -0.367 N 
HETATM   28  H   UNL     1      39.215 -12.405  10.363  1.00  0.00     0.161 HD
BRANCH  27  29
HETATM   29  C   UNL     1      40.593 -11.092  11.277  1.00  0.00     0.117 C 
HETATM   30  C   UNL     1      40.227 -11.708  12.616  1.00  0.00     0.026 C 
ENDBRANCH  27  29
ENDBRANCH  25  27
ENDBRANCH  23  25
ENDBRANCH  21  23
ENDBRANCH   1  21
BRANCH   2  31
HETATM   31  C   UNL     1      38.854 -11.547   4.583  1.00  0.00     0.173 C 
BRANCH  31  32
HETATM   32  C   UNL     1      39.751 -10.360   4.289  1.00  0.00    -0.040 A 
HETATM   33  C   UNL     1      40.776  -9.932   5.145  1.00  0.00     0.009 A 
HETATM   34  C   UNL     1      41.544  -8.809   4.830  1.00  0.00     0.001 A 
HETATM   35  C   UNL     1      41.295  -8.093   3.661  1.00  0.00     0.000 A 
HETATM   36  C   UNL     1      40.277  -8.501   2.803  1.00  0.00     0.001 A 
HETATM   37  C   UNL     1      39.512  -9.626   3.114  1.00  0.00     0.009 A 
ENDBRANCH  31  32
ENDBRANCH   2  31
TORSDOF 7
ENDMDL
MODEL 7
REMARK VINA RESULT:      -7.8      2.514      6.584
REMARK  7 active torsions:
REMARK  status: ('A' for Active; 'I' for Inactive)
REMARK    1  A    between atoms: C_2  and  N_3 
REMARK    2  A    between atoms: N_3  and  C_4 
REMARK    3  A    between atoms: C_4  and  N_5 
REMARK    4  A    between atoms: N_5  and  N_6 
REMARK    5  A    between atoms: N_6  and  C_7 
REMARK    6  A    between atoms: N_8  and  C_9 
REMARK    7  A    between atoms: C_9  and  C_10 
ROOT
HETATM    1  C   UNL     1      40.962 -15.236   0.706  1.00  0.00     0.204 C 
HETATM    2  N   UNL     1      41.944 -15.037   1.653  1.00  0.00    -0.283 N 
HETATM    3  C   UNL     1      41.677 -14.289   2.781  1.00  0.00     0.259 C 
HETATM    4  O   UNL     1      42.335 -14.401   3.812  1.00  0.00    -0.267 OA
HETATM    5  C   UNL     1      40.527 -13.349   2.702  1.00  0.00     0.049 C 
HETATM    6  C   UNL     1      39.698 -13.555   1.660  1.00  0.00     0.083 C 
HETATM    7  C   UNL     1      38.501 -12.685   1.503  1.00  0.00    -0.000 A 
HETATM    8  C   UNL     1      38.403 -11.488   2.227  1.00  0.00    -0.044 A 
HETATM    9  C   UNL     1      37.302 -10.636   2.049  1.00  0.00     0.008 A 
HETATM   10  C   UNL     1      36.283 -10.979   1.163  1.00  0.00     0.001 A 
HETATM   11  C   UNL     1      36.365 -12.167   0.444  1.00  0.00     0.001 A 
HETATM   12  C   UNL     1      37.467 -13.010   0.611  1.00  0.00     0.014 A 
HETATM   13  C   UNL     1      39.535 -11.076   3.127  1.00  0.00     0.054 C 
HETATM   14  C   UNL     1      40.298 -12.271   3.780  1.00  0.00    -0.002 C 
HETATM   15  C   UNL     1      39.460 -12.921   4.918  1.00  0.00     0.015 C 
HETATM   16  C   UNL     1      39.217 -12.006   6.120  1.00  0.00     0.001 C 
HETATM   17  C   UNL     1      40.513 -11.418   6.665  1.00  0.00     0.000 C 
HETATM   18  C   UNL     1      41.334 -10.728   5.580  1.00  0.00     0.001 C 
HETATM   19  C   UNL     1      41.598 -11.669   4.400  1.00  0.00     0.015 C 
HETATM   20  N   UNL     1      39.858 -14.547   0.726  1.00  0.00    -0.217 NA
ENDROOT
BRANCH   1  21
HETATM   21  N   UNL     1      41.133 -16.203  -0.270  1.00  0.00    -0.171 NA
HETATM   22  H   UNL     1      40.382 -16.874  -0.416  1.00  0.00     0.156 HD
BRANCH  21  23
HETATM   23  N   UNL     1      41.646 -15.717  -1.494  1.00  0.00    -0.291 N 
HETATM   24  H   UNL     1      42.325 -16.359  -1.902  1.00  0.00     0.183 HD
BRANCH  23  25
HETATM   25  C   UNL     1      40.822 -15.025  -2.347  1.00  0.00     0.182 C 
HETATM   26  S   UNL     1      41.237 -13.668  -3.231  1.00  0.00    -0.040 SA
BRANCH  25  27
HETATM   27  N   UNL     1      39.573 -15.553  -2.531  1.00  0.00    -0.367 N 
HETATM   28  H   UNL     1      39.024 -15.587  -1.678  1.00  0.00     0.161 HD
BRANCH  27  29
HETATM   29  C   UNL     1      38.832 -15.645  -3.780  1.00  0.00     0.117 C 
HETATM   30  C   UNL     1      37.413 -15.128  -3.617  1.00  0.00     0.026 C 
ENDBRANCH  27  29
ENDBRANCH  25  27
ENDBRANCH  23  25
ENDBRANCH  21  23
ENDBRANCH   1  21
BRANCH   2  31
HETATM   31  C   UNL     1      43.239 -15.710   1.596  1.00  0.00     0.173 C 
BRANCH  31  32
HETATM   32  C   UNL     1      43.299 -17.106   2.184  1.00  0.00    -0.040 A 
HETATM   33  C   UNL     1      43.217 -17.372   3.558  1.00  0.00     0.009 A 
HETATM   34  C   UNL     1      43.313 -18.681   4.036  1.00  0.00     0.001 A 
HETATM   35  C   UNL     1      43.501 -19.741   3.151  1.00  0.00     0.000 A 
HETATM   36  C   UNL     1      43.590 -19.493   1.784  1.00  0.00     0.001 A 
HETATM   37  C   UNL     1      43.489 -18.186   1.304  1.00  0.00     0.009 A 
ENDBRANCH  31  32
ENDBRANCH   2  31
TORSDOF 7
ENDMDL
MODEL 8
REMARK VINA RESULT:      -7.8      2.819      5.490
REMARK  7 active torsions:
REMARK  status: ('A' for Active; 'I' for Inactive)
REMARK    1  A    between atoms: C_2  and  N_3 
REMARK    2  A    between atoms: N_3  and  C_4 
REMARK    3  A    between atoms: C_4  and  N_5 
REMARK    4  A    between atoms: N_5  and  N_6 
REMARK    5  A    between atoms: N_6  and  C_7 
REMARK    6  A    between atoms: N_8  and  C_9 
REMARK    7  A    between atoms: C_9  and  C_10 
ROOT
HETATM    1  C   UNL     1      41.040 -12.683  -0.029  1.00  0.00     0.204 C 
HETATM    2  N   UNL     1      41.408 -13.808  -0.735  1.00  0.00    -0.283 N 
HETATM    3  C   UNL     1      41.695 -14.982  -0.066  1.00  0.00     0.259 C 
HETATM    4  O   UNL     1      41.635 -16.079  -0.614  1.00  0.00    -0.267 OA
HETATM    5  C   UNL     1      42.058 -14.859   1.371  1.00  0.00     0.049 C 
HETATM    6  C   UNL     1      41.768 -13.667   1.929  1.00  0.00     0.083 C 
HETATM    7  C   UNL     1      42.068 -13.450   3.370  1.00  0.00    -0.000 A 
HETATM    8  C   UNL     1      42.912 -14.337   4.053  1.00  0.00    -0.044 A 
HETATM    9  C   UNL     1      43.241 -14.112   5.400  1.00  0.00     0.008 A 
HETATM   10  C   UNL     1      42.716 -13.015   6.079  1.00  0.00     0.001 A 
HETATM   11  C   UNL     1      41.871 -12.132   5.414  1.00  0.00     0.001 A 
HETATM   12  C   UNL     1      41.553 -12.347   4.070  1.00  0.00     0.014 A 
HETATM   13  C   UNL     1      43.542 -15.479   3.307  1.00  0.00     0.054 C 
HETATM   14  C   UNL     1      42.662 -16.046   2.148  1.00  0.00    -0.002 C 
HETATM   15  C   UNL     1      41.479 -16.892   2.702  1.00  0.00     0.015 C 
HETATM   16  C   UNL     1      41.906 -18.168   3.429  1.00  0.00     0.001 C 
HETATM   17  C   UNL     1      42.840 -19.025   2.584  1.00  0.00     0.000 C 
HETATM   18  C   UNL     1      44.038 -18.235   2.068  1.00  0.00     0.001 C 
HETATM   19  C   UNL     1      43.593 -16.979   1.313  1.00  0.00     0.015 C 
HETATM   20  N   UNL     1      41.178 -12.623   1.264  1.00  0.00    -0.217 NA
ENDROOT
BRANCH   1  21
HETATM   21  N   UNL     1      40.485 -11.603  -0.696  1.00  0.00    -0.171 NA
HETATM   22  H   UNL     1      40.277 -11.708  -1.686  1.00  0.00     0.156 HD
BRANCH  21  23
HETATM   23  N   UNL     1      39.432 -10.965  -0.003  1.00  0.00    -0.291 N 
HETATM   24  H   UNL     1      39.747 -10.114   0.464  1.00  0.00     0.183 HD
BRANCH  23  25
HETATM   25  C   UNL     1      38.167 -10.976  -0.534  1.00  0.00     0.182 C 
HETATM   26  S   UNL     1      37.667 -10.155  -1.902  1.00  0.00    -0.040 SA
BRANCH  25  27
HETATM   27  N   UNL     1      37.264 -11.795   0.088  1.00  0.00    -0.367 N 
HETATM   28  H   UNL     1      36.459 -12.013  -0.490  1.00  0.00     0.161 HD
BRANCH  27  29
HETATM   29  C   UNL     1      37.513 -12.685   1.212  1.00  0.00     0.117 C 
HETATM   30  C   UNL     1      37.645 -14.127   0.753  1.00  0.00     0.026 C 
ENDBRANCH  27  29
ENDBRANCH  25  27
ENDBRANCH  23  25
ENDBRANCH  21  23
ENDBRANCH   1  21
BRANCH   2  31
HETATM   31  C   UNL     1      41.373 -13.869  -2.192  1.00  0.00     0.173 C 
BRANCH  31  32
HETATM   32  C   UNL     1      40.096 -14.403  -2.813  1.00  0.00    -0.040 A 
HETATM   33  C   UNL     1      38.848 -13.781  -2.675  1.00  0.00     0.009 A 
HETATM   34  C   UNL     1      37.704 -14.345  -3.246  1.00  0.00     0.001 A 
HETATM   35  C   UNL     1      37.790 -15.541  -3.955  1.00  0.00     0.000 A 
HETATM   36  C   UNL     1      39.021 -16.175  -4.097  1.00  0.00     0.001 A 
HETATM   37  C   UNL     1      40.165 -15.610  -3.531  1.00  0.00     0.009 A 
ENDBRANCH  31  32
ENDBRANCH   2  31
TORSDOF 7
ENDMDL
MODEL 9
REMARK VINA RESULT:      -7.8      3.575      6.195
REMARK  7 active torsions:
REMARK  status: ('A' for Active; 'I' for Inactive)
REMARK    1  A    between atoms: C_2  and  N_3 
REMARK    2  A    between atoms: N_3  and  C_4 
REMARK    3  A    between atoms: C_4  and  N_5 
REMARK    4  A    between atoms: N_5  and  N_6 
REMARK    5  A    between atoms: N_6  and  C_7 
REMARK    6  A    between atoms: N_8  and  C_9 
REMARK    7  A    between atoms: C_9  and  C_10 
ROOT
HETATM    1  C   UNL     1      39.979 -14.601   5.294  1.00  0.00     0.204 C 
HETATM    2  N   UNL     1      40.042 -14.557   3.918  1.00  0.00    -0.283 N 
HETATM    3  C   UNL     1      40.763 -15.511   3.227  1.00  0.00     0.259 C 
HETATM    4  O   UNL     1      40.544 -15.768   2.046  1.00  0.00    -0.267 OA
HETATM    5  C   UNL     1      41.810 -16.239   3.991  1.00  0.00     0.049 C 
HETATM    6  C   UNL     1      41.728 -16.108   5.330  1.00  0.00     0.083 C 
HETATM    7  C   UNL     1      42.715 -16.818   6.188  1.00  0.00    -0.000 A 
HETATM    8  C   UNL     1      43.882 -17.351   5.624  1.00  0.00    -0.044 A 
HETATM    9  C   UNL     1      44.842 -17.979   6.433  1.00  0.00     0.008 A 
HETATM   10  C   UNL     1      44.636 -18.098   7.806  1.00  0.00     0.001 A 
HETATM   11  C   UNL     1      43.477 -17.580   8.377  1.00  0.00     0.001 A 
HETATM   12  C   UNL     1      42.527 -16.943   7.574  1.00  0.00     0.014 A 
HETATM   13  C   UNL     1      44.146 -17.161   4.156  1.00  0.00     0.054 C 
HETATM   14  C   UNL     1      42.856 -17.118   3.277  1.00  0.00    -0.002 C 
HETATM   15  C   UNL     1      42.240 -18.537   3.112  1.00  0.00     0.015 C 
HETATM   16  C   UNL     1      43.121 -19.518   2.335  1.00  0.00     0.001 C 
HETATM   17  C   UNL     1      43.559 -18.954   0.990  1.00  0.00     0.000 C 
HETATM   18  C   UNL     1      44.214 -17.584   1.125  1.00  0.00     0.001 C 
HETATM   19  C   UNL     1      43.305 -16.603   1.874  1.00  0.00     0.015 C 
HETATM   20  N   UNL     1      40.768 -15.377   5.980  1.00  0.00    -0.217 NA
ENDROOT
BRANCH   1  21
HETATM   21  N   UNL     1      39.044 -13.832   5.965  1.00  0.00    -0.171 NA
HETATM   22  H   UNL     1      38.121 -14.230   6.124  1.00  0.00     0.156 HD
BRANCH  21  23
HETATM   23  N   UNL     1      39.539 -13.179   7.116  1.00  0.00    -0.291 N 
HETATM   24  H   UNL     1      40.175 -13.776   7.645  1.00  0.00     0.183 HD
BRANCH  23  25
HETATM   25  C   UNL     1      39.810 -11.834   7.069  1.00  0.00     0.182 C 
HETATM   26  S   UNL     1      39.644 -10.844   5.732  1.00  0.00    -0.040 SA
BRANCH  25  27
HETATM   27  N   UNL     1      40.180 -11.257   8.253  1.00  0.00    -0.367 N 
HETATM   28  H   UNL     1      41.101 -10.834   8.220  1.00  0.00     0.161 HD
BRANCH  27  29
HETATM   29  C   UNL     1      39.303 -10.814   9.327  1.00  0.00     0.117 C 
HETATM   30  C   UNL     1      39.032  -9.322   9.235  1.00  0.00     0.026 C 
ENDBRANCH  27  29
ENDBRANCH  25  27
ENDBRANCH  23  25
ENDBRANCH  21  23
ENDBRANCH   1  21
BRANCH   2  31
HETATM   31  C   UNL     1      39.254 -13.620   3.124  1.00  0.00     0.173 C 
BRANCH  31  32
HETATM   32  C   UNL     1      40.004 -12.839   2.062  1.00  0.00    -0.040 A 
HETATM   33  C   UNL     1      41.148 -12.074   2.326  1.00  0.00     0.009 A 
HETATM   34  C   UNL     1      41.772 -11.351   1.306  1.00  0.00     0.001 A 
HETATM   35  C   UNL     1      41.258 -11.375   0.012  1.00  0.00     0.000 A 
HETATM   36  C   UNL     1      40.118 -12.125  -0.266  1.00  0.00     0.001 A 
HETATM   37  C   UNL     1      39.497 -12.852   0.750  1.00  0.00     0.009 A 
ENDBRANCH  31  32
ENDBRANCH   2  31
TORSDOF 7
ENDMDL
MODEL 10
REMARK VINA RESULT:      -7.8      3.033      5.528
REMARK  7 active torsions:
REMARK  status: ('A' for Active; 'I' for Inactive)
REMARK    1  A    between atoms: C_2  and  N_3 
REMARK    2  A    between atoms: N_3  and  C_4 
REMARK    3  A    between atoms: C_4  and  N_5 
REMARK    4  A    between atoms: N_5  and  N_6 
REMARK    5  A    between atoms: N_6  and  C_7 
REMARK    6  A    between atoms: N_8  and  C_9 
REMARK    7  A    between atoms: C_9  and  C_10 
ROOT
HETATM    1  C   UNL     1      40.960 -12.672   0.105  1.00  0.00     0.204 C 
HETATM    2  N   UNL     1      41.334 -13.772  -0.638  1.00  0.00    -0.283 N 
HETATM    3  C   UNL     1      41.654 -14.958  -0.008  1.00  0.00     0.259 C 
HETATM    4  O   UNL     1      41.602 -16.040  -0.586  1.00  0.00    -0.267 OA
HETATM    5  C   UNL     1      42.042 -14.868   1.425  1.00  0.00     0.049 C 
HETATM    6  C   UNL     1      41.742 -13.697   2.021  1.00  0.00     0.083 C 
HETATM    7  C   UNL     1      42.066 -13.514   3.462  1.00  0.00    -0.000 A 
HETATM    8  C   UNL     1      42.938 -14.405   4.104  1.00  0.00    -0.044 A 
HETATM    9  C   UNL     1      43.288 -14.212   5.450  1.00  0.00     0.008 A 
HETATM   10  C   UNL     1      42.758 -13.143   6.169  1.00  0.00     0.001 A 
HETATM   11  C   UNL     1      41.885 -12.257   5.545  1.00  0.00     0.001 A 
HETATM   12  C   UNL     1      41.546 -12.441   4.201  1.00  0.00     0.014 A 
HETATM   13  C   UNL     1      43.573 -15.516   3.315  1.00  0.00     0.054 C 
HETATM   14  C   UNL     1      42.680 -16.065   2.157  1.00  0.00    -0.002 C 
HETATM   15  C   UNL     1      41.523 -16.947   2.709  1.00  0.00     0.015 C 
HETATM   16  C   UNL     1      41.985 -18.235   3.392  1.00  0.00     0.001 C 
HETATM   17  C   UNL     1      42.917 -19.052   2.506  1.00  0.00     0.000 C 
HETATM   18  C   UNL     1      44.092 -18.227   1.991  1.00  0.00     0.001 C 
HETATM   19  C   UNL     1      43.611 -16.958   1.279  1.00  0.00     0.015 C 
HETATM   20  N   UNL     1      41.122 -12.646   1.397  1.00  0.00    -0.217 NA
ENDROOT
BRANCH   1  21
HETATM   21  N   UNL     1      40.375 -11.585  -0.521  1.00  0.00    -0.171 NA
HETATM   22  H   UNL     1      39.380 -11.428  -0.378  1.00  0.00     0.156 HD
BRANCH  21  23
HETATM   23  N   UNL     1      41.114 -10.385  -0.424  1.00  0.00    -0.291 N 
HETATM   24  H   UNL     1      41.365 -10.172   0.542  1.00  0.00     0.183 HD
BRANCH  23  25
HETATM   25  C   UNL     1      42.016 -10.063  -1.407  1.00  0.00     0.182 C 
HETATM   26  S   UNL     1      43.659  -9.833  -1.199  1.00  0.00    -0.040 SA
BRANCH  25  27
HETATM   27  N   UNL     1      41.516  -9.998  -2.679  1.00  0.00    -0.367 N 
HETATM   28  H   UNL     1      40.550  -9.689  -2.713  1.00  0.00     0.161 HD
BRANCH  27  29
HETATM   29  C   UNL     1      42.273  -9.891  -3.917  1.00  0.00     0.117 C 
HETATM   30  C   UNL     1      42.379 -11.236  -4.614  1.00  0.00     0.026 C 
ENDBRANCH  27  29
ENDBRANCH  25  27
ENDBRANCH  23  25
ENDBRANCH  21  23
ENDBRANCH   1  21
BRANCH   2  31
HETATM   31  C   UNL     1      41.272 -13.793  -2.096  1.00  0.00     0.173 C 
BRANCH  31  32
HETATM   32  C   UNL     1      40.005 -14.358  -2.708  1.00  0.00    -0.040 A 
HETATM   33  C   UNL     1      38.719 -13.893  -2.397  1.00  0.00     0.009 A 
HETATM   34  C   UNL     1      37.591 -14.481  -2.973  1.00  0.00     0.001 A 
HETATM   35  C   UNL     1      37.729 -15.547  -3.860  1.00  0.00     0.000 A 
HETATM   36  C   UNL     1      38.998 -16.025  -4.174  1.00  0.00     0.001 A 
HETATM   37  C   UNL     1      40.127 -15.435  -3.604  1.00  0.00     0.009 A 
ENDBRANCH  31  32
ENDBRANCH   2  31
TORSDOF 7
ENDMDL
