MODEL 1
REMARK VINA RESULT:      -8.6      0.000      0.000
REMARK  7 active torsions:
REMARK  status: ('A' for Active; 'I' for Inactive)
REMARK    1  A    between atoms: C_2  and  O_3 
REMARK    2  A    between atoms: O_3  and  C_4 
REMARK    3  A    between atoms: C_5  and  N_6 
REMARK       I    between atoms: N_6  and  C_7 
REMARK    4  A    between atoms: C_7  and  C_8 
REMARK    5  A    between atoms: C_8  and  S_9 
REMARK    6  A    between atoms: S_9  and  C_10 
REMARK    7  A    between atoms: N_11  and  C_12 
ROOT
HETATM    1  C   UNL     1      43.012 -15.110   5.799  1.00  0.00     0.177 A 
HETATM    2  N   UNL     1      42.558 -16.201   5.025  1.00  0.00    -0.276 N 
HETATM    3  C   UNL     1      41.455 -15.969   4.123  1.00  0.00     0.124 A 
HETATM    4  N   UNL     1      40.891 -16.925   3.409  1.00  0.00    -0.384 N 
HETATM    5  H   UNL     1      40.106 -16.729   2.807  1.00  0.00     0.157 HD
HETATM    6  H   UNL     1      41.228 -17.876   3.478  1.00  0.00     0.157 HD
HETATM    7  C   UNL     1      40.953 -14.634   4.065  1.00  0.00     0.081 A 
HETATM    8  C   UNL     1      41.514 -13.675   4.903  1.00  0.00     0.187 A 
HETATM    9  N   UNL     1      40.954 -12.482   4.754  1.00  0.00    -0.153 NA
HETATM   10  N   UNL     1      40.030 -12.687   3.798  1.00  0.00    -0.280 N 
HETATM   11  H   UNL     1      39.469 -11.894   3.502  1.00  0.00     0.189 HD
HETATM   12  C   UNL     1      39.971 -13.990   3.348  1.00  0.00     0.042 A 
HETATM   13  C   UNL     1      39.000 -14.412   2.314  1.00  0.00     0.071 C 
HETATM   14  N   UNL     1      42.539 -13.897   5.813  1.00  0.00    -0.202 NA
ENDROOT
BRANCH   1  15
HETATM   15  S   UNL     1      44.359 -15.358   6.947  1.00  0.00    -0.082 SA
BRANCH  15  16
HETATM   16  C   UNL     1      45.306 -13.840   6.639  1.00  0.00     0.185 C 
BRANCH  16  17
HETATM   17  C   UNL     1      45.372 -12.987   7.896  1.00  0.00     0.232 C 
HETATM   18  N   UNL     1      44.190 -13.007   8.626  1.00  0.00    -0.324 N 
HETATM   19  H   UNL     1      43.711 -13.897   8.672  1.00  0.00     0.169 HD
HETATM   20  O   UNL     1      46.399 -12.405   8.246  1.00  0.00    -0.272 OA
BRANCH  18  21
HETATM   21  C   UNL     1      43.904 -12.071   9.641  1.00  0.00     0.068 A 
HETATM   22  C   UNL     1      43.280 -10.839   9.380  1.00  0.00     0.095 A 
HETATM   23  C   UNL     1      42.999  -9.960  10.429  1.00  0.00     0.039 A 
HETATM   24  C   UNL     1      43.350 -10.298  11.738  1.00  0.00     0.003 A 
HETATM   25  C   UNL     1      43.941 -11.533  12.004  1.00  0.00     0.002 A 
HETATM   26  C   UNL     1      44.198 -12.426  10.962  1.00  0.00     0.032 A 
BRANCH  22  27
HETATM   27  O   UNL     1      42.738 -10.604   8.139  1.00  0.00    -0.349 OA
BRANCH  27  28
HETATM   28  C   UNL     1      41.493  -9.903   8.185  1.00  0.00     0.171 C 
HETATM   29  C   UNL     1      40.350 -10.880   7.986  1.00  0.00     0.034 C 
ENDBRANCH  27  28
ENDBRANCH  22  27
ENDBRANCH  18  21
ENDBRANCH  16  17
ENDBRANCH  15  16
ENDBRANCH   1  15
BRANCH   2  30
HETATM   30  C   UNL     1      43.159 -17.492   5.103  1.00  0.00     0.043 A 
HETATM   31  C   UNL     1      42.934 -18.328   6.208  1.00  0.00     0.031 A 
HETATM   32  C   UNL     1      43.465 -19.620   6.239  1.00  0.00     0.021 A 
HETATM   33  C   UNL     1      44.213 -20.087   5.160  1.00  0.00     0.011 A 
HETATM   34 BR   UNL     1      44.918 -21.839   5.196  1.00  0.00    -0.051 Br
HETATM   35  C   UNL     1      44.440 -19.273   4.052  1.00  0.00     0.021 A 
HETATM   36  C   UNL     1      43.914 -17.978   4.024  1.00  0.00     0.031 A 
ENDBRANCH   2  30
TORSDOF 7
ENDMDL
MODEL 2
REMARK VINA RESULT:      -8.5      4.733      8.355
REMARK  7 active torsions:
REMARK  status: ('A' for Active; 'I' for Inactive)
REMARK    1  A    between atoms: C_2  and  O_3 
REMARK    2  A    between atoms: O_3  and  C_4 
REMARK    3  A    between atoms: C_5  and  N_6 
REMARK       I    between atoms: N_6  and  C_7 
REMARK    4  A    between atoms: C_7  and  C_8 
REMARK    5  A    between atoms: C_8  and  S_9 
REMARK    6  A    between atoms: S_9  and  C_10 
REMARK    7  A    between atoms: N_11  and  C_12 
ROOT
HETATM    1  C   UNL     1      40.454 -15.641   2.422  1.00  0.00     0.177 A 
HETATM    2  N   UNL     1      39.901 -14.374   2.130  1.00  0.00    -0.276 N 
HETATM    3  C   UNL     1      39.613 -13.497   3.240  1.00  0.00     0.124 A 
HETATM    4  N   UNL     1      39.022 -12.325   3.101  1.00  0.00    -0.384 N 
HETATM    5  H   UNL     1      38.816 -11.749   3.903  1.00  0.00     0.157 HD
HETATM    6  H   UNL     1      38.747 -12.001   2.184  1.00  0.00     0.157 HD
HETATM    7  C   UNL     1      39.961 -13.981   4.537  1.00  0.00     0.081 A 
HETATM    8  C   UNL     1      40.496 -15.260   4.649  1.00  0.00     0.187 A 
HETATM    9  N   UNL     1      40.769 -15.587   5.905  1.00  0.00    -0.153 NA
HETATM   10  N   UNL     1      40.411 -14.491   6.598  1.00  0.00    -0.280 N 
HETATM   11  H   UNL     1      40.541 -14.503   7.606  1.00  0.00     0.189 HD
HETATM   12  C   UNL     1      39.893 -13.479   5.817  1.00  0.00     0.042 A 
HETATM   13  C   UNL     1      39.422 -12.206   6.405  1.00  0.00     0.071 C 
HETATM   14  N   UNL     1      40.729 -16.134   3.595  1.00  0.00    -0.202 NA
ENDROOT
BRANCH   1  15
HETATM   15  S   UNL     1      40.804 -16.768   1.080  1.00  0.00    -0.082 SA
BRANCH  15  16
HETATM   16  C   UNL     1      42.516 -16.288   0.716  1.00  0.00     0.185 C 
BRANCH  16  17
HETATM   17  C   UNL     1      43.487 -17.340   1.227  1.00  0.00     0.232 C 
HETATM   18  N   UNL     1      42.850 -18.468   1.725  1.00  0.00    -0.324 N 
HETATM   19  H   UNL     1      42.030 -18.776   1.217  1.00  0.00     0.169 HD
HETATM   20  O   UNL     1      44.708 -17.211   1.136  1.00  0.00    -0.272 OA
BRANCH  18  21
HETATM   21  C   UNL     1      43.507 -19.428   2.522  1.00  0.00     0.068 A 
HETATM   22  C   UNL     1      43.874 -19.179   3.856  1.00  0.00     0.095 A 
HETATM   23  C   UNL     1      44.503 -20.176   4.607  1.00  0.00     0.039 A 
HETATM   24  C   UNL     1      44.780 -21.417   4.028  1.00  0.00     0.003 A 
HETATM   25  C   UNL     1      44.389 -21.678   2.716  1.00  0.00     0.002 A 
HETATM   26  C   UNL     1      43.736 -20.693   1.971  1.00  0.00     0.032 A 
BRANCH  22  27
HETATM   27  O   UNL     1      43.408 -18.051   4.487  1.00  0.00    -0.349 OA
BRANCH  27  28
HETATM   28  C   UNL     1      43.409 -18.156   5.913  1.00  0.00     0.171 C 
HETATM   29  C   UNL     1      44.232 -17.029   6.508  1.00  0.00     0.034 C 
ENDBRANCH  27  28
ENDBRANCH  22  27
ENDBRANCH  18  21
ENDBRANCH  16  17
ENDBRANCH  15  16
ENDBRANCH   1  15
BRANCH   2  30
HETATM   30  C   UNL     1      39.639 -13.948   0.794  1.00  0.00     0.043 A 
HETATM   31  C   UNL     1      38.376 -14.133   0.212  1.00  0.00     0.031 A 
HETATM   32  C   UNL     1      38.107 -13.644  -1.069  1.00  0.00     0.021 A 
HETATM   33  C   UNL     1      39.097 -12.955  -1.768  1.00  0.00     0.011 A 
HETATM   34 BR   UNL     1      38.728 -12.280  -3.494  1.00  0.00    -0.051 Br
HETATM   35  C   UNL     1      40.353 -12.755  -1.201  1.00  0.00     0.021 A 
HETATM   36  C   UNL     1      40.624 -13.251   0.077  1.00  0.00     0.031 A 
ENDBRANCH   2  30
TORSDOF 7
ENDMDL
MODEL 3
REMARK VINA RESULT:      -8.5      4.346      7.869
REMARK  7 active torsions:
REMARK  status: ('A' for Active; 'I' for Inactive)
REMARK    1  A    between atoms: C_2  and  O_3 
REMARK    2  A    between atoms: O_3  and  C_4 
REMARK    3  A    between atoms: C_5  and  N_6 
REMARK       I    between atoms: N_6  and  C_7 
REMARK    4  A    between atoms: C_7  and  C_8 
REMARK    5  A    between atoms: C_8  and  S_9 
REMARK    6  A    between atoms: S_9  and  C_10 
REMARK    7  A    between atoms: N_11  and  C_12 
ROOT
HETATM    1  C   UNL     1      39.865 -15.082   2.293  1.00  0.00     0.177 A 
HETATM    2  N   UNL     1      40.350 -13.955   2.994  1.00  0.00    -0.276 N 
HETATM    3  C   UNL     1      39.670 -12.698   2.791  1.00  0.00     0.124 A 
HETATM    4  N   UNL     1      40.078 -11.561   3.324  1.00  0.00    -0.384 N 
HETATM    5  H   UNL     1      39.591 -10.697   3.141  1.00  0.00     0.157 HD
HETATM    6  H   UNL     1      40.904 -11.542   3.907  1.00  0.00     0.157 HD
HETATM    7  C   UNL     1      38.532 -12.723   1.929  1.00  0.00     0.081 A 
HETATM    8  C   UNL     1      38.191 -13.922   1.313  1.00  0.00     0.187 A 
HETATM    9  N   UNL     1      37.122 -13.807   0.536  1.00  0.00    -0.153 NA
HETATM   10  N   UNL     1      36.774 -12.515   0.674  1.00  0.00    -0.280 N 
HETATM   11  H   UNL     1      35.956 -12.187   0.168  1.00  0.00     0.189 HD
HETATM   12  C   UNL     1      37.610 -11.795   1.502  1.00  0.00     0.042 A 
HETATM   13  C   UNL     1      37.401 -10.352   1.755  1.00  0.00     0.071 C 
HETATM   14  N   UNL     1      38.868 -15.126   1.457  1.00  0.00    -0.202 NA
ENDROOT
BRANCH   1  15
HETATM   15  S   UNL     1      40.690 -16.654   2.495  1.00  0.00    -0.082 SA
BRANCH  15  16
HETATM   16  C   UNL     1      41.990 -16.480   1.240  1.00  0.00     0.185 C 
BRANCH  16  17
HETATM   17  C   UNL     1      43.045 -17.562   1.409  1.00  0.00     0.232 C 
HETATM   18  N   UNL     1      42.533 -18.739   1.940  1.00  0.00    -0.324 N 
HETATM   19  H   UNL     1      41.612 -19.009   1.617  1.00  0.00     0.169 HD
HETATM   20  O   UNL     1      44.210 -17.412   1.041  1.00  0.00    -0.272 OA
BRANCH  18  21
HETATM   21  C   UNL     1      43.351 -19.758   2.468  1.00  0.00     0.068 A 
HETATM   22  C   UNL     1      43.977 -19.652   3.723  1.00  0.00     0.095 A 
HETATM   23  C   UNL     1      44.759 -20.704   4.206  1.00  0.00     0.039 A 
HETATM   24  C   UNL     1      44.931 -21.858   3.438  1.00  0.00     0.003 A 
HETATM   25  C   UNL     1      44.287 -21.980   2.208  1.00  0.00     0.002 A 
HETATM   26  C   UNL     1      43.482 -20.941   1.733  1.00  0.00     0.032 A 
BRANCH  22  27
HETATM   27  O   UNL     1      43.631 -18.624   4.566  1.00  0.00    -0.349 OA
BRANCH  27  28
HETATM   28  C   UNL     1      43.958 -18.877   5.935  1.00  0.00     0.171 C 
HETATM   29  C   UNL     1      44.922 -17.817   6.434  1.00  0.00     0.034 C 
ENDBRANCH  27  28
ENDBRANCH  22  27
ENDBRANCH  18  21
ENDBRANCH  16  17
ENDBRANCH  15  16
ENDBRANCH   1  15
BRANCH   2  30
HETATM   30  C   UNL     1      41.461 -14.033   3.884  1.00  0.00     0.043 A 
HETATM   31  C   UNL     1      42.762 -13.748   3.441  1.00  0.00     0.031 A 
HETATM   32  C   UNL     1      43.833 -13.753   4.339  1.00  0.00     0.021 A 
HETATM   33  C   UNL     1      43.606 -14.029   5.686  1.00  0.00     0.011 A 
HETATM   34 BR   UNL     1      45.051 -14.020   6.902  1.00  0.00    -0.051 Br
HETATM   35  C   UNL     1      42.319 -14.307   6.143  1.00  0.00     0.021 A 
HETATM   36  C   UNL     1      41.250 -14.309   5.244  1.00  0.00     0.031 A 
ENDBRANCH   2  30
TORSDOF 7
ENDMDL
MODEL 4
REMARK VINA RESULT:      -8.3      1.895      3.314
REMARK  7 active torsions:
REMARK  status: ('A' for Active; 'I' for Inactive)
REMARK    1  A    between atoms: C_2  and  O_3 
REMARK    2  A    between atoms: O_3  and  C_4 
REMARK    3  A    between atoms: C_5  and  N_6 
REMARK       I    between atoms: N_6  and  C_7 
REMARK    4  A    between atoms: C_7  and  C_8 
REMARK    5  A    between atoms: C_8  and  S_9 
REMARK    6  A    between atoms: S_9  and  C_10 
REMARK    7  A    between atoms: N_11  and  C_12 
ROOT
HETATM    1  C   UNL     1      40.638 -12.884   4.465  1.00  0.00     0.177 A 
HETATM    2  N   UNL     1      40.551 -14.213   3.992  1.00  0.00    -0.276 N 
HETATM    3  C   UNL     1      39.653 -14.474   2.892  1.00  0.00     0.124 A 
HETATM    4  N   UNL     1      39.425 -15.684   2.417  1.00  0.00    -0.384 N 
HETATM    5  H   UNL     1      38.772 -15.831   1.662  1.00  0.00     0.157 HD
HETATM    6  H   UNL     1      39.888 -16.485   2.825  1.00  0.00     0.157 HD
HETATM    7  C   UNL     1      38.966 -13.345   2.352  1.00  0.00     0.081 A 
HETATM    8  C   UNL     1      39.164 -12.101   2.942  1.00  0.00     0.187 A 
HETATM    9  N   UNL     1      38.464 -11.142   2.350  1.00  0.00    -0.153 NA
HETATM   10  N   UNL     1      37.822 -11.790   1.360  1.00  0.00    -0.280 N 
HETATM   11  H   UNL     1      37.219 -11.245   0.750  1.00  0.00     0.189 HD
HETATM   12  C   UNL     1      38.077 -13.145   1.321  1.00  0.00     0.042 A 
HETATM   13  C   UNL     1      37.441 -14.027   0.317  1.00  0.00     0.071 C 
HETATM   14  N   UNL     1      39.983 -11.845   4.033  1.00  0.00    -0.202 NA
ENDROOT
BRANCH   1  15
HETATM   15  S   UNL     1      41.719 -12.519   5.840  1.00  0.00    -0.082 SA
BRANCH  15  16
HETATM   16  C   UNL     1      40.916 -11.019   6.471  1.00  0.00     0.185 C 
BRANCH  16  17
HETATM   17  C   UNL     1      41.756 -10.382   7.566  1.00  0.00     0.232 C 
HETATM   18  N   UNL     1      42.173 -11.293   8.528  1.00  0.00    -0.324 N 
HETATM   19  H   UNL     1      42.438 -12.209   8.188  1.00  0.00     0.169 HD
HETATM   20  O   UNL     1      42.079  -9.194   7.544  1.00  0.00    -0.272 OA
BRANCH  18  21
HETATM   21  C   UNL     1      42.690 -10.900   9.779  1.00  0.00     0.068 A 
HETATM   22  C   UNL     1      44.070 -10.845  10.044  1.00  0.00     0.095 A 
HETATM   23  C   UNL     1      44.527 -10.426  11.296  1.00  0.00     0.039 A 
HETATM   24  C   UNL     1      43.613 -10.075  12.292  1.00  0.00     0.003 A 
HETATM   25  C   UNL     1      42.245 -10.098  12.023  1.00  0.00     0.002 A 
HETATM   26  C   UNL     1      41.785 -10.490  10.764  1.00  0.00     0.032 A 
BRANCH  22  27
HETATM   27  O   UNL     1      44.963 -10.975   9.007  1.00  0.00    -0.349 OA
BRANCH  27  28
HETATM   28  C   UNL     1      45.693 -12.204   9.036  1.00  0.00     0.171 C 
HETATM   29  C   UNL     1      45.156 -13.141   7.971  1.00  0.00     0.034 C 
ENDBRANCH  27  28
ENDBRANCH  22  27
ENDBRANCH  18  21
ENDBRANCH  16  17
ENDBRANCH  15  16
ENDBRANCH   1  15
BRANCH   2  30
HETATM   30  C   UNL     1      41.321 -15.273   4.554  1.00  0.00     0.043 A 
HETATM   31  C   UNL     1      40.835 -16.024   5.635  1.00  0.00     0.031 A 
HETATM   32  C   UNL     1      41.564 -17.109   6.130  1.00  0.00     0.021 A 
HETATM   33  C   UNL     1      42.776 -17.456   5.536  1.00  0.00     0.011 A 
HETATM   34 BR   UNL     1      43.753 -18.932   6.195  1.00  0.00    -0.051 Br
HETATM   35  C   UNL     1      43.269 -16.726   4.457  1.00  0.00     0.021 A 
HETATM   36  C   UNL     1      42.544 -15.636   3.968  1.00  0.00     0.031 A 
ENDBRANCH   2  30
TORSDOF 7
ENDMDL
MODEL 5
REMARK VINA RESULT:      -8.3      4.807      8.631
REMARK  7 active torsions:
REMARK  status: ('A' for Active; 'I' for Inactive)
REMARK    1  A    between atoms: C_2  and  O_3 
REMARK    2  A    between atoms: O_3  and  C_4 
REMARK    3  A    between atoms: C_5  and  N_6 
REMARK       I    between atoms: N_6  and  C_7 
REMARK    4  A    between atoms: C_7  and  C_8 
REMARK    5  A    between atoms: C_8  and  S_9 
REMARK    6  A    between atoms: S_9  and  C_10 
REMARK    7  A    between atoms: N_11  and  C_12 
ROOT
HETATM    1  C   UNL     1      41.776 -17.089   2.458  1.00  0.00     0.177 A 
HETATM    2  N   UNL     1      42.357 -16.746   3.699  1.00  0.00    -0.276 N 
HETATM    3  C   UNL     1      43.274 -17.689   4.293  1.00  0.00     0.124 A 
HETATM    4  N   UNL     1      43.816 -17.519   5.483  1.00  0.00    -0.384 N 
HETATM    5  H   UNL     1      44.435 -18.212   5.877  1.00  0.00     0.157 HD
HETATM    6  H   UNL     1      43.596 -16.696   6.028  1.00  0.00     0.157 HD
HETATM    7  C   UNL     1      43.544 -18.872   3.539  1.00  0.00     0.081 A 
HETATM    8  C   UNL     1      42.879 -19.058   2.331  1.00  0.00     0.187 A 
HETATM    9  N   UNL     1      43.215 -20.195   1.738  1.00  0.00    -0.153 NA
HETATM   10  N   UNL     1      44.116 -20.733   2.580  1.00  0.00    -0.280 N 
HETATM   11  H   UNL     1      44.532 -21.624   2.324  1.00  0.00     0.189 HD
HETATM   12  C   UNL     1      44.347 -19.976   3.710  1.00  0.00     0.042 A 
HETATM   13  C   UNL     1      45.288 -20.418   4.763  1.00  0.00     0.071 C 
HETATM   14  N   UNL     1      41.956 -18.183   1.774  1.00  0.00    -0.202 NA
ENDROOT
BRANCH   1  15
HETATM   15  S   UNL     1      40.617 -15.961   1.697  1.00  0.00    -0.082 SA
BRANCH  15  16
HETATM   16  C   UNL     1      41.086 -16.168  -0.044  1.00  0.00     0.185 C 
BRANCH  16  17
HETATM   17  C   UNL     1      40.902 -14.866  -0.806  1.00  0.00     0.232 C 
HETATM   18  N   UNL     1      42.096 -14.349  -1.291  1.00  0.00    -0.324 N 
HETATM   19  H   UNL     1      42.762 -15.025  -1.645  1.00  0.00     0.169 HD
HETATM   20  O   UNL     1      39.792 -14.376  -1.019  1.00  0.00    -0.272 OA
BRANCH  18  21
HETATM   21  C   UNL     1      42.224 -13.023  -1.752  1.00  0.00     0.068 A 
HETATM   22  C   UNL     1      42.303 -11.923  -0.879  1.00  0.00     0.095 A 
HETATM   23  C   UNL     1      42.452 -10.632  -1.391  1.00  0.00     0.039 A 
HETATM   24  C   UNL     1      42.508 -10.430  -2.772  1.00  0.00     0.003 A 
HETATM   25  C   UNL     1      42.461 -11.520  -3.639  1.00  0.00     0.002 A 
HETATM   26  C   UNL     1      42.340 -12.815  -3.130  1.00  0.00     0.032 A 
BRANCH  22  27
HETATM   27  O   UNL     1      42.470 -12.140   0.468  1.00  0.00    -0.349 OA
BRANCH  27  28
HETATM   28  C   UNL     1      41.594 -11.356   1.282  1.00  0.00     0.171 C 
HETATM   29  C   UNL     1      40.434 -12.212   1.754  1.00  0.00     0.034 C 
ENDBRANCH  27  28
ENDBRANCH  22  27
ENDBRANCH  18  21
ENDBRANCH  16  17
ENDBRANCH  15  16
ENDBRANCH   1  15
BRANCH   2  30
HETATM   30  C   UNL     1      42.075 -15.511   4.355  1.00  0.00     0.043 A 
HETATM   31  C   UNL     1      42.832 -14.361   4.085  1.00  0.00     0.031 A 
HETATM   32  C   UNL     1      42.499 -13.139   4.676  1.00  0.00     0.021 A 
HETATM   33  C   UNL     1      41.400 -13.059   5.529  1.00  0.00     0.011 A 
HETATM   34 BR   UNL     1      40.941 -11.404   6.314  1.00  0.00    -0.051 Br
HETATM   35  C   UNL     1      40.634 -14.190   5.801  1.00  0.00     0.021 A 
HETATM   36  C   UNL     1      40.971 -15.414   5.216  1.00  0.00     0.031 A 
ENDBRANCH   2  30
TORSDOF 7
ENDMDL
MODEL 6
REMARK VINA RESULT:      -8.2      4.359      8.081
REMARK  7 active torsions:
REMARK  status: ('A' for Active; 'I' for Inactive)
REMARK    1  A    between atoms: C_2  and  O_3 
REMARK    2  A    between atoms: O_3  and  C_4 
REMARK    3  A    between atoms: C_5  and  N_6 
REMARK       I    between atoms: N_6  and  C_7 
REMARK    4  A    between atoms: C_7  and  C_8 
REMARK    5  A    between atoms: C_8  and  S_9 
REMARK    6  A    between atoms: S_9  and  C_10 
REMARK    7  A    between atoms: N_11  and  C_12 
ROOT
HETATM    1  C   UNL     1      41.935 -14.515   3.523  1.00  0.00     0.177 A 
HETATM    2  N   UNL     1      40.889 -13.569   3.606  1.00  0.00    -0.276 N 
HETATM    3  C   UNL     1      40.052 -13.394   2.443  1.00  0.00     0.124 A 
HETATM    4  N   UNL     1      39.097 -12.486   2.369  1.00  0.00    -0.384 N 
HETATM    5  H   UNL     1      38.547 -12.376   1.531  1.00  0.00     0.157 HD
HETATM    6  H   UNL     1      38.922 -11.869   3.151  1.00  0.00     0.157 HD
HETATM    7  C   UNL     1      40.336 -14.235   1.325  1.00  0.00     0.081 A 
HETATM    8  C   UNL     1      41.410 -15.114   1.408  1.00  0.00     0.187 A 
HETATM    9  N   UNL     1      41.567 -15.830   0.303  1.00  0.00    -0.153 NA
HETATM   10  N   UNL     1      40.566 -15.404  -0.489  1.00  0.00    -0.280 N 
HETATM   11  H   UNL     1      40.476 -15.828  -1.408  1.00  0.00     0.189 HD
HETATM   12  C   UNL     1      39.788 -14.416   0.075  1.00  0.00     0.042 A 
HETATM   13  C   UNL     1      38.655 -13.806  -0.656  1.00  0.00     0.071 C 
HETATM   14  N   UNL     1      42.256 -15.254   2.501  1.00  0.00    -0.202 NA
ENDROOT
BRANCH   1  15
HETATM   15  S   UNL     1      43.011 -14.747   4.931  1.00  0.00    -0.082 SA
BRANCH  15  16
HETATM   16  C   UNL     1      42.031 -15.952   5.870  1.00  0.00     0.185 C 
BRANCH  16  17
HETATM   17  C   UNL     1      42.121 -17.329   5.233  1.00  0.00     0.232 C 
HETATM   18  N   UNL     1      43.394 -17.624   4.762  1.00  0.00    -0.324 N 
HETATM   19  H   UNL     1      44.165 -17.307   5.335  1.00  0.00     0.169 HD
HETATM   20  O   UNL     1      41.170 -18.111   5.211  1.00  0.00    -0.272 OA
BRANCH  18  21
HETATM   21  C   UNL     1      43.652 -18.689   3.874  1.00  0.00     0.068 A 
HETATM   22  C   UNL     1      44.393 -19.823   4.249  1.00  0.00     0.095 A 
HETATM   23  C   UNL     1      44.599 -20.859   3.334  1.00  0.00     0.039 A 
HETATM   24  C   UNL     1      44.080 -20.763   2.041  1.00  0.00     0.003 A 
HETATM   25  C   UNL     1      43.318 -19.654   1.675  1.00  0.00     0.002 A 
HETATM   26  C   UNL     1      43.087 -18.628   2.596  1.00  0.00     0.032 A 
BRANCH  22  27
HETATM   27  O   UNL     1      44.710 -20.017   5.572  1.00  0.00    -0.349 OA
BRANCH  27  28
HETATM   28  C   UNL     1      44.295 -21.290   6.075  1.00  0.00     0.171 C 
HETATM   29  C   UNL     1      43.526 -21.102   7.368  1.00  0.00     0.034 C 
ENDBRANCH  27  28
ENDBRANCH  22  27
ENDBRANCH  18  21
ENDBRANCH  16  17
ENDBRANCH  15  16
ENDBRANCH   1  15
BRANCH   2  30
HETATM   30  C   UNL     1      40.640 -12.811   4.788  1.00  0.00     0.043 A 
HETATM   31  C   UNL     1      41.283 -11.583   5.007  1.00  0.00     0.031 A 
HETATM   32  C   UNL     1      40.975 -10.812   6.131  1.00  0.00     0.021 A 
HETATM   33  C   UNL     1      40.012 -11.260   7.034  1.00  0.00     0.011 A 
HETATM   34 BR   UNL     1      39.584 -10.211   8.546  1.00  0.00    -0.051 Br
HETATM   35  C   UNL     1      39.359 -12.473   6.827  1.00  0.00     0.021 A 
HETATM   36  C   UNL     1      39.673 -13.247   5.707  1.00  0.00     0.031 A 
ENDBRANCH   2  30
TORSDOF 7
ENDMDL
MODEL 7
REMARK VINA RESULT:      -8.2      4.616      7.744
REMARK  7 active torsions:
REMARK  status: ('A' for Active; 'I' for Inactive)
REMARK    1  A    between atoms: C_2  and  O_3 
REMARK    2  A    between atoms: O_3  and  C_4 
REMARK    3  A    between atoms: C_5  and  N_6 
REMARK       I    between atoms: N_6  and  C_7 
REMARK    4  A    between atoms: C_7  and  C_8 
REMARK    5  A    between atoms: C_8  and  S_9 
REMARK    6  A    between atoms: S_9  and  C_10 
REMARK    7  A    between atoms: N_11  and  C_12 
ROOT
HETATM    1  C   UNL     1      40.400 -14.487   0.999  1.00  0.00     0.177 A 
HETATM    2  N   UNL     1      41.074 -13.435   1.659  1.00  0.00    -0.276 N 
HETATM    3  C   UNL     1      40.988 -12.116   1.078  1.00  0.00     0.124 A 
HETATM    4  N   UNL     1      41.638 -11.072   1.555  1.00  0.00    -0.384 N 
HETATM    5  H   UNL     1      41.573 -10.170   1.108  1.00  0.00     0.157 HD
HETATM    6  H   UNL     1      42.233 -11.172   2.366  1.00  0.00     0.157 HD
HETATM    7  C   UNL     1      40.184 -11.991  -0.095  1.00  0.00     0.081 A 
HETATM    8  C   UNL     1      39.590 -13.134  -0.621  1.00  0.00     0.187 A 
HETATM    9  N   UNL     1      38.879 -12.881  -1.711  1.00  0.00    -0.153 NA
HETATM   10  N   UNL     1      39.015 -11.552  -1.871  1.00  0.00    -0.280 N 
HETATM   11  H   UNL     1      38.537 -11.117  -2.655  1.00  0.00     0.189 HD
HETATM   12  C   UNL     1      39.817 -10.953  -0.922  1.00  0.00     0.042 A 
HETATM   13  C   UNL     1      40.104  -9.502  -0.949  1.00  0.00     0.071 C 
HETATM   14  N   UNL     1      39.708 -14.417  -0.102  1.00  0.00    -0.202 NA
ENDROOT
BRANCH   1  15
HETATM   15  S   UNL     1      40.499 -16.140   1.669  1.00  0.00    -0.082 SA
BRANCH  15  16
HETATM   16  C   UNL     1      41.939 -16.757   0.752  1.00  0.00     0.185 C 
BRANCH  16  17
HETATM   17  C   UNL     1      43.029 -17.213   1.709  1.00  0.00     0.232 C 
HETATM   18  N   UNL     1      42.552 -18.039   2.718  1.00  0.00    -0.324 N 
HETATM   19  H   UNL     1      41.839 -18.705   2.448  1.00  0.00     0.169 HD
HETATM   20  O   UNL     1      44.214 -16.922   1.546  1.00  0.00    -0.272 OA
BRANCH  18  21
HETATM   21  C   UNL     1      43.294 -18.333   3.880  1.00  0.00     0.068 A 
HETATM   22  C   UNL     1      44.250 -19.363   3.927  1.00  0.00     0.095 A 
HETATM   23  C   UNL     1      44.973 -19.595   5.100  1.00  0.00     0.039 A 
HETATM   24  C   UNL     1      44.738 -18.811   6.232  1.00  0.00     0.003 A 
HETATM   25  C   UNL     1      43.814 -17.769   6.180  1.00  0.00     0.002 A 
HETATM   26  C   UNL     1      43.108 -17.517   5.001  1.00  0.00     0.032 A 
BRANCH  22  27
HETATM   27  O   UNL     1      44.637 -19.980   2.761  1.00  0.00    -0.349 OA
BRANCH  27  28
HETATM   28  C   UNL     1      44.478 -21.401   2.791  1.00  0.00     0.171 C 
HETATM   29  C   UNL     1      43.696 -21.853   1.572  1.00  0.00     0.034 C 
ENDBRANCH  27  28
ENDBRANCH  22  27
ENDBRANCH  18  21
ENDBRANCH  16  17
ENDBRANCH  15  16
ENDBRANCH   1  15
BRANCH   2  30
HETATM   30  C   UNL     1      41.808 -13.640   2.864  1.00  0.00     0.043 A 
HETATM   31  C   UNL     1      43.193 -13.866   2.836  1.00  0.00     0.031 A 
HETATM   32  C   UNL     1      43.915 -13.989   4.027  1.00  0.00     0.021 A 
HETATM   33  C   UNL     1      43.257 -13.873   5.250  1.00  0.00     0.011 A 
HETATM   34 BR   UNL     1      44.236 -14.024   6.858  1.00  0.00    -0.051 Br
HETATM   35  C   UNL     1      41.884 -13.641   5.295  1.00  0.00     0.021 A 
HETATM   36  C   UNL     1      41.161 -13.525   4.105  1.00  0.00     0.031 A 
ENDBRANCH   2  30
TORSDOF 7
ENDMDL
MODEL 8
REMARK VINA RESULT:      -8.2      3.288      5.796
REMARK  7 active torsions:
REMARK  status: ('A' for Active; 'I' for Inactive)
REMARK    1  A    between atoms: C_2  and  O_3 
REMARK    2  A    between atoms: O_3  and  C_4 
REMARK    3  A    between atoms: C_5  and  N_6 
REMARK       I    between atoms: N_6  and  C_7 
REMARK    4  A    between atoms: C_7  and  C_8 
REMARK    5  A    between atoms: C_8  and  S_9 
REMARK    6  A    between atoms: S_9  and  C_10 
REMARK    7  A    between atoms: N_11  and  C_12 
ROOT
HETATM    1  C   UNL     1      41.498 -14.064   1.542  1.00  0.00     0.177 A 
HETATM    2  N   UNL     1      41.623 -15.215   0.731  1.00  0.00    -0.276 N 
HETATM    3  C   UNL     1      41.120 -15.139  -0.619  1.00  0.00     0.124 A 
HETATM    4  N   UNL     1      41.105 -16.169  -1.444  1.00  0.00    -0.384 N 
HETATM    5  H   UNL     1      40.723 -16.085  -2.374  1.00  0.00     0.157 HD
HETATM    6  H   UNL     1      41.457 -17.067  -1.140  1.00  0.00     0.157 HD
HETATM    7  C   UNL     1      40.581 -13.881  -1.026  1.00  0.00     0.081 A 
HETATM    8  C   UNL     1      40.529 -12.847  -0.097  1.00  0.00     0.187 A 
HETATM    9  N   UNL     1      40.002 -11.739  -0.601  1.00  0.00    -0.153 NA
HETATM   10  N   UNL     1      39.726 -12.075  -1.874  1.00  0.00    -0.280 N 
HETATM   11  H   UNL     1      39.316 -11.365  -2.474  1.00  0.00     0.189 HD
HETATM   12  C   UNL     1      40.043 -13.380  -2.190  1.00  0.00     0.042 A 
HETATM   13  C   UNL     1      39.789 -13.938  -3.536  1.00  0.00     0.071 C 
HETATM   14  N   UNL     1      40.961 -12.923   1.220  1.00  0.00    -0.202 NA
ENDROOT
BRANCH   1  15
HETATM   15  S   UNL     1      42.086 -14.120   3.229  1.00  0.00    -0.082 SA
BRANCH  15  16
HETATM   16  C   UNL     1      40.687 -14.969   4.013  1.00  0.00     0.185 C 
BRANCH  16  17
HETATM   17  C   UNL     1      41.160 -15.806   5.191  1.00  0.00     0.232 C 
HETATM   18  N   UNL     1      42.489 -16.191   5.081  1.00  0.00    -0.324 N 
HETATM   19  H   UNL     1      43.122 -15.501   4.695  1.00  0.00     0.169 HD
HETATM   20  O   UNL     1      40.441 -16.046   6.161  1.00  0.00    -0.272 OA
BRANCH  18  21
HETATM   21  C   UNL     1      43.059 -17.208   5.875  1.00  0.00     0.068 A 
HETATM   22  C   UNL     1      43.776 -16.935   7.053  1.00  0.00     0.095 A 
HETATM   23  C   UNL     1      44.299 -17.984   7.813  1.00  0.00     0.039 A 
HETATM   24  C   UNL     1      44.122 -19.305   7.397  1.00  0.00     0.003 A 
HETATM   25  C   UNL     1      43.384 -19.581   6.247  1.00  0.00     0.002 A 
HETATM   26  C   UNL     1      42.836 -18.536   5.498  1.00  0.00     0.032 A 
BRANCH  22  27
HETATM   27  O   UNL     1      43.760 -15.664   7.575  1.00  0.00    -0.349 OA
BRANCH  27  28
HETATM   28  C   UNL     1      44.718 -14.789   6.973  1.00  0.00     0.171 C 
HETATM   29  C   UNL     1      44.749 -13.471   7.723  1.00  0.00     0.034 C 
ENDBRANCH  27  28
ENDBRANCH  22  27
ENDBRANCH  18  21
ENDBRANCH  16  17
ENDBRANCH  15  16
ENDBRANCH   1  15
BRANCH   2  30
HETATM   30  C   UNL     1      42.231 -16.415   1.203  1.00  0.00     0.043 A 
HETATM   31  C   UNL     1      41.453 -17.530   1.551  1.00  0.00     0.031 A 
HETATM   32  C   UNL     1      42.062 -18.727   1.939  1.00  0.00     0.021 A 
HETATM   33  C   UNL     1      43.453 -18.817   1.967  1.00  0.00     0.011 A 
HETATM   34 BR   UNL     1      44.277 -20.439   2.476  1.00  0.00    -0.051 Br
HETATM   35  C   UNL     1      44.240 -17.722   1.617  1.00  0.00     0.021 A 
HETATM   36  C   UNL     1      43.630 -16.524   1.237  1.00  0.00     0.031 A 
ENDBRANCH   2  30
TORSDOF 7
ENDMDL
MODEL 9
REMARK VINA RESULT:      -8.2      5.032      8.247
REMARK  7 active torsions:
REMARK  status: ('A' for Active; 'I' for Inactive)
REMARK    1  A    between atoms: C_2  and  O_3 
REMARK    2  A    between atoms: O_3  and  C_4 
REMARK    3  A    between atoms: C_5  and  N_6 
REMARK       I    between atoms: N_6  and  C_7 
REMARK    4  A    between atoms: C_7  and  C_8 
REMARK    5  A    between atoms: C_8  and  S_9 
REMARK    6  A    between atoms: S_9  and  C_10 
REMARK    7  A    between atoms: N_11  and  C_12 
ROOT
HETATM    1  C   UNL     1      40.907 -14.755   0.337  1.00  0.00     0.177 A 
HETATM    2  N   UNL     1      41.346 -13.475   0.742  1.00  0.00    -0.276 N 
HETATM    3  C   UNL     1      41.821 -12.576  -0.283  1.00  0.00     0.124 A 
HETATM    4  N   UNL     1      42.332 -11.387  -0.022  1.00  0.00    -0.384 N 
HETATM    5  H   UNL     1      42.676 -10.795  -0.763  1.00  0.00     0.157 HD
HETATM    6  H   UNL     1      42.406 -11.066   0.934  1.00  0.00     0.157 HD
HETATM    7  C   UNL     1      41.757 -13.055  -1.626  1.00  0.00     0.081 A 
HETATM    8  C   UNL     1      41.300 -14.349  -1.851  1.00  0.00     0.187 A 
HETATM    9  N   UNL     1      41.297 -14.670  -3.138  1.00  0.00    -0.153 NA
HETATM   10  N   UNL     1      41.749 -13.554  -3.739  1.00  0.00    -0.280 N 
HETATM   11  H   UNL     1      41.825 -13.559  -4.752  1.00  0.00     0.189 HD
HETATM   12  C   UNL     1      42.065 -12.536  -2.864  1.00  0.00     0.042 A 
HETATM   13  C   UNL     1      42.601 -11.241  -3.338  1.00  0.00     0.071 C 
HETATM   14  N   UNL     1      40.890 -15.242  -0.870  1.00  0.00    -0.202 NA
ENDROOT
BRANCH   1  15
HETATM   15  S   UNL     1      40.333 -15.909   1.575  1.00  0.00    -0.082 SA
BRANCH  15  16
HETATM   16  C   UNL     1      41.336 -17.356   1.134  1.00  0.00     0.185 C 
BRANCH  16  17
HETATM   17  C   UNL     1      42.574 -17.437   2.013  1.00  0.00     0.232 C 
HETATM   18  N   UNL     1      42.411 -18.290   3.097  1.00  0.00    -0.324 N 
HETATM   19  H   UNL     1      41.888 -19.138   2.921  1.00  0.00     0.169 HD
HETATM   20  O   UNL     1      43.621 -16.854   1.735  1.00  0.00    -0.272 OA
BRANCH  18  21
HETATM   21  C   UNL     1      43.286 -18.295   4.203  1.00  0.00     0.068 A 
HETATM   22  C   UNL     1      44.386 -19.166   4.294  1.00  0.00     0.095 A 
HETATM   23  C   UNL     1      45.233 -19.111   5.403  1.00  0.00     0.039 A 
HETATM   24  C   UNL     1      44.980 -18.200   6.431  1.00  0.00     0.003 A 
HETATM   25  C   UNL     1      43.909 -17.313   6.330  1.00  0.00     0.002 A 
HETATM   26  C   UNL     1      43.076 -17.346   5.210  1.00  0.00     0.032 A 
BRANCH  22  27
HETATM   27  O   UNL     1      44.760 -19.900   3.194  1.00  0.00    -0.349 OA
BRANCH  27  28
HETATM   28  C   UNL     1      44.475 -21.295   3.318  1.00  0.00     0.171 C 
HETATM   29  C   UNL     1      44.228 -21.891   1.945  1.00  0.00     0.034 C 
ENDBRANCH  27  28
ENDBRANCH  22  27
ENDBRANCH  18  21
ENDBRANCH  16  17
ENDBRANCH  15  16
ENDBRANCH   1  15
BRANCH   2  30
HETATM   30  C   UNL     1      41.320 -13.057   2.105  1.00  0.00     0.043 A 
HETATM   31  C   UNL     1      42.417 -13.282   2.950  1.00  0.00     0.031 A 
HETATM   32  C   UNL     1      42.411 -12.801   4.263  1.00  0.00     0.021 A 
HETATM   33  C   UNL     1      41.313 -12.080   4.730  1.00  0.00     0.011 A 
HETATM   34 BR   UNL     1      41.312 -11.416   6.499  1.00  0.00    -0.051 Br
HETATM   35  C   UNL     1      40.220 -11.841   3.901  1.00  0.00     0.021 A 
HETATM   36  C   UNL     1      40.223 -12.329   2.592  1.00  0.00     0.031 A 
ENDBRANCH   2  30
TORSDOF 7
ENDMDL
MODEL 10
REMARK VINA RESULT:      -8.1      4.976      8.045
REMARK  7 active torsions:
REMARK  status: ('A' for Active; 'I' for Inactive)
REMARK    1  A    between atoms: C_2  and  O_3 
REMARK    2  A    between atoms: O_3  and  C_4 
REMARK    3  A    between atoms: C_5  and  N_6 
REMARK       I    between atoms: N_6  and  C_7 
REMARK    4  A    between atoms: C_7  and  C_8 
REMARK    5  A    between atoms: C_8  and  S_9 
REMARK    6  A    between atoms: S_9  and  C_10 
REMARK    7  A    between atoms: N_11  and  C_12 
ROOT
HETATM    1  C   UNL     1      41.247 -14.244   0.065  1.00  0.00     0.177 A 
HETATM    2  N   UNL     1      41.594 -13.010   0.660  1.00  0.00    -0.276 N 
HETATM    3  C   UNL     1      42.051 -11.953  -0.211  1.00  0.00     0.124 A 
HETATM    4  N   UNL     1      42.480 -10.787   0.232  1.00  0.00    -0.384 N 
HETATM    5  H   UNL     1      42.814 -10.079  -0.405  1.00  0.00     0.157 HD
HETATM    6  H   UNL     1      42.500 -10.597   1.225  1.00  0.00     0.157 HD
HETATM    7  C   UNL     1      42.065 -12.244  -1.608  1.00  0.00     0.081 A 
HETATM    8  C   UNL     1      41.695 -13.517  -2.027  1.00  0.00     0.187 A 
HETATM    9  N   UNL     1      41.758 -13.656  -3.345  1.00  0.00    -0.153 NA
HETATM   10  N   UNL     1      42.164 -12.445  -3.767  1.00  0.00    -0.280 N 
HETATM   11  H   UNL     1      42.276 -12.305  -4.767  1.00  0.00     0.189 HD
HETATM   12  C   UNL     1      42.385 -11.542  -2.748  1.00  0.00     0.042 A 
HETATM   13  C   UNL     1      42.860 -10.167  -3.017  1.00  0.00     0.071 C 
HETATM   14  N   UNL     1      41.304 -14.559  -1.197  1.00  0.00    -0.202 NA
ENDROOT
BRANCH   1  15
HETATM   15  S   UNL     1      40.699 -15.588   1.107  1.00  0.00    -0.082 SA
BRANCH  15  16
HETATM   16  C   UNL     1      41.764 -16.917   0.479  1.00  0.00     0.185 C 
BRANCH  16  17
HETATM   17  C   UNL     1      42.815 -17.293   1.510  1.00  0.00     0.232 C 
HETATM   18  N   UNL     1      42.543 -18.498   2.145  1.00  0.00    -0.324 N 
HETATM   19  H   UNL     1      42.156 -19.230   1.562  1.00  0.00     0.169 HD
HETATM   20  O   UNL     1      43.829 -16.619   1.697  1.00  0.00    -0.272 OA
BRANCH  18  21
HETATM   21  C   UNL     1      43.190 -18.900   3.332  1.00  0.00     0.068 A 
HETATM   22  C   UNL     1      42.796 -18.438   4.600  1.00  0.00     0.095 A 
HETATM   23  C   UNL     1      43.459 -18.888   5.746  1.00  0.00     0.039 A 
HETATM   24  C   UNL     1      44.522 -19.786   5.631  1.00  0.00     0.003 A 
HETATM   25  C   UNL     1      44.895 -20.270   4.377  1.00  0.00     0.002 A 
HETATM   26  C   UNL     1      44.217 -19.844   3.232  1.00  0.00     0.032 A 
BRANCH  22  27
HETATM   27  O   UNL     1      41.621 -17.737   4.731  1.00  0.00    -0.349 OA
BRANCH  27  28
HETATM   28  C   UNL     1      41.812 -16.380   5.136  1.00  0.00     0.171 C 
HETATM   29  C   UNL     1      40.699 -15.968   6.082  1.00  0.00     0.034 C 
ENDBRANCH  27  28
ENDBRANCH  22  27
ENDBRANCH  18  21
ENDBRANCH  16  17
ENDBRANCH  15  16
ENDBRANCH   1  15
BRANCH   2  30
HETATM   30  C   UNL     1      41.493 -12.787   2.065  1.00  0.00     0.043 A 
HETATM   31  C   UNL     1      42.544 -13.132   2.928  1.00  0.00     0.031 A 
HETATM   32  C   UNL     1      42.466 -12.840   4.292  1.00  0.00     0.021 A 
HETATM   33  C   UNL     1      41.342 -12.189   4.797  1.00  0.00     0.011 A 
HETATM   34 BR   UNL     1      41.243 -11.780   6.639  1.00  0.00    -0.051 Br
HETATM   35  C   UNL     1      40.293 -11.833   3.952  1.00  0.00     0.021 A 
HETATM   36  C   UNL     1      40.368 -12.132   2.590  1.00  0.00     0.031 A 
ENDBRANCH   2  30
TORSDOF 7
ENDMDL
