MODEL 1
REMARK VINA RESULT:      -9.1      0.000      0.000
REMARK  8 active torsions:
REMARK  status: ('A' for Active; 'I' for Inactive)
REMARK    1  A    between atoms: C_2  and  C_3 
REMARK    2  A    between atoms: C_3  and  C_4 
REMARK    3  A    between atoms: C_7  and  N_8 
REMARK       I    between atoms: N_8  and  C_9 
REMARK    4  A    between atoms: C_9  and  C_10 
REMARK    5  A    between atoms: C_13  and  N_14 
REMARK       I    between atoms: N_14  and  C_15 
REMARK    6  A    between atoms: C_15  and  C_16 
REMARK    7  A    between atoms: C_16  and  C_17 
REMARK    8  A    between atoms: C_19  and  N_20 
ROOT
HETATM    1  C   UNL     1      42.185 -12.715   4.737  1.00  0.00     0.032 A 
HETATM    2  C   UNL     1      41.320 -11.906   3.991  1.00  0.00     0.019 A 
HETATM    3  C   UNL     1      40.639 -10.843   4.601  1.00  0.00     0.030 A 
HETATM    4  C   UNL     1      40.785 -10.593   5.967  1.00  0.00     0.034 A 
HETATM    5  C   UNL     1      41.616 -11.427   6.721  1.00  0.00     0.030 A 
HETATM    6  C   UNL     1      42.320 -12.473   6.109  1.00  0.00     0.019 A 
ENDROOT
BRANCH   4   7
HETATM    7  N   UNL     1      40.096  -9.567   6.649  1.00  0.00    -0.327 N 
HETATM    8  C   UNL     1      39.240  -9.732   7.720  1.00  0.00     0.223 C 
HETATM    9  O   UNL     1      38.888 -10.820   8.177  1.00  0.00    -0.273 OA
HETATM   10  H   UNL     1      40.178  -8.656   6.220  1.00  0.00     0.169 HD
BRANCH   8  11
HETATM   11  C   UNL     1      38.778  -8.462   8.427  1.00  0.00     0.128 C 
BRANCH  11  12
HETATM   12  C   UNL     1      39.329  -8.114   9.801  1.00  0.00     0.158 A 
HETATM   13  S   UNL     1      41.057  -8.545  10.112  1.00  0.00    -0.077 SA
HETATM   14  C   UNL     1      40.590  -9.582  11.448  1.00  0.00     0.168 A 
HETATM   15  N   UNL     1      39.319  -9.640  11.683  1.00  0.00    -0.189 NA
HETATM   16  C   UNL     1      38.558  -8.812  10.898  1.00  0.00     0.260 A 
HETATM   17  O   UNL     1      37.346  -8.693  11.025  1.00  0.00    -0.270 OA
BRANCH  14  18
HETATM   18  N   UNL     1      41.537 -10.313  12.134  1.00  0.00    -0.360 N 
HETATM   19  C   UNL     1      42.976 -10.021  12.099  1.00  0.00     0.125 C 
HETATM   20  C   UNL     1      43.323  -9.066  13.242  1.00  0.00     0.020 C 
HETATM   21  C   UNL     1      42.887  -9.641  14.594  1.00  0.00     0.003 C 
HETATM   22  C   UNL     1      41.422 -10.081  14.569  1.00  0.00     0.020 C 
HETATM   23  C   UNL     1      41.146 -11.000  13.377  1.00  0.00     0.125 C 
ENDBRANCH  14  18
ENDBRANCH  11  12
ENDBRANCH   8  11
ENDBRANCH   4   7
BRANCH   1  24
HETATM   24  C   UNL     1      42.939 -13.864   4.138  1.00  0.00     0.256 C 
HETATM   25  N   UNL     1      42.313 -15.096   4.210  1.00  0.00    -0.323 N 
HETATM   26  H   UNL     1      41.370 -15.119   4.568  1.00  0.00     0.169 HD
HETATM   27  O   UNL     1      44.028 -13.632   3.623  1.00  0.00    -0.267 OA
BRANCH  25  28
HETATM   28  C   UNL     1      42.828 -16.349   3.812  1.00  0.00     0.035 A 
HETATM   29  C   UNL     1      42.797 -16.832   2.506  1.00  0.00     0.030 A 
HETATM   30  C   UNL     1      43.348 -18.083   2.196  1.00  0.00     0.010 A 
HETATM   31  C   UNL     1      43.955 -18.869   3.184  1.00  0.00    -0.054 A 
HETATM   32  C   UNL     1      43.980 -18.381   4.495  1.00  0.00     0.010 A 
HETATM   33  C   UNL     1      43.418 -17.138   4.806  1.00  0.00     0.030 A 
BRANCH  31  34
HETATM   34  C   UNL     1      44.568 -20.223   2.868  1.00  0.00     0.014 C 
HETATM   35  C   UNL     1      43.727 -20.984   1.834  1.00  0.00     0.015 C 
BRANCH  34  36
HETATM   36  C   UNL     1      44.778 -21.088   4.127  1.00  0.00     0.004 C 
HETATM   37  C   UNL     1      44.661 -22.582   3.852  1.00  0.00     0.006 C 
ENDBRANCH  34  36
ENDBRANCH  31  34
ENDBRANCH  25  28
ENDBRANCH   1  24
TORSDOF 8
ENDMDL
MODEL 2
REMARK VINA RESULT:      -8.4      3.027     10.682
REMARK  8 active torsions:
REMARK  status: ('A' for Active; 'I' for Inactive)
REMARK    1  A    between atoms: C_2  and  C_3 
REMARK    2  A    between atoms: C_3  and  C_4 
REMARK    3  A    between atoms: C_7  and  N_8 
REMARK       I    between atoms: N_8  and  C_9 
REMARK    4  A    between atoms: C_9  and  C_10 
REMARK    5  A    between atoms: C_13  and  N_14 
REMARK       I    between atoms: N_14  and  C_15 
REMARK    6  A    between atoms: C_15  and  C_16 
REMARK    7  A    between atoms: C_16  and  C_17 
REMARK    8  A    between atoms: C_19  and  N_20 
ROOT
HETATM    1  C   UNL     1      41.709 -11.086   6.429  1.00  0.00     0.032 A 
HETATM    2  C   UNL     1      41.258 -10.555   5.215  1.00  0.00     0.019 A 
HETATM    3  C   UNL     1      41.126 -11.375   4.087  1.00  0.00     0.030 A 
HETATM    4  C   UNL     1      41.473 -12.726   4.142  1.00  0.00     0.034 A 
HETATM    5  C   UNL     1      41.964 -13.248   5.343  1.00  0.00     0.030 A 
HETATM    6  C   UNL     1      42.070 -12.438   6.481  1.00  0.00     0.019 A 
ENDROOT
BRANCH   4   7
HETATM    7  N   UNL     1      41.404 -13.595   3.031  1.00  0.00    -0.327 N 
HETATM    8  C   UNL     1      42.473 -14.206   2.407  1.00  0.00     0.223 C 
HETATM    9  O   UNL     1      43.656 -14.006   2.683  1.00  0.00    -0.273 OA
HETATM   10  H   UNL     1      40.484 -13.667   2.618  1.00  0.00     0.169 HD
BRANCH   8  11
HETATM   11  C   UNL     1      42.138 -15.267   1.364  1.00  0.00     0.128 C 
BRANCH  11  12
HETATM   12  C   UNL     1      42.057 -16.731   1.767  1.00  0.00     0.158 A 
HETATM   13  S   UNL     1      41.156 -17.101   3.290  1.00  0.00    -0.077 SA
HETATM   14  C   UNL     1      42.592 -17.816   4.002  1.00  0.00     0.168 A 
HETATM   15  N   UNL     1      43.643 -17.811   3.247  1.00  0.00    -0.189 NA
HETATM   16  C   UNL     1      43.431 -17.321   1.983  1.00  0.00     0.260 A 
HETATM   17  O   UNL     1      44.298 -17.299   1.119  1.00  0.00    -0.270 OA
BRANCH  14  18
HETATM   18  N   UNL     1      42.573 -18.284   5.299  1.00  0.00    -0.360 N 
HETATM   19  C   UNL     1      43.674 -19.041   5.910  1.00  0.00     0.125 C 
HETATM   20  C   UNL     1      44.634 -18.067   6.594  1.00  0.00     0.020 C 
HETATM   21  C   UNL     1      43.901 -17.196   7.618  1.00  0.00     0.003 C 
HETATM   22  C   UNL     1      42.666 -16.531   7.006  1.00  0.00     0.020 C 
HETATM   23  C   UNL     1      41.778 -17.562   6.307  1.00  0.00     0.125 C 
ENDBRANCH  14  18
ENDBRANCH  11  12
ENDBRANCH   8  11
ENDBRANCH   4   7
BRANCH   1  24
HETATM   24  C   UNL     1      41.869 -10.258   7.668  1.00  0.00     0.256 C 
HETATM   25  N   UNL     1      42.056 -10.964   8.843  1.00  0.00    -0.323 N 
HETATM   26  H   UNL     1      42.166 -11.965   8.772  1.00  0.00     0.169 HD
HETATM   27  O   UNL     1      41.838  -9.037   7.552  1.00  0.00    -0.267 OA
BRANCH  25  28
HETATM   28  C   UNL     1      42.144 -10.449  10.154  1.00  0.00     0.035 A 
HETATM   29  C   UNL     1      41.047 -10.060  10.921  1.00  0.00     0.030 A 
HETATM   30  C   UNL     1      41.225  -9.574  12.223  1.00  0.00     0.010 A 
HETATM   31  C   UNL     1      42.502  -9.479  12.790  1.00  0.00    -0.054 A 
HETATM   32  C   UNL     1      43.601  -9.867  12.015  1.00  0.00     0.010 A 
HETATM   33  C   UNL     1      43.424 -10.340  10.711  1.00  0.00     0.030 A 
BRANCH  31  34
HETATM   34  C   UNL     1      42.717  -8.965  14.205  1.00  0.00     0.014 C 
HETATM   35  C   UNL     1      42.138  -9.939  15.241  1.00  0.00     0.015 C 
BRANCH  34  36
HETATM   36  C   UNL     1      42.139  -7.552  14.417  1.00  0.00     0.004 C 
HETATM   37  C   UNL     1      40.982  -7.523  15.407  1.00  0.00     0.006 C 
ENDBRANCH  34  36
ENDBRANCH  31  34
ENDBRANCH  25  28
ENDBRANCH   1  24
TORSDOF 8
ENDMDL
MODEL 3
REMARK VINA RESULT:      -8.4      7.102      8.587
REMARK  8 active torsions:
REMARK  status: ('A' for Active; 'I' for Inactive)
REMARK    1  A    between atoms: C_2  and  C_3 
REMARK    2  A    between atoms: C_3  and  C_4 
REMARK    3  A    between atoms: C_7  and  N_8 
REMARK       I    between atoms: N_8  and  C_9 
REMARK    4  A    between atoms: C_9  and  C_10 
REMARK    5  A    between atoms: C_13  and  N_14 
REMARK       I    between atoms: N_14  and  C_15 
REMARK    6  A    between atoms: C_15  and  C_16 
REMARK    7  A    between atoms: C_16  and  C_17 
REMARK    8  A    between atoms: C_19  and  N_20 
ROOT
HETATM    1  C   UNL     1      39.872 -14.164   1.886  1.00  0.00     0.032 A 
HETATM    2  C   UNL     1      39.653 -12.897   2.440  1.00  0.00     0.019 A 
HETATM    3  C   UNL     1      38.490 -12.178   2.130  1.00  0.00     0.030 A 
HETATM    4  C   UNL     1      37.548 -12.696   1.239  1.00  0.00     0.034 A 
HETATM    5  C   UNL     1      37.787 -13.942   0.652  1.00  0.00     0.030 A 
HETATM    6  C   UNL     1      38.934 -14.677   0.982  1.00  0.00     0.019 A 
ENDROOT
BRANCH   4   7
HETATM    7  N   UNL     1      36.379 -12.005   0.853  1.00  0.00    -0.327 N 
HETATM    8  C   UNL     1      36.281 -11.069  -0.158  1.00  0.00     0.223 C 
HETATM    9  O   UNL     1      37.232 -10.640  -0.812  1.00  0.00    -0.273 OA
HETATM   10  H   UNL     1      35.587 -12.156   1.463  1.00  0.00     0.169 HD
BRANCH   8  11
HETATM   11  C   UNL     1      34.875 -10.614  -0.533  1.00  0.00     0.128 C 
BRANCH  11  12
HETATM   12  C   UNL     1      34.223  -9.463   0.218  1.00  0.00     0.158 A 
HETATM   13  S   UNL     1      34.139  -9.617   2.017  1.00  0.00    -0.077 SA
HETATM   14  C   UNL     1      32.387  -9.525   1.975  1.00  0.00     0.168 A 
HETATM   15  N   UNL     1      31.870  -9.394   0.796  1.00  0.00    -0.189 NA
HETATM   16  C   UNL     1      32.789  -9.265  -0.215  1.00  0.00     0.260 A 
HETATM   17  O   UNL     1      32.477  -9.071  -1.383  1.00  0.00    -0.270 OA
BRANCH  14  18
HETATM   18  N   UNL     1      31.649  -9.648   3.134  1.00  0.00    -0.360 N 
HETATM   19  C   UNL     1      32.029 -10.517   4.255  1.00  0.00     0.125 C 
HETATM   20  C   UNL     1      32.883  -9.719   5.242  1.00  0.00     0.020 C 
HETATM   21  C   UNL     1      32.149  -8.460   5.715  1.00  0.00     0.003 C 
HETATM   22  C   UNL     1      31.626  -7.640   4.533  1.00  0.00     0.020 C 
HETATM   23  C   UNL     1      30.818  -8.515   3.574  1.00  0.00     0.125 C 
ENDBRANCH  14  18
ENDBRANCH  11  12
ENDBRANCH   8  11
ENDBRANCH   4   7
BRANCH   1  24
HETATM   24  C   UNL     1      41.095 -14.978   2.182  1.00  0.00     0.256 C 
HETATM   25  N   UNL     1      40.914 -16.350   2.200  1.00  0.00    -0.323 N 
HETATM   26  H   UNL     1      40.010 -16.704   1.924  1.00  0.00     0.169 HD
HETATM   27  O   UNL     1      42.152 -14.383   2.368  1.00  0.00    -0.267 OA
BRANCH  25  28
HETATM   28  C   UNL     1      41.862 -17.341   2.536  1.00  0.00     0.035 A 
HETATM   29  C   UNL     1      42.205 -17.690   3.841  1.00  0.00     0.030 A 
HETATM   30  C   UNL     1      43.146 -18.699   4.083  1.00  0.00     0.010 A 
HETATM   31  C   UNL     1      43.753 -19.390   3.026  1.00  0.00    -0.054 A 
HETATM   32  C   UNL     1      43.409 -19.032   1.717  1.00  0.00     0.010 A 
HETATM   33  C   UNL     1      42.479 -18.015   1.476  1.00  0.00     0.030 A 
BRANCH  31  34
HETATM   34  C   UNL     1      44.769 -20.495   3.266  1.00  0.00     0.014 C 
HETATM   35  C   UNL     1      44.413 -21.756   2.466  1.00  0.00     0.015 C 
BRANCH  34  36
HETATM   36  C   UNL     1      44.932 -20.838   4.760  1.00  0.00     0.004 C 
HETATM   37  C   UNL     1      44.994 -22.337   5.025  1.00  0.00     0.006 C 
ENDBRANCH  34  36
ENDBRANCH  31  34
ENDBRANCH  25  28
ENDBRANCH   1  24
TORSDOF 8
ENDMDL
MODEL 4
REMARK VINA RESULT:      -8.3      2.879     10.926
REMARK  8 active torsions:
REMARK  status: ('A' for Active; 'I' for Inactive)
REMARK    1  A    between atoms: C_2  and  C_3 
REMARK    2  A    between atoms: C_3  and  C_4 
REMARK    3  A    between atoms: C_7  and  N_8 
REMARK       I    between atoms: N_8  and  C_9 
REMARK    4  A    between atoms: C_9  and  C_10 
REMARK    5  A    between atoms: C_13  and  N_14 
REMARK       I    between atoms: N_14  and  C_15 
REMARK    6  A    between atoms: C_15  and  C_16 
REMARK    7  A    between atoms: C_16  and  C_17 
REMARK    8  A    between atoms: C_19  and  N_20 
ROOT
HETATM    1  C   UNL     1      39.690 -11.793   6.439  1.00  0.00     0.032 A 
HETATM    2  C   UNL     1      39.555 -11.374   5.110  1.00  0.00     0.019 A 
HETATM    3  C   UNL     1      39.635 -12.302   4.062  1.00  0.00     0.030 A 
HETATM    4  C   UNL     1      39.885 -13.651   4.321  1.00  0.00     0.034 A 
HETATM    5  C   UNL     1      40.063 -14.062   5.645  1.00  0.00     0.030 A 
HETATM    6  C   UNL     1      39.955 -13.144   6.698  1.00  0.00     0.019 A 
ENDROOT
BRANCH   4   7
HETATM    7  N   UNL     1      40.020 -14.627   3.310  1.00  0.00    -0.327 N 
HETATM    8  C   UNL     1      41.182 -14.948   2.637  1.00  0.00     0.223 C 
HETATM    9  O   UNL     1      42.255 -14.360   2.768  1.00  0.00    -0.273 OA
HETATM   10  H   UNL     1      39.145 -15.029   3.003  1.00  0.00     0.169 HD
BRANCH   8  11
HETATM   11  C   UNL     1      41.131 -16.179   1.738  1.00  0.00     0.128 C 
BRANCH  11  12
HETATM   12  C   UNL     1      41.749 -17.488   2.204  1.00  0.00     0.158 A 
HETATM   13  S   UNL     1      41.851 -17.742   3.991  1.00  0.00    -0.077 SA
HETATM   14  C   UNL     1      43.599 -17.877   3.904  1.00  0.00     0.168 A 
HETATM   15  N   UNL     1      44.102 -17.758   2.718  1.00  0.00    -0.189 NA
HETATM   16  C   UNL     1      43.173 -17.630   1.717  1.00  0.00     0.260 A 
HETATM   17  O   UNL     1      43.470 -17.567   0.530  1.00  0.00    -0.270 OA
BRANCH  14  18
HETATM   18  N   UNL     1      44.348 -18.038   5.050  1.00  0.00    -0.360 N 
HETATM   19  C   UNL     1      44.155 -17.245   6.271  1.00  0.00     0.125 C 
HETATM   20  C   UNL     1      43.159 -17.961   7.183  1.00  0.00     0.020 C 
HETATM   21  C   UNL     1      43.622 -19.388   7.495  1.00  0.00     0.003 C 
HETATM   22  C   UNL     1      43.965 -20.157   6.217  1.00  0.00     0.020 C 
HETATM   23  C   UNL     1      44.932 -19.359   5.340  1.00  0.00     0.125 C 
ENDBRANCH  14  18
ENDBRANCH  11  12
ENDBRANCH   8  11
ENDBRANCH   4   7
BRANCH   1  24
HETATM   24  C   UNL     1      39.613 -10.847   7.599  1.00  0.00     0.256 C 
HETATM   25  N   UNL     1      40.558 -11.036   8.593  1.00  0.00    -0.323 N 
HETATM   26  H   UNL     1      41.278 -11.723   8.426  1.00  0.00     0.169 HD
HETATM   27  O   UNL     1      38.745  -9.980   7.579  1.00  0.00    -0.267 OA
BRANCH  25  28
HETATM   28  C   UNL     1      40.660 -10.356   9.826  1.00  0.00     0.035 A 
HETATM   29  C   UNL     1      41.106  -9.044   9.965  1.00  0.00     0.030 A 
HETATM   30  C   UNL     1      41.159  -8.440  11.229  1.00  0.00     0.010 A 
HETATM   31  C   UNL     1      40.753  -9.132  12.377  1.00  0.00    -0.054 A 
HETATM   32  C   UNL     1      40.310 -10.452  12.233  1.00  0.00     0.010 A 
HETATM   33  C   UNL     1      40.269 -11.058  10.973  1.00  0.00     0.030 A 
BRANCH  31  34
HETATM   34  C   UNL     1      40.792  -8.493  13.756  1.00  0.00     0.014 C 
HETATM   35  C   UNL     1      39.859  -7.277  13.828  1.00  0.00     0.015 C 
BRANCH  34  36
HETATM   36  C   UNL     1      42.219  -8.099  14.188  1.00  0.00     0.004 C 
HETATM   37  C   UNL     1      43.209  -9.254  14.101  1.00  0.00     0.006 C 
ENDBRANCH  34  36
ENDBRANCH  31  34
ENDBRANCH  25  28
ENDBRANCH   1  24
TORSDOF 8
ENDMDL
MODEL 5
REMARK VINA RESULT:      -8.2      3.075     11.149
REMARK  8 active torsions:
REMARK  status: ('A' for Active; 'I' for Inactive)
REMARK    1  A    between atoms: C_2  and  C_3 
REMARK    2  A    between atoms: C_3  and  C_4 
REMARK    3  A    between atoms: C_7  and  N_8 
REMARK       I    between atoms: N_8  and  C_9 
REMARK    4  A    between atoms: C_9  and  C_10 
REMARK    5  A    between atoms: C_13  and  N_14 
REMARK       I    between atoms: N_14  and  C_15 
REMARK    6  A    between atoms: C_15  and  C_16 
REMARK    7  A    between atoms: C_16  and  C_17 
REMARK    8  A    between atoms: C_19  and  N_20 
ROOT
HETATM    1  C   UNL     1      41.152 -11.300   6.645  1.00  0.00     0.032 A 
HETATM    2  C   UNL     1      41.909 -12.305   6.033  1.00  0.00     0.019 A 
HETATM    3  C   UNL     1      41.391 -13.023   4.946  1.00  0.00     0.030 A 
HETATM    4  C   UNL     1      40.100 -12.774   4.478  1.00  0.00     0.034 A 
HETATM    5  C   UNL     1      39.326 -11.800   5.116  1.00  0.00     0.030 A 
HETATM    6  C   UNL     1      39.851 -11.060   6.184  1.00  0.00     0.019 A 
ENDROOT
BRANCH   4   7
HETATM    7  N   UNL     1      39.503 -13.490   3.417  1.00  0.00    -0.327 N 
HETATM    8  C   UNL     1      39.486 -13.114   2.088  1.00  0.00     0.223 C 
HETATM    9  O   UNL     1      39.917 -12.045   1.654  1.00  0.00    -0.273 OA
HETATM   10  H   UNL     1      38.959 -14.289   3.710  1.00  0.00     0.169 HD
BRANCH   8  11
HETATM   11  C   UNL     1      38.969 -14.147   1.094  1.00  0.00     0.128 C 
BRANCH  11  12
HETATM   12  C   UNL     1      39.853 -15.314   0.680  1.00  0.00     0.158 A 
HETATM   13  S   UNL     1      40.467 -16.373   2.009  1.00  0.00    -0.077 SA
HETATM   14  C   UNL     1      42.128 -16.005   1.579  1.00  0.00     0.168 A 
HETATM   15  N   UNL     1      42.271 -15.199   0.577  1.00  0.00    -0.189 NA
HETATM   16  C   UNL     1      41.097 -14.836  -0.033  1.00  0.00     0.260 A 
HETATM   17  O   UNL     1      41.051 -14.130  -1.033  1.00  0.00    -0.270 OA
BRANCH  14  18
HETATM   18  N   UNL     1      43.175 -16.511   2.320  1.00  0.00    -0.360 N 
HETATM   19  C   UNL     1      43.089 -16.812   3.755  1.00  0.00     0.125 C 
HETATM   20  C   UNL     1      42.651 -18.266   3.938  1.00  0.00     0.020 C 
HETATM   21  C   UNL     1      43.597 -19.224   3.208  1.00  0.00     0.003 C 
HETATM   22  C   UNL     1      43.797 -18.809   1.748  1.00  0.00     0.020 C 
HETATM   23  C   UNL     1      44.193 -17.335   1.646  1.00  0.00     0.125 C 
ENDBRANCH  14  18
ENDBRANCH  11  12
ENDBRANCH   8  11
ENDBRANCH   4   7
BRANCH   1  24
HETATM   24  C   UNL     1      41.654 -10.500   7.809  1.00  0.00     0.256 C 
HETATM   25  N   UNL     1      41.713 -11.171   9.018  1.00  0.00    -0.323 N 
HETATM   26  H   UNL     1      41.507 -12.159   9.013  1.00  0.00     0.169 HD
HETATM   27  O   UNL     1      41.986  -9.337   7.607  1.00  0.00    -0.267 OA
BRANCH  25  28
HETATM   28  C   UNL     1      42.058 -10.642  10.281  1.00  0.00     0.035 A 
HETATM   29  C   UNL     1      43.354 -10.610  10.792  1.00  0.00     0.030 A 
HETATM   30  C   UNL     1      43.608 -10.049  12.051  1.00  0.00     0.010 A 
HETATM   31  C   UNL     1      42.575  -9.496  12.818  1.00  0.00    -0.054 A 
HETATM   32  C   UNL     1      41.274  -9.534  12.302  1.00  0.00     0.010 A 
HETATM   33  C   UNL     1      41.018 -10.105  11.050  1.00  0.00     0.030 A 
BRANCH  31  34
HETATM   34  C   UNL     1      42.830  -8.872  14.180  1.00  0.00     0.014 C 
HETATM   35  C   UNL     1      42.289  -9.765  15.306  1.00  0.00     0.015 C 
BRANCH  34  36
HETATM   36  C   UNL     1      42.250  -7.449  14.300  1.00  0.00     0.004 C 
HETATM   37  C   UNL     1      41.087  -7.359  15.280  1.00  0.00     0.006 C 
ENDBRANCH  34  36
ENDBRANCH  31  34
ENDBRANCH  25  28
ENDBRANCH   1  24
TORSDOF 8
ENDMDL
MODEL 6
REMARK VINA RESULT:      -8.0      8.271     11.105
REMARK  8 active torsions:
REMARK  status: ('A' for Active; 'I' for Inactive)
REMARK    1  A    between atoms: C_2  and  C_3 
REMARK    2  A    between atoms: C_3  and  C_4 
REMARK    3  A    between atoms: C_7  and  N_8 
REMARK       I    between atoms: N_8  and  C_9 
REMARK    4  A    between atoms: C_9  and  C_10 
REMARK    5  A    between atoms: C_13  and  N_14 
REMARK       I    between atoms: N_14  and  C_15 
REMARK    6  A    between atoms: C_15  and  C_16 
REMARK    7  A    between atoms: C_16  and  C_17 
REMARK    8  A    between atoms: C_19  and  N_20 
ROOT
HETATM    1  C   UNL     1      40.171 -14.404  -1.172  1.00  0.00     0.032 A 
HETATM    2  C   UNL     1      39.059 -13.616  -0.854  1.00  0.00     0.019 A 
HETATM    3  C   UNL     1      38.180 -13.190  -1.859  1.00  0.00     0.030 A 
HETATM    4  C   UNL     1      38.415 -13.514  -3.197  1.00  0.00     0.034 A 
HETATM    5  C   UNL     1      39.549 -14.265  -3.520  1.00  0.00     0.030 A 
HETATM    6  C   UNL     1      40.414 -14.717  -2.515  1.00  0.00     0.019 A 
ENDROOT
BRANCH   4   7
HETATM    7  N   UNL     1      37.593 -13.081  -4.260  1.00  0.00    -0.327 N 
HETATM    8  C   UNL     1      36.465 -13.722  -4.731  1.00  0.00     0.223 C 
HETATM    9  O   UNL     1      36.065 -14.819  -4.340  1.00  0.00    -0.273 OA
HETATM   10  H   UNL     1      37.955 -12.284  -4.766  1.00  0.00     0.169 HD
BRANCH   8  11
HETATM   11  C   UNL     1      35.620 -12.959  -5.746  1.00  0.00     0.128 C 
BRANCH  11  12
HETATM   12  C   UNL     1      34.792 -11.763  -5.301  1.00  0.00     0.158 A 
HETATM   13  S   UNL     1      35.698 -10.378  -4.574  1.00  0.00    -0.077 SA
HETATM   14  C   UNL     1      34.802 -10.539  -3.073  1.00  0.00     0.168 A 
HETATM   15  N   UNL     1      33.922 -11.488  -3.056  1.00  0.00    -0.189 NA
HETATM   16  C   UNL     1      33.781 -12.154  -4.248  1.00  0.00     0.260 A 
HETATM   17  O   UNL     1      32.953 -13.038  -4.429  1.00  0.00    -0.270 OA
BRANCH  14  18
HETATM   18  N   UNL     1      35.089  -9.731  -1.994  1.00  0.00    -0.360 N 
HETATM   19  C   UNL     1      34.666 -10.025  -0.618  1.00  0.00     0.125 C 
HETATM   20  C   UNL     1      35.760 -10.834   0.081  1.00  0.00     0.020 C 
HETATM   21  C   UNL     1      37.103 -10.099   0.039  1.00  0.00     0.003 C 
HETATM   22  C   UNL     1      37.459  -9.665  -1.384  1.00  0.00     0.020 C 
HETATM   23  C   UNL     1      36.303  -8.898  -2.029  1.00  0.00     0.125 C 
ENDBRANCH  14  18
ENDBRANCH  11  12
ENDBRANCH   8  11
ENDBRANCH   4   7
BRANCH   1  24
HETATM   24  C   UNL     1      41.144 -14.889  -0.140  1.00  0.00     0.256 C 
HETATM   25  N   UNL     1      41.155 -16.255   0.080  1.00  0.00    -0.323 N 
HETATM   26  H   UNL     1      40.586 -16.829  -0.525  1.00  0.00     0.169 HD
HETATM   27  O   UNL     1      41.857 -14.059   0.414  1.00  0.00    -0.267 OA
BRANCH  25  28
HETATM   28  C   UNL     1      41.897 -16.967   1.047  1.00  0.00     0.035 A 
HETATM   29  C   UNL     1      41.399 -17.361   2.287  1.00  0.00     0.030 A 
HETATM   30  C   UNL     1      42.203 -18.080   3.181  1.00  0.00     0.010 A 
HETATM   31  C   UNL     1      43.517 -18.433   2.848  1.00  0.00    -0.054 A 
HETATM   32  C   UNL     1      44.015 -18.031   1.603  1.00  0.00     0.010 A 
HETATM   33  C   UNL     1      43.216 -17.302   0.715  1.00  0.00     0.030 A 
BRANCH  31  34
HETATM   34  C   UNL     1      44.403 -19.223   3.798  1.00  0.00     0.014 C 
HETATM   35  C   UNL     1      44.500 -20.694   3.369  1.00  0.00     0.015 C 
BRANCH  34  36
HETATM   36  C   UNL     1      43.939 -19.122   5.264  1.00  0.00     0.004 C 
HETATM   37  C   UNL     1      44.842 -18.239   6.116  1.00  0.00     0.006 C 
ENDBRANCH  34  36
ENDBRANCH  31  34
ENDBRANCH  25  28
ENDBRANCH   1  24
TORSDOF 8
ENDMDL
MODEL 7
REMARK VINA RESULT:      -7.8      4.265     12.453
REMARK  8 active torsions:
REMARK  status: ('A' for Active; 'I' for Inactive)
REMARK    1  A    between atoms: C_2  and  C_3 
REMARK    2  A    between atoms: C_3  and  C_4 
REMARK    3  A    between atoms: C_7  and  N_8 
REMARK       I    between atoms: N_8  and  C_9 
REMARK    4  A    between atoms: C_9  and  C_10 
REMARK    5  A    between atoms: C_13  and  N_14 
REMARK       I    between atoms: N_14  and  C_15 
REMARK    6  A    between atoms: C_15  and  C_16 
REMARK    7  A    between atoms: C_16  and  C_17 
REMARK    8  A    between atoms: C_19  and  N_20 
ROOT
HETATM    1  C   UNL     1      40.541 -11.421   7.499  1.00  0.00     0.032 A 
HETATM    2  C   UNL     1      39.386 -12.104   7.100  1.00  0.00     0.019 A 
HETATM    3  C   UNL     1      39.386 -12.874   5.929  1.00  0.00     0.030 A 
HETATM    4  C   UNL     1      40.523 -12.948   5.123  1.00  0.00     0.034 A 
HETATM    5  C   UNL     1      41.665 -12.233   5.499  1.00  0.00     0.030 A 
HETATM    6  C   UNL     1      41.678 -11.485   6.683  1.00  0.00     0.019 A 
ENDROOT
BRANCH   4   7
HETATM    7  N   UNL     1      40.575 -13.671   3.911  1.00  0.00    -0.327 N 
HETATM    8  C   UNL     1      40.603 -15.045   3.782  1.00  0.00     0.223 C 
HETATM    9  O   UNL     1      40.677 -15.838   4.722  1.00  0.00    -0.273 OA
HETATM   10  H   UNL     1      40.709 -13.096   3.091  1.00  0.00     0.169 HD
BRANCH   8  11
HETATM   11  C   UNL     1      40.444 -15.602   2.372  1.00  0.00     0.128 C 
BRANCH  11  12
HETATM   12  C   UNL     1      41.277 -15.036   1.232  1.00  0.00     0.158 A 
HETATM   13  S   UNL     1      40.488 -13.775   0.204  1.00  0.00    -0.077 SA
HETATM   14  C   UNL     1      40.676 -14.778  -1.224  1.00  0.00     0.168 A 
HETATM   15  N   UNL     1      41.249 -15.921  -1.024  1.00  0.00    -0.189 NA
HETATM   16  C   UNL     1      41.689 -16.117   0.260  1.00  0.00     0.260 A 
HETATM   17  O   UNL     1      42.307 -17.115   0.613  1.00  0.00    -0.270 OA
BRANCH  14  18
HETATM   18  N   UNL     1      40.180 -14.365  -2.443  1.00  0.00    -0.360 N 
HETATM   19  C   UNL     1      40.327 -15.132  -3.687  1.00  0.00     0.125 C 
HETATM   20  C   UNL     1      39.122 -16.059  -3.851  1.00  0.00     0.020 C 
HETATM   21  C   UNL     1      37.809 -15.271  -3.815  1.00  0.00     0.003 C 
HETATM   22  C   UNL     1      37.736 -14.360  -2.588  1.00  0.00     0.020 C 
HETATM   23  C   UNL     1      38.992 -13.495  -2.471  1.00  0.00     0.125 C 
ENDBRANCH  14  18
ENDBRANCH  11  12
ENDBRANCH   8  11
ENDBRANCH   4   7
BRANCH   1  24
HETATM   24  C   UNL     1      40.601 -10.584   8.741  1.00  0.00     0.256 C 
HETATM   25  N   UNL     1      41.570 -10.943   9.661  1.00  0.00    -0.323 N 
HETATM   26  H   UNL     1      42.219 -11.668   9.395  1.00  0.00     0.169 HD
HETATM   27  O   UNL     1      39.813  -9.650   8.843  1.00  0.00    -0.267 OA
BRANCH  25  28
HETATM   28  C   UNL     1      41.788 -10.391  10.942  1.00  0.00     0.035 A 
HETATM   29  C   UNL     1      42.544  -9.246  11.186  1.00  0.00     0.030 A 
HETATM   30  C   UNL     1      42.694  -8.757  12.491  1.00  0.00     0.010 A 
HETATM   31  C   UNL     1      42.080  -9.395  13.576  1.00  0.00    -0.054 A 
HETATM   32  C   UNL     1      41.326 -10.548  13.327  1.00  0.00     0.010 A 
HETATM   33  C   UNL     1      41.187 -11.042  12.025  1.00  0.00     0.030 A 
BRANCH  31  34
HETATM   34  C   UNL     1      42.221  -8.876  14.998  1.00  0.00     0.014 C 
HETATM   35  C   UNL     1      41.546  -9.822  16.001  1.00  0.00     0.015 C 
BRANCH  34  36
HETATM   36  C   UNL     1      41.677  -7.444  15.164  1.00  0.00     0.004 C 
HETATM   37  C   UNL     1      40.190  -7.330  14.852  1.00  0.00     0.006 C 
ENDBRANCH  34  36
ENDBRANCH  31  34
ENDBRANCH  25  28
ENDBRANCH   1  24
TORSDOF 8
ENDMDL
MODEL 8
REMARK VINA RESULT:      -7.6      6.578     11.266
REMARK  8 active torsions:
REMARK  status: ('A' for Active; 'I' for Inactive)
REMARK    1  A    between atoms: C_2  and  C_3 
REMARK    2  A    between atoms: C_3  and  C_4 
REMARK    3  A    between atoms: C_7  and  N_8 
REMARK       I    between atoms: N_8  and  C_9 
REMARK    4  A    between atoms: C_9  and  C_10 
REMARK    5  A    between atoms: C_13  and  N_14 
REMARK       I    between atoms: N_14  and  C_15 
REMARK    6  A    between atoms: C_15  and  C_16 
REMARK    7  A    between atoms: C_16  and  C_17 
REMARK    8  A    between atoms: C_19  and  N_20 
ROOT
HETATM    1  C   UNL     1      40.373 -14.701  -0.123  1.00  0.00     0.032 A 
HETATM    2  C   UNL     1      41.665 -15.216   0.031  1.00  0.00     0.019 A 
HETATM    3  C   UNL     1      42.117 -15.637   1.290  1.00  0.00     0.030 A 
HETATM    4  C   UNL     1      41.301 -15.519   2.416  1.00  0.00     0.034 A 
HETATM    5  C   UNL     1      40.025 -14.966   2.271  1.00  0.00     0.030 A 
HETATM    6  C   UNL     1      39.560 -14.570   1.010  1.00  0.00     0.019 A 
ENDROOT
BRANCH   4   7
HETATM    7  N   UNL     1      41.710 -15.885   3.717  1.00  0.00    -0.327 N 
HETATM    8  C   UNL     1      42.393 -15.085   4.611  1.00  0.00     0.223 C 
HETATM    9  O   UNL     1      42.822 -13.958   4.361  1.00  0.00    -0.273 OA
HETATM   10  H   UNL     1      41.567 -16.860   3.938  1.00  0.00     0.169 HD
BRANCH   8  11
HETATM   11  C   UNL     1      42.541 -15.621   6.031  1.00  0.00     0.128 C 
BRANCH  11  12
HETATM   12  C   UNL     1      42.821 -17.098   6.262  1.00  0.00     0.158 A 
HETATM   13  S   UNL     1      44.490 -17.674   5.872  1.00  0.00    -0.077 SA
HETATM   14  C   UNL     1      43.857 -18.803   4.687  1.00  0.00     0.168 A 
HETATM   15  N   UNL     1      42.570 -18.798   4.554  1.00  0.00    -0.189 NA
HETATM   16  C   UNL     1      41.912 -17.969   5.426  1.00  0.00     0.260 A 
HETATM   17  O   UNL     1      40.691 -17.886   5.482  1.00  0.00    -0.270 OA
BRANCH  14  18
HETATM   18  N   UNL     1      44.710 -19.578   3.929  1.00  0.00    -0.360 N 
HETATM   19  C   UNL     1      45.301 -20.838   4.398  1.00  0.00     0.125 C 
HETATM   20  C   UNL     1      44.385 -21.999   4.009  1.00  0.00     0.020 C 
HETATM   21  C   UNL     1      44.126 -22.015   2.499  1.00  0.00     0.003 C 
HETATM   22  C   UNL     1      43.653 -20.649   1.998  1.00  0.00     0.020 C 
HETATM   23  C   UNL     1      44.596 -19.538   2.461  1.00  0.00     0.125 C 
ENDBRANCH  14  18
ENDBRANCH  11  12
ENDBRANCH   8  11
ENDBRANCH   4   7
BRANCH   1  24
HETATM   24  C   UNL     1      39.836 -14.237  -1.443  1.00  0.00     0.256 C 
HETATM   25  N   UNL     1      38.459 -14.123  -1.525  1.00  0.00    -0.323 N 
HETATM   26  H   UNL     1      37.929 -14.267  -0.679  1.00  0.00     0.169 HD
HETATM   27  O   UNL     1      40.640 -13.981  -2.333  1.00  0.00    -0.267 OA
BRANCH  25  28
HETATM   28  C   UNL     1      37.688 -13.799  -2.662  1.00  0.00     0.035 A 
HETATM   29  C   UNL     1      37.316 -14.712  -3.647  1.00  0.00     0.030 A 
HETATM   30  C   UNL     1      36.533 -14.305  -4.735  1.00  0.00     0.010 A 
HETATM   31  C   UNL     1      36.093 -12.980  -4.854  1.00  0.00    -0.054 A 
HETATM   32  C   UNL     1      36.473 -12.066  -3.865  1.00  0.00     0.010 A 
HETATM   33  C   UNL     1      37.265 -12.469  -2.785  1.00  0.00     0.030 A 
BRANCH  31  34
HETATM   34  C   UNL     1      35.234 -12.520  -6.020  1.00  0.00     0.014 C 
HETATM   35  C   UNL     1      33.814 -12.170  -5.556  1.00  0.00     0.015 C 
BRANCH  34  36
HETATM   36  C   UNL     1      35.184 -13.552  -7.164  1.00  0.00     0.004 C 
HETATM   37  C   UNL     1      35.710 -13.005  -8.486  1.00  0.00     0.006 C 
ENDBRANCH  34  36
ENDBRANCH  31  34
ENDBRANCH  25  28
ENDBRANCH   1  24
TORSDOF 8
ENDMDL
MODEL 9
REMARK VINA RESULT:      -7.5      4.570     11.762
REMARK  8 active torsions:
REMARK  status: ('A' for Active; 'I' for Inactive)
REMARK    1  A    between atoms: C_2  and  C_3 
REMARK    2  A    between atoms: C_3  and  C_4 
REMARK    3  A    between atoms: C_7  and  N_8 
REMARK       I    between atoms: N_8  and  C_9 
REMARK    4  A    between atoms: C_9  and  C_10 
REMARK    5  A    between atoms: C_13  and  N_14 
REMARK       I    between atoms: N_14  and  C_15 
REMARK    6  A    between atoms: C_15  and  C_16 
REMARK    7  A    between atoms: C_16  and  C_17 
REMARK    8  A    between atoms: C_19  and  N_20 
ROOT
HETATM    1  C   UNL     1      41.625 -11.269   6.263  1.00  0.00     0.032 A 
HETATM    2  C   UNL     1      40.835 -10.787   5.212  1.00  0.00     0.019 A 
HETATM    3  C   UNL     1      40.587 -11.585   4.086  1.00  0.00     0.030 A 
HETATM    4  C   UNL     1      41.149 -12.858   3.977  1.00  0.00     0.034 A 
HETATM    5  C   UNL     1      41.972 -13.324   5.006  1.00  0.00     0.030 A 
HETATM    6  C   UNL     1      42.199 -12.541   6.146  1.00  0.00     0.019 A 
ENDROOT
BRANCH   4   7
HETATM    7  N   UNL     1      40.973 -13.694   2.852  1.00  0.00    -0.327 N 
HETATM    8  C   UNL     1      41.701 -13.646   1.680  1.00  0.00     0.223 C 
HETATM    9  O   UNL     1      42.556 -12.800   1.417  1.00  0.00    -0.273 OA
HETATM   10  H   UNL     1      40.163 -14.296   2.906  1.00  0.00     0.169 HD
BRANCH   8  11
HETATM   11  C   UNL     1      41.474 -14.783   0.689  1.00  0.00     0.128 C 
BRANCH  11  12
HETATM   12  C   UNL     1      40.694 -14.532  -0.592  1.00  0.00     0.158 A 
HETATM   13  S   UNL     1      41.600 -13.758  -1.951  1.00  0.00    -0.077 SA
HETATM   14  C   UNL     1      40.489 -12.399  -1.959  1.00  0.00     0.168 A 
HETATM   15  N   UNL     1      39.540 -12.458  -1.081  1.00  0.00    -0.189 NA
HETATM   16  C   UNL     1      39.515 -13.618  -0.350  1.00  0.00     0.260 A 
HETATM   17  O   UNL     1      38.650 -13.869   0.480  1.00  0.00    -0.270 OA
BRANCH  14  18
HETATM   18  N   UNL     1      40.686 -11.335  -2.814  1.00  0.00    -0.360 N 
HETATM   19  C   UNL     1      39.950 -10.068  -2.725  1.00  0.00     0.125 C 
HETATM   20  C   UNL     1      40.722  -9.100  -1.828  1.00  0.00     0.020 C 
HETATM   21  C   UNL     1      42.152  -8.896  -2.337  1.00  0.00     0.003 C 
HETATM   22  C   UNL     1      42.859 -10.233  -2.570  1.00  0.00     0.020 C 
HETATM   23  C   UNL     1      42.008 -11.159  -3.441  1.00  0.00     0.125 C 
ENDBRANCH  14  18
ENDBRANCH  11  12
ENDBRANCH   8  11
ENDBRANCH   4   7
BRANCH   1  24
HETATM   24  C   UNL     1      41.922 -10.462   7.490  1.00  0.00     0.256 C 
HETATM   25  N   UNL     1      42.224 -11.190   8.628  1.00  0.00    -0.323 N 
HETATM   26  H   UNL     1      42.314 -12.190   8.531  1.00  0.00     0.169 HD
HETATM   27  O   UNL     1      41.894  -9.240   7.396  1.00  0.00    -0.267 OA
BRANCH  25  28
HETATM   28  C   UNL     1      42.454 -10.696   9.931  1.00  0.00     0.035 A 
HETATM   29  C   UNL     1      43.703 -10.657  10.548  1.00  0.00     0.030 A 
HETATM   30  C   UNL     1      43.842 -10.133  11.840  1.00  0.00     0.010 A 
HETATM   31  C   UNL     1      42.739  -9.623  12.535  1.00  0.00    -0.054 A 
HETATM   32  C   UNL     1      41.485  -9.668  11.913  1.00  0.00     0.010 A 
HETATM   33  C   UNL     1      41.344 -10.203  10.628  1.00  0.00     0.030 A 
BRANCH  31  34
HETATM   34  C   UNL     1      42.869  -9.039  13.933  1.00  0.00     0.014 C 
HETATM   35  C   UNL     1      42.298  -9.998  14.987  1.00  0.00     0.015 C 
BRANCH  34  36
HETATM   36  C   UNL     1      42.211  -7.651  14.061  1.00  0.00     0.004 C 
HETATM   37  C   UNL     1      41.547  -7.428  15.413  1.00  0.00     0.006 C 
ENDBRANCH  34  36
ENDBRANCH  31  34
ENDBRANCH  25  28
ENDBRANCH   1  24
TORSDOF 8
ENDMDL
MODEL 10
REMARK VINA RESULT:      -7.5      9.722     13.866
REMARK  8 active torsions:
REMARK  status: ('A' for Active; 'I' for Inactive)
REMARK    1  A    between atoms: C_2  and  C_3 
REMARK    2  A    between atoms: C_3  and  C_4 
REMARK    3  A    between atoms: C_7  and  N_8 
REMARK       I    between atoms: N_8  and  C_9 
REMARK    4  A    between atoms: C_9  and  C_10 
REMARK    5  A    between atoms: C_13  and  N_14 
REMARK       I    between atoms: N_14  and  C_15 
REMARK    6  A    between atoms: C_15  and  C_16 
REMARK    7  A    between atoms: C_16  and  C_17 
REMARK    8  A    between atoms: C_19  and  N_20 
ROOT
HETATM    1  C   UNL     1      40.151 -14.695  -0.427  1.00  0.00     0.032 A 
HETATM    2  C   UNL     1      40.367 -14.787  -1.807  1.00  0.00     0.019 A 
HETATM    3  C   UNL     1      39.407 -14.310  -2.709  1.00  0.00     0.030 A 
HETATM    4  C   UNL     1      38.206 -13.766  -2.251  1.00  0.00     0.034 A 
HETATM    5  C   UNL     1      37.971 -13.712  -0.873  1.00  0.00     0.030 A 
HETATM    6  C   UNL     1      38.940 -14.162   0.032  1.00  0.00     0.019 A 
ENDROOT
BRANCH   4   7
HETATM    7  N   UNL     1      37.181 -13.307  -3.107  1.00  0.00    -0.327 N 
HETATM    8  C   UNL     1      36.923 -11.991  -3.438  1.00  0.00     0.223 C 
HETATM    9  O   UNL     1      37.506 -11.019  -2.957  1.00  0.00    -0.273 OA
HETATM   10  H   UNL     1      36.532 -14.025  -3.399  1.00  0.00     0.169 HD
BRANCH   8  11
HETATM   11  C   UNL     1      35.901 -11.754  -4.544  1.00  0.00     0.128 C 
BRANCH  11  12
HETATM   12  C   UNL     1      36.092 -12.400  -5.908  1.00  0.00     0.158 A 
HETATM   13  S   UNL     1      35.827 -11.341  -7.348  1.00  0.00    -0.077 SA
HETATM   14  C   UNL     1      34.543 -12.390  -7.923  1.00  0.00     0.168 A 
HETATM   15  N   UNL     1      34.297 -13.418  -7.178  1.00  0.00    -0.189 NA
HETATM   16  C   UNL     1      35.142 -13.559  -6.107  1.00  0.00     0.260 A 
HETATM   17  O   UNL     1      35.093 -14.507  -5.333  1.00  0.00    -0.270 OA
BRANCH  14  18
HETATM   18  N   UNL     1      33.831 -12.071  -9.061  1.00  0.00    -0.360 N 
HETATM   19  C   UNL     1      32.581 -12.733  -9.455  1.00  0.00     0.125 C 
HETATM   20  C   UNL     1      31.398 -11.966  -8.864  1.00  0.00     0.020 C 
HETATM   21  C   UNL     1      31.425 -10.495  -9.289  1.00  0.00     0.003 C 
HETATM   22  C   UNL     1      32.787  -9.856  -9.010  1.00  0.00     0.020 C 
HETATM   23  C   UNL     1      33.920 -10.701  -9.597  1.00  0.00     0.125 C 
ENDBRANCH  14  18
ENDBRANCH  11  12
ENDBRANCH   8  11
ENDBRANCH   4   7
BRANCH   1  24
HETATM   24  C   UNL     1      41.142 -15.187   0.584  1.00  0.00     0.256 C 
HETATM   25  N   UNL     1      40.983 -16.500   0.992  1.00  0.00    -0.323 N 
HETATM   26  H   UNL     1      40.283 -17.053   0.519  1.00  0.00     0.169 HD
HETATM   27  O   UNL     1      42.016 -14.412   0.959  1.00  0.00    -0.267 OA
BRANCH  25  28
HETATM   28  C   UNL     1      41.709 -17.188   1.988  1.00  0.00     0.035 A 
HETATM   29  C   UNL     1      41.415 -17.141   3.349  1.00  0.00     0.030 A 
HETATM   30  C   UNL     1      42.180 -17.871   4.268  1.00  0.00     0.010 A 
HETATM   31  C   UNL     1      43.247 -18.673   3.844  1.00  0.00    -0.054 A 
HETATM   32  C   UNL     1      43.542 -18.713   2.476  1.00  0.00     0.010 A 
HETATM   33  C   UNL     1      42.785 -17.975   1.560  1.00  0.00     0.030 A 
BRANCH  31  34
HETATM   34  C   UNL     1      44.084 -19.481   4.823  1.00  0.00     0.014 C 
HETATM   35  C   UNL     1      44.948 -18.565   5.698  1.00  0.00     0.015 C 
BRANCH  34  36
HETATM   36  C   UNL     1      44.962 -20.537   4.122  1.00  0.00     0.004 C 
HETATM   37  C   UNL     1      44.899 -21.905   4.790  1.00  0.00     0.006 C 
ENDBRANCH  34  36
ENDBRANCH  31  34
ENDBRANCH  25  28
ENDBRANCH   1  24
TORSDOF 8
ENDMDL
