MODEL 1
REMARK VINA RESULT:      -9.0      0.000      0.000
REMARK  4 active torsions:
REMARK  status: ('A' for Active; 'I' for Inactive)
REMARK    1  A    between atoms: C_5  and  N_6 
REMARK       I    between atoms: N_6  and  C_7 
REMARK    2  A    between atoms: C_7  and  C_8 
REMARK    3  A    between atoms: N_10  and  C_11 
REMARK    4  A    between atoms: C_21  and  O_22 
ROOT
HETATM    1  N   UNL     1      41.949 -14.935  -0.322  1.00  0.00    -0.346 N 
HETATM    2  C   UNL     1      41.443 -15.517   0.813  1.00  0.00     0.255 C 
HETATM    3  O   UNL     1      40.301 -15.309   1.207  1.00  0.00    -0.268 OA
HETATM    4  H   UNL     1      42.850 -15.212  -0.685  1.00  0.00     0.163 HD
ENDROOT
BRANCH   2   5
HETATM    5  C   UNL     1      42.335 -16.435   1.495  1.00  0.00     0.068 A 
HETATM    6  C   UNL     1      42.407 -17.815   1.430  1.00  0.00     0.137 A 
HETATM    7  N   UNL     1      43.374 -18.243   2.321  1.00  0.00    -0.243 N 
HETATM    8  N   UNL     1      43.986 -17.163   2.889  1.00  0.00    -0.179 NA
HETATM    9  C   UNL     1      43.345 -16.099   2.411  1.00  0.00     0.157 A 
BRANCH   7  10
HETATM   10  C   UNL     1      43.790 -19.561   2.702  1.00  0.00     0.079 A 
HETATM   11  C   UNL     1      44.384 -19.914   3.926  1.00  0.00     0.062 A 
HETATM   12 CL   UNL     1      44.779 -18.846   5.224  1.00  0.00    -0.082 Cl
HETATM   13  C   UNL     1      44.752 -21.254   4.165  1.00  0.00     0.026 A 
HETATM   14  C   UNL     1      44.545 -22.245   3.208  1.00  0.00     0.002 A 
HETATM   15  C   UNL     1      43.967 -21.910   1.995  1.00  0.00     0.002 A 
HETATM   16  C   UNL     1      43.594 -20.587   1.745  1.00  0.00     0.033 A 
ENDBRANCH   7  10
ENDBRANCH   2   5
BRANCH   1  17
HETATM   17  C   UNL     1      41.112 -14.144  -1.199  1.00  0.00     0.147 C 
HETATM   18  C   UNL     1      41.792 -12.884  -1.653  1.00  0.00    -0.027 A 
HETATM   19  C   UNL     1      41.594 -12.673  -3.022  1.00  0.00    -0.047 A 
HETATM   20  C   UNL     1      42.484 -11.957  -0.885  1.00  0.00     0.010 A 
HETATM   21  C   UNL     1      42.094 -11.544  -3.652  1.00  0.00     0.008 A 
HETATM   22  C   UNL     1      40.753 -13.760  -3.627  1.00  0.00     0.073 C 
HETATM   23  C   UNL     1      42.807 -10.619  -2.888  1.00  0.00     0.001 A 
HETATM   24  C   UNL     1      42.998 -10.822  -1.513  1.00  0.00     0.001 A 
HETATM   25  C   UNL     1      40.825 -14.860  -2.554  1.00  0.00     0.149 C 
BRANCH  25  26
HETATM   26  O   UNL     1      41.883 -15.775  -2.904  1.00  0.00    -0.393 OA
HETATM   27  H   UNL     1      42.536 -15.720  -2.185  1.00  0.00     0.210 HD
ENDBRANCH  25  26
ENDBRANCH   1  17
TORSDOF 4
ENDMDL
MODEL 2
REMARK VINA RESULT:      -9.0      2.295      3.096
REMARK  4 active torsions:
REMARK  status: ('A' for Active; 'I' for Inactive)
REMARK    1  A    between atoms: C_5  and  N_6 
REMARK       I    between atoms: N_6  and  C_7 
REMARK    2  A    between atoms: C_7  and  C_8 
REMARK    3  A    between atoms: N_10  and  C_11 
REMARK    4  A    between atoms: C_21  and  O_22 
ROOT
HETATM    1  N   UNL     1      40.785 -15.391   0.082  1.00  0.00    -0.346 N 
HETATM    2  C   UNL     1      41.721 -15.139   1.054  1.00  0.00     0.255 C 
HETATM    3  O   UNL     1      42.184 -14.020   1.249  1.00  0.00    -0.268 OA
HETATM    4  H   UNL     1      40.338 -16.294   0.019  1.00  0.00     0.163 HD
ENDROOT
BRANCH   2   5
HETATM    5  C   UNL     1      42.094 -16.277   1.872  1.00  0.00     0.068 A 
HETATM    6  C   UNL     1      42.920 -17.347   1.580  1.00  0.00     0.137 A 
HETATM    7  N   UNL     1      42.906 -18.214   2.656  1.00  0.00    -0.243 N 
HETATM    8  N   UNL     1      42.162 -17.680   3.668  1.00  0.00    -0.179 NA
HETATM    9  C   UNL     1      41.666 -16.544   3.182  1.00  0.00     0.157 A 
BRANCH   7  10
HETATM   10  C   UNL     1      43.517 -19.498   2.843  1.00  0.00     0.079 A 
HETATM   11  C   UNL     1      44.328 -19.874   3.927  1.00  0.00     0.062 A 
HETATM   12 CL   UNL     1      44.800 -18.873   5.253  1.00  0.00    -0.082 Cl
HETATM   13  C   UNL     1      44.871 -21.173   3.978  1.00  0.00     0.026 A 
HETATM   14  C   UNL     1      44.628 -22.102   2.969  1.00  0.00     0.002 A 
HETATM   15  C   UNL     1      43.836 -21.743   1.890  1.00  0.00     0.002 A 
HETATM   16  C   UNL     1      43.288 -20.460   1.828  1.00  0.00     0.033 A 
ENDBRANCH   7  10
ENDBRANCH   2   5
BRANCH   1  17
HETATM   17  C   UNL     1      40.188 -14.317  -0.683  1.00  0.00     0.147 C 
HETATM   18  C   UNL     1      39.572 -14.803  -1.964  1.00  0.00    -0.027 A 
HETATM   19  C   UNL     1      38.316 -14.220  -2.169  1.00  0.00    -0.047 A 
HETATM   20  C   UNL     1      40.122 -15.655  -2.911  1.00  0.00     0.010 A 
HETATM   21  C   UNL     1      37.581 -14.488  -3.314  1.00  0.00     0.008 A 
HETATM   22  C   UNL     1      37.962 -13.276  -1.057  1.00  0.00     0.073 C 
HETATM   23  C   UNL     1      38.122 -15.360  -4.261  1.00  0.00     0.001 A 
HETATM   24  C   UNL     1      39.386 -15.937  -4.063  1.00  0.00     0.001 A 
HETATM   25  C   UNL     1      38.961 -13.681   0.041  1.00  0.00     0.149 C 
BRANCH  25  26
HETATM   26  O   UNL     1      38.319 -14.624   0.922  1.00  0.00    -0.393 OA
HETATM   27  H   UNL     1      37.785 -14.096   1.540  1.00  0.00     0.210 HD
ENDBRANCH  25  26
ENDBRANCH   1  17
TORSDOF 4
ENDMDL
MODEL 3
REMARK VINA RESULT:      -8.9      7.116      9.262
REMARK  4 active torsions:
REMARK  status: ('A' for Active; 'I' for Inactive)
REMARK    1  A    between atoms: C_5  and  N_6 
REMARK       I    between atoms: N_6  and  C_7 
REMARK    2  A    between atoms: C_7  and  C_8 
REMARK    3  A    between atoms: N_10  and  C_11 
REMARK    4  A    between atoms: C_21  and  O_22 
ROOT
HETATM    1  N   UNL     1      43.846 -12.649   8.339  1.00  0.00    -0.346 N 
HETATM    2  C   UNL     1      44.753 -13.317   7.555  1.00  0.00     0.255 C 
HETATM    3  O   UNL     1      45.926 -12.971   7.464  1.00  0.00    -0.268 OA
HETATM    4  H   UNL     1      42.918 -13.021   8.485  1.00  0.00     0.163 HD
ENDROOT
BRANCH   2   5
HETATM    5  C   UNL     1      44.244 -14.492   6.875  1.00  0.00     0.068 A 
HETATM    6  C   UNL     1      44.708 -15.795   6.887  1.00  0.00     0.137 A 
HETATM    7  N   UNL     1      43.931 -16.542   6.021  1.00  0.00    -0.243 N 
HETATM    8  N   UNL     1      42.923 -15.768   5.523  1.00  0.00    -0.179 NA
HETATM    9  C   UNL     1      43.134 -14.550   6.017  1.00  0.00     0.157 A 
BRANCH   7  10
HETATM   10  C   UNL     1      44.031 -17.910   5.604  1.00  0.00     0.079 A 
HETATM   11  C   UNL     1      44.076 -19.028   6.455  1.00  0.00     0.062 A 
HETATM   12 CL   UNL     1      44.057 -19.008   8.182  1.00  0.00    -0.082 Cl
HETATM   13  C   UNL     1      44.183 -20.321   5.906  1.00  0.00     0.026 A 
HETATM   14  C   UNL     1      44.253 -20.523   4.530  1.00  0.00     0.002 A 
HETATM   15  C   UNL     1      44.217 -19.430   3.679  1.00  0.00     0.002 A 
HETATM   16  C   UNL     1      44.107 -18.141   4.209  1.00  0.00     0.033 A 
ENDBRANCH   7  10
ENDBRANCH   2   5
BRANCH   1  17
HETATM   17  C   UNL     1      44.258 -11.572   9.215  1.00  0.00     0.147 C 
HETATM   18  C   UNL     1      43.124 -10.646   9.553  1.00  0.00    -0.027 A 
HETATM   19  C   UNL     1      43.124 -10.331  10.916  1.00  0.00    -0.047 A 
HETATM   20  C   UNL     1      42.198 -10.074   8.692  1.00  0.00     0.010 A 
HETATM   21  C   UNL     1      42.192  -9.453  11.447  1.00  0.00     0.008 A 
HETATM   22  C   UNL     1      44.259 -11.001  11.633  1.00  0.00     0.073 C 
HETATM   23  C   UNL     1      41.246  -8.889  10.589  1.00  0.00     0.001 A 
HETATM   24  C   UNL     1      41.251  -9.195   9.220  1.00  0.00     0.001 A 
HETATM   25  C   UNL     1      44.686 -12.083  10.625  1.00  0.00     0.149 C 
BRANCH  25  26
HETATM   26  O   UNL     1      44.022 -13.315  10.966  1.00  0.00    -0.393 OA
HETATM   27  H   UNL     1      43.732 -13.220  11.890  1.00  0.00     0.210 HD
ENDBRANCH  25  26
ENDBRANCH   1  17
TORSDOF 4
ENDMDL
MODEL 4
REMARK VINA RESULT:      -8.8      7.116      9.416
REMARK  4 active torsions:
REMARK  status: ('A' for Active; 'I' for Inactive)
REMARK    1  A    between atoms: C_5  and  N_6 
REMARK       I    between atoms: N_6  and  C_7 
REMARK    2  A    between atoms: C_7  and  C_8 
REMARK    3  A    between atoms: N_10  and  C_11 
REMARK    4  A    between atoms: C_21  and  O_22 
ROOT
HETATM    1  N   UNL     1      43.859 -12.680   8.251  1.00  0.00    -0.346 N 
HETATM    2  C   UNL     1      44.780 -13.387   7.521  1.00  0.00     0.255 C 
HETATM    3  O   UNL     1      45.968 -13.086   7.490  1.00  0.00    -0.268 OA
HETATM    4  H   UNL     1      42.911 -13.016   8.351  1.00  0.00     0.163 HD
ENDROOT
BRANCH   2   5
HETATM    5  C   UNL     1      44.264 -14.549   6.822  1.00  0.00     0.068 A 
HETATM    6  C   UNL     1      43.947 -14.713   5.486  1.00  0.00     0.137 A 
HETATM    7  N   UNL     1      43.421 -15.980   5.316  1.00  0.00    -0.243 N 
HETATM    8  N   UNL     1      43.479 -16.664   6.496  1.00  0.00    -0.179 NA
HETATM    9  C   UNL     1      43.957 -15.798   7.386  1.00  0.00     0.157 A 
BRANCH   7  10
HETATM   10  C   UNL     1      42.866 -16.625   4.162  1.00  0.00     0.079 A 
HETATM   11  C   UNL     1      41.629 -16.322   3.566  1.00  0.00     0.062 A 
HETATM   12 CL   UNL     1      40.490 -15.140   4.104  1.00  0.00    -0.082 Cl
HETATM   13  C   UNL     1      41.202 -17.046   2.435  1.00  0.00     0.026 A 
HETATM   14  C   UNL     1      41.977 -18.066   1.890  1.00  0.00     0.002 A 
HETATM   15  C   UNL     1      43.195 -18.380   2.471  1.00  0.00     0.002 A 
HETATM   16  C   UNL     1      43.634 -17.669   3.591  1.00  0.00     0.033 A 
ENDBRANCH   7  10
ENDBRANCH   2   5
BRANCH   1  17
HETATM   17  C   UNL     1      44.264 -11.611   9.140  1.00  0.00     0.147 C 
HETATM   18  C   UNL     1      43.123 -10.700   9.495  1.00  0.00    -0.027 A 
HETATM   19  C   UNL     1      43.125 -10.404  10.863  1.00  0.00    -0.047 A 
HETATM   20  C   UNL     1      42.188 -10.125   8.645  1.00  0.00     0.010 A 
HETATM   21  C   UNL     1      42.187  -9.542  11.409  1.00  0.00     0.008 A 
HETATM   22  C   UNL     1      44.269 -11.073  11.566  1.00  0.00     0.073 C 
HETATM   23  C   UNL     1      41.233  -8.976  10.562  1.00  0.00     0.001 A 
HETATM   24  C   UNL     1      41.235  -9.262   9.189  1.00  0.00     0.001 A 
HETATM   25  C   UNL     1      44.702 -12.137  10.542  1.00  0.00     0.149 C 
BRANCH  25  26
HETATM   26  O   UNL     1      44.051 -13.380  10.868  1.00  0.00    -0.393 OA
HETATM   27  H   UNL     1      43.870 -13.348  11.823  1.00  0.00     0.210 HD
ENDBRANCH  25  26
ENDBRANCH   1  17
TORSDOF 4
ENDMDL
MODEL 5
REMARK VINA RESULT:      -8.6      2.877      8.650
REMARK  4 active torsions:
REMARK  status: ('A' for Active; 'I' for Inactive)
REMARK    1  A    between atoms: C_5  and  N_6 
REMARK       I    between atoms: N_6  and  C_7 
REMARK    2  A    between atoms: C_7  and  C_8 
REMARK    3  A    between atoms: N_10  and  C_11 
REMARK    4  A    between atoms: C_21  and  O_22 
ROOT
HETATM    1  N   UNL     1      41.863 -16.443   2.631  1.00  0.00    -0.346 N 
HETATM    2  C   UNL     1      40.717 -16.279   1.894  1.00  0.00     0.255 C 
HETATM    3  O   UNL     1      39.761 -17.042   1.985  1.00  0.00    -0.268 OA
HETATM    4  H   UNL     1      42.587 -15.739   2.622  1.00  0.00     0.163 HD
ENDROOT
BRANCH   2   5
HETATM    5  C   UNL     1      40.690 -15.113   1.033  1.00  0.00     0.068 A 
HETATM    6  C   UNL     1      41.728 -14.446   0.409  1.00  0.00     0.137 A 
HETATM    7  N   UNL     1      41.207 -13.347  -0.248  1.00  0.00    -0.243 N 
HETATM    8  N   UNL     1      39.847 -13.346  -0.135  1.00  0.00    -0.179 NA
HETATM    9  C   UNL     1      39.555 -14.383   0.647  1.00  0.00     0.157 A 
BRANCH   7  10
HETATM   10  C   UNL     1      41.848 -12.289  -0.974  1.00  0.00     0.079 A 
HETATM   11  C   UNL     1      41.959 -12.201  -2.372  1.00  0.00     0.062 A 
HETATM   12 CL   UNL     1      41.386 -13.353  -3.524  1.00  0.00    -0.082 Cl
HETATM   13  C   UNL     1      42.626 -11.104  -2.953  1.00  0.00     0.026 A 
HETATM   14  C   UNL     1      43.188 -10.099  -2.171  1.00  0.00     0.002 A 
HETATM   15  C   UNL     1      43.092 -10.176  -0.792  1.00  0.00     0.002 A 
HETATM   16  C   UNL     1      42.431 -11.255  -0.201  1.00  0.00     0.033 A 
ENDBRANCH   7  10
ENDBRANCH   2   5
BRANCH   1  17
HETATM   17  C   UNL     1      41.956 -17.455   3.663  1.00  0.00     0.147 C 
HETATM   18  C   UNL     1      42.870 -18.583   3.276  1.00  0.00    -0.027 A 
HETATM   19  C   UNL     1      43.707 -18.937   4.340  1.00  0.00    -0.047 A 
HETATM   20  C   UNL     1      42.906 -19.286   2.079  1.00  0.00     0.010 A 
HETATM   21  C   UNL     1      44.605 -19.987   4.225  1.00  0.00     0.008 A 
HETATM   22  C   UNL     1      43.437 -18.095   5.552  1.00  0.00     0.073 C 
HETATM   23  C   UNL     1      44.659 -20.685   3.017  1.00  0.00     0.001 A 
HETATM   24  C   UNL     1      43.813 -20.339   1.953  1.00  0.00     0.001 A 
HETATM   25  C   UNL     1      42.637 -16.921   4.960  1.00  0.00     0.149 C 
BRANCH  25  26
HETATM   26  O   UNL     1      43.548 -15.842   4.675  1.00  0.00    -0.393 OA
HETATM   27  H   UNL     1      44.123 -16.157   3.957  1.00  0.00     0.210 HD
ENDBRANCH  25  26
ENDBRANCH   1  17
TORSDOF 4
ENDMDL
MODEL 6
REMARK VINA RESULT:      -8.5      2.551      8.641
REMARK  4 active torsions:
REMARK  status: ('A' for Active; 'I' for Inactive)
REMARK    1  A    between atoms: C_5  and  N_6 
REMARK       I    between atoms: N_6  and  C_7 
REMARK    2  A    between atoms: C_7  and  C_8 
REMARK    3  A    between atoms: N_10  and  C_11 
REMARK    4  A    between atoms: C_21  and  O_22 
ROOT
HETATM    1  N   UNL     1      42.040 -16.677   1.555  1.00  0.00    -0.346 N 
HETATM    2  C   UNL     1      40.962 -15.973   1.080  1.00  0.00     0.255 C 
HETATM    3  O   UNL     1      39.876 -15.968   1.649  1.00  0.00    -0.268 OA
HETATM    4  H   UNL     1      42.951 -16.572   1.131  1.00  0.00     0.163 HD
ENDROOT
BRANCH   2   5
HETATM    5  C   UNL     1      41.204 -15.193  -0.118  1.00  0.00     0.068 A 
HETATM    6  C   UNL     1      41.711 -13.914  -0.258  1.00  0.00     0.137 A 
HETATM    7  N   UNL     1      41.684 -13.579  -1.599  1.00  0.00    -0.243 N 
HETATM    8  N   UNL     1      41.255 -14.648  -2.332  1.00  0.00    -0.179 NA
HETATM    9  C   UNL     1      40.950 -15.589  -1.442  1.00  0.00     0.157 A 
BRANCH   7  10
HETATM   10  C   UNL     1      42.016 -12.358  -2.274  1.00  0.00     0.079 A 
HETATM   11  C   UNL     1      42.373 -11.148  -1.657  1.00  0.00     0.062 A 
HETATM   12 CL   UNL     1      42.460 -10.846   0.042  1.00  0.00    -0.082 Cl
HETATM   13  C   UNL     1      42.668 -10.019  -2.447  1.00  0.00     0.026 A 
HETATM   14  C   UNL     1      42.607 -10.070  -3.837  1.00  0.00     0.002 A 
HETATM   15  C   UNL     1      42.249 -11.255  -4.459  1.00  0.00     0.002 A 
HETATM   16  C   UNL     1      41.958 -12.383  -3.689  1.00  0.00     0.033 A 
ENDBRANCH   7  10
ENDBRANCH   2   5
BRANCH   1  17
HETATM   17  C   UNL     1      41.995 -17.348   2.837  1.00  0.00     0.147 C 
HETATM   18  C   UNL     1      42.922 -18.529   2.895  1.00  0.00    -0.027 A 
HETATM   19  C   UNL     1      43.627 -18.554   4.103  1.00  0.00    -0.047 A 
HETATM   20  C   UNL     1      43.075 -19.546   1.963  1.00  0.00     0.010 A 
HETATM   21  C   UNL     1      44.508 -19.582   4.397  1.00  0.00     0.008 A 
HETATM   22  C   UNL     1      43.242 -17.402   4.985  1.00  0.00     0.073 C 
HETATM   23  C   UNL     1      44.681 -20.598   3.454  1.00  0.00     0.001 A 
HETATM   24  C   UNL     1      43.967 -20.582   2.247  1.00  0.00     0.001 A 
HETATM   25  C   UNL     1      42.539 -16.456   3.995  1.00  0.00     0.149 C 
BRANCH  25  26
HETATM   26  O   UNL     1      43.500 -15.495   3.517  1.00  0.00    -0.393 OA
HETATM   27  H   UNL     1      44.371 -15.917   3.604  1.00  0.00     0.210 HD
ENDBRANCH  25  26
ENDBRANCH   1  17
TORSDOF 4
ENDMDL
MODEL 7
REMARK VINA RESULT:      -8.1      3.176      8.728
REMARK  4 active torsions:
REMARK  status: ('A' for Active; 'I' for Inactive)
REMARK    1  A    between atoms: C_5  and  N_6 
REMARK       I    between atoms: N_6  and  C_7 
REMARK    2  A    between atoms: C_7  and  C_8 
REMARK    3  A    between atoms: N_10  and  C_11 
REMARK    4  A    between atoms: C_21  and  O_22 
ROOT
HETATM    1  N   UNL     1      42.830 -17.497   2.604  1.00  0.00    -0.346 N 
HETATM    2  C   UNL     1      42.827 -16.142   2.390  1.00  0.00     0.255 C 
HETATM    3  O   UNL     1      43.745 -15.415   2.753  1.00  0.00    -0.268 OA
HETATM    4  H   UNL     1      42.118 -18.086   2.195  1.00  0.00     0.163 HD
ENDROOT
BRANCH   2   5
HETATM    5  C   UNL     1      41.684 -15.628   1.661  1.00  0.00     0.068 A 
HETATM    6  C   UNL     1      41.585 -15.208   0.346  1.00  0.00     0.137 A 
HETATM    7  N   UNL     1      40.304 -14.734   0.136  1.00  0.00    -0.243 N 
HETATM    8  N   UNL     1      39.552 -14.923   1.260  1.00  0.00    -0.179 NA
HETATM    9  C   UNL     1      40.387 -15.431   2.164  1.00  0.00     0.157 A 
BRANCH   7  10
HETATM   10  C   UNL     1      39.701 -14.116  -1.010  1.00  0.00     0.079 A 
HETATM   11  C   UNL     1      39.924 -14.475  -2.350  1.00  0.00     0.062 A 
HETATM   12 CL   UNL     1      40.990 -15.708  -2.921  1.00  0.00    -0.082 Cl
HETATM   13  C   UNL     1      39.268 -13.773  -3.381  1.00  0.00     0.026 A 
HETATM   14  C   UNL     1      38.402 -12.719  -3.104  1.00  0.00     0.002 A 
HETATM   15  C   UNL     1      38.178 -12.349  -1.788  1.00  0.00     0.002 A 
HETATM   16  C   UNL     1      38.819 -13.038  -0.755  1.00  0.00     0.033 A 
ENDBRANCH   7  10
ENDBRANCH   2   5
BRANCH   1  17
HETATM   17  C   UNL     1      43.989 -18.169   3.154  1.00  0.00     0.147 C 
HETATM   18  C   UNL     1      43.799 -18.545   4.596  1.00  0.00    -0.027 A 
HETATM   19  C   UNL     1      44.254 -19.847   4.838  1.00  0.00    -0.047 A 
HETATM   20  C   UNL     1      43.315 -17.759   5.632  1.00  0.00     0.010 A 
HETATM   21  C   UNL     1      44.220 -20.391   6.112  1.00  0.00     0.008 A 
HETATM   22  C   UNL     1      44.805 -20.475   3.592  1.00  0.00     0.073 C 
HETATM   23  C   UNL     1      43.715 -19.611   7.155  1.00  0.00     0.001 A 
HETATM   24  C   UNL     1      43.269 -18.302   6.917  1.00  0.00     0.001 A 
HETATM   25  C   UNL     1      44.243 -19.557   2.491  1.00  0.00     0.149 C 
BRANCH  25  26
HETATM   26  O   UNL     1      43.023 -20.135   1.989  1.00  0.00    -0.393 OA
HETATM   27  H   UNL     1      42.987 -21.041   2.343  1.00  0.00     0.210 HD
ENDBRANCH  25  26
ENDBRANCH   1  17
TORSDOF 4
ENDMDL
MODEL 8
REMARK VINA RESULT:      -8.0      5.649      9.010
REMARK  4 active torsions:
REMARK  status: ('A' for Active; 'I' for Inactive)
REMARK    1  A    between atoms: C_5  and  N_6 
REMARK       I    between atoms: N_6  and  C_7 
REMARK    2  A    between atoms: C_7  and  C_8 
REMARK    3  A    between atoms: N_10  and  C_11 
REMARK    4  A    between atoms: C_21  and  O_22 
ROOT
HETATM    1  N   UNL     1      42.627 -15.527   3.788  1.00  0.00    -0.346 N 
HETATM    2  C   UNL     1      42.843 -14.233   4.190  1.00  0.00     0.255 C 
HETATM    3  O   UNL     1      43.874 -13.624   3.926  1.00  0.00    -0.268 OA
HETATM    4  H   UNL     1      41.726 -15.964   3.920  1.00  0.00     0.163 HD
ENDROOT
BRANCH   2   5
HETATM    5  C   UNL     1      41.748 -13.611   4.910  1.00  0.00     0.068 A 
HETATM    6  C   UNL     1      41.652 -12.345   5.458  1.00  0.00     0.137 A 
HETATM    7  N   UNL     1      40.436 -12.244   6.109  1.00  0.00    -0.243 N 
HETATM    8  N   UNL     1      39.713 -13.385   5.913  1.00  0.00    -0.179 NA
HETATM    9  C   UNL     1      40.511 -14.196   5.222  1.00  0.00     0.157 A 
BRANCH   7  10
HETATM   10  C   UNL     1      39.874 -11.189   6.901  1.00  0.00     0.079 A 
HETATM   11  C   UNL     1      39.659  -9.867   6.477  1.00  0.00     0.062 A 
HETATM   12 CL   UNL     1      40.052  -9.206   4.930  1.00  0.00    -0.082 Cl
HETATM   13  C   UNL     1      39.103  -8.927   7.368  1.00  0.00     0.026 A 
HETATM   14  C   UNL     1      38.764  -9.276   8.673  1.00  0.00     0.002 A 
HETATM   15  C   UNL     1      38.977 -10.574   9.107  1.00  0.00     0.002 A 
HETATM   16  C   UNL     1      39.524 -11.518   8.234  1.00  0.00     0.033 A 
ENDBRANCH   7  10
ENDBRANCH   2   5
BRANCH   1  17
HETATM   17  C   UNL     1      43.554 -16.205   2.907  1.00  0.00     0.147 C 
HETATM   18  C   UNL     1      43.819 -17.620   3.339  1.00  0.00    -0.027 A 
HETATM   19  C   UNL     1      43.795 -18.490   2.243  1.00  0.00    -0.047 A 
HETATM   20  C   UNL     1      44.125 -18.087   4.610  1.00  0.00     0.010 A 
HETATM   21  C   UNL     1      44.060 -19.842   2.397  1.00  0.00     0.008 A 
HETATM   22  C   UNL     1      43.523 -17.754   0.964  1.00  0.00     0.073 C 
HETATM   23  C   UNL     1      44.348 -20.321   3.677  1.00  0.00     0.001 A 
HETATM   24  C   UNL     1      44.384 -19.448   4.775  1.00  0.00     0.001 A 
HETATM   25  C   UNL     1      42.973 -16.410   1.475  1.00  0.00     0.149 C 
BRANCH  25  26
HETATM   26  O   UNL     1      41.534 -16.481   1.493  1.00  0.00    -0.393 OA
HETATM   27  H   UNL     1      41.217 -15.570   1.366  1.00  0.00     0.210 HD
ENDBRANCH  25  26
ENDBRANCH   1  17
TORSDOF 4
ENDMDL
MODEL 9
REMARK VINA RESULT:      -8.0      3.329      4.502
REMARK  4 active torsions:
REMARK  status: ('A' for Active; 'I' for Inactive)
REMARK    1  A    between atoms: C_5  and  N_6 
REMARK       I    between atoms: N_6  and  C_7 
REMARK    2  A    between atoms: C_7  and  C_8 
REMARK    3  A    between atoms: N_10  and  C_11 
REMARK    4  A    between atoms: C_21  and  O_22 
ROOT
HETATM    1  N   UNL     1      41.276 -14.238   2.555  1.00  0.00    -0.346 N 
HETATM    2  C   UNL     1      40.859 -15.515   2.276  1.00  0.00     0.255 C 
HETATM    3  O   UNL     1      39.686 -15.789   2.041  1.00  0.00    -0.268 OA
HETATM    4  H   UNL     1      42.260 -14.023   2.631  1.00  0.00     0.163 HD
ENDROOT
BRANCH   2   5
HETATM    5  C   UNL     1      41.905 -16.519   2.229  1.00  0.00     0.068 A 
HETATM    6  C   UNL     1      41.889 -17.837   2.646  1.00  0.00     0.137 A 
HETATM    7  N   UNL     1      43.152 -18.368   2.459  1.00  0.00    -0.243 N 
HETATM    8  N   UNL     1      43.953 -17.446   1.848  1.00  0.00    -0.179 NA
HETATM    9  C   UNL     1      43.210 -16.347   1.740  1.00  0.00     0.157 A 
BRANCH   7  10
HETATM   10  C   UNL     1      43.696 -19.651   2.794  1.00  0.00     0.079 A 
HETATM   11  C   UNL     1      44.388 -19.969   3.975  1.00  0.00     0.062 A 
HETATM   12 CL   UNL     1      44.769 -18.887   5.267  1.00  0.00    -0.082 Cl
HETATM   13  C   UNL     1      44.878 -21.276   4.170  1.00  0.00     0.026 A 
HETATM   14  C   UNL     1      44.698 -22.269   3.211  1.00  0.00     0.002 A 
HETATM   15  C   UNL     1      44.024 -21.969   2.039  1.00  0.00     0.002 A 
HETATM   16  C   UNL     1      43.530 -20.678   1.833  1.00  0.00     0.033 A 
ENDBRANCH   7  10
ENDBRANCH   2   5
BRANCH   1  17
HETATM   17  C   UNL     1      40.372 -13.112   2.454  1.00  0.00     0.147 C 
HETATM   18  C   UNL     1      40.094 -12.482   3.789  1.00  0.00    -0.027 A 
HETATM   19  C   UNL     1      40.146 -11.086   3.704  1.00  0.00    -0.047 A 
HETATM   20  C   UNL     1      39.755 -13.108   4.980  1.00  0.00     0.010 A 
HETATM   21  C   UNL     1      39.876 -10.292   4.807  1.00  0.00     0.008 A 
HETATM   22  C   UNL     1      40.452 -10.633   2.306  1.00  0.00     0.073 C 
HETATM   23  C   UNL     1      39.553 -10.918   6.013  1.00  0.00     0.001 A 
HETATM   24  C   UNL     1      39.489 -12.317   6.098  1.00  0.00     0.001 A 
HETATM   25  C   UNL     1      40.991 -11.921   1.659  1.00  0.00     0.149 C 
BRANCH  25  26
HETATM   26  O   UNL     1      42.429 -11.915   1.750  1.00  0.00    -0.393 OA
HETATM   27  H   UNL     1      42.746 -12.527   1.064  1.00  0.00     0.210 HD
ENDBRANCH  25  26
ENDBRANCH   1  17
TORSDOF 4
ENDMDL
MODEL 10
REMARK VINA RESULT:      -7.9      4.145      8.985
REMARK  4 active torsions:
REMARK  status: ('A' for Active; 'I' for Inactive)
REMARK    1  A    between atoms: C_5  and  N_6 
REMARK       I    between atoms: N_6  and  C_7 
REMARK    2  A    between atoms: C_7  and  C_8 
REMARK    3  A    between atoms: N_10  and  C_11 
REMARK    4  A    between atoms: C_21  and  O_22 
ROOT
HETATM    1  N   UNL     1      42.583 -17.494   3.066  1.00  0.00    -0.346 N 
HETATM    2  C   UNL     1      42.527 -16.123   3.041  1.00  0.00     0.255 C 
HETATM    3  O   UNL     1      43.484 -15.418   3.344  1.00  0.00    -0.268 OA
HETATM    4  H   UNL     1      41.820 -18.047   2.703  1.00  0.00     0.163 HD
ENDROOT
BRANCH   2   5
HETATM    5  C   UNL     1      41.272 -15.557   2.586  1.00  0.00     0.068 A 
HETATM    6  C   UNL     1      40.894 -14.234   2.443  1.00  0.00     0.137 A 
HETATM    7  N   UNL     1      39.571 -14.200   2.046  1.00  0.00    -0.243 N 
HETATM    8  N   UNL     1      39.118 -15.471   1.843  1.00  0.00    -0.179 NA
HETATM    9  C   UNL     1      40.127 -16.267   2.190  1.00  0.00     0.157 A 
BRANCH   7  10
HETATM   10  C   UNL     1      38.676 -13.099   1.835  1.00  0.00     0.079 A 
HETATM   11  C   UNL     1      38.678 -11.889   2.551  1.00  0.00     0.062 A 
HETATM   12 CL   UNL     1      39.725 -11.469   3.859  1.00  0.00    -0.082 Cl
HETATM   13  C   UNL     1      37.731 -10.892   2.242  1.00  0.00     0.026 A 
HETATM   14  C   UNL     1      36.781 -11.077   1.241  1.00  0.00     0.002 A 
HETATM   15  C   UNL     1      36.763 -12.268   0.532  1.00  0.00     0.002 A 
HETATM   16  C   UNL     1      37.698 -13.264   0.825  1.00  0.00     0.033 A 
ENDBRANCH   7  10
ENDBRANCH   2   5
BRANCH   1  17
HETATM   17  C   UNL     1      43.826 -18.191   3.321  1.00  0.00     0.147 C 
HETATM   18  C   UNL     1      43.804 -18.936   4.626  1.00  0.00    -0.027 A 
HETATM   19  C   UNL     1      44.350 -20.216   4.481  1.00  0.00    -0.047 A 
HETATM   20  C   UNL     1      43.387 -18.478   5.869  1.00  0.00     0.010 A 
HETATM   21  C   UNL     1      44.474 -21.068   5.568  1.00  0.00     0.008 A 
HETATM   22  C   UNL     1      44.803 -20.462   3.072  1.00  0.00     0.073 C 
HETATM   23  C   UNL     1      44.038 -20.620   6.816  1.00  0.00     0.001 A 
HETATM   24  C   UNL     1      43.502 -19.332   6.966  1.00  0.00     0.001 A 
HETATM   25  C   UNL     1      44.084 -19.341   2.300  1.00  0.00     0.149 C 
BRANCH  25  26
HETATM   26  O   UNL     1      42.852 -19.865   1.770  1.00  0.00    -0.393 OA
HETATM   27  H   UNL     1      42.983 -20.825   1.680  1.00  0.00     0.210 HD
ENDBRANCH  25  26
ENDBRANCH   1  17
TORSDOF 4
ENDMDL
