MODEL 1
REMARK VINA RESULT:      -9.0      0.000      0.000
REMARK  8 active torsions:
REMARK  status: ('A' for Active; 'I' for Inactive)
REMARK    1  A    between atoms: C_2  and  C_3 
REMARK    2  A    between atoms: C_3  and  O_4 
REMARK    3  A    between atoms: O_4  and  C_5 
REMARK    4  A    between atoms: C_8  and  C_9 
REMARK    5  A    between atoms: N_10  and  C_11 
REMARK    6  A    between atoms: C_11  and  C_12 
REMARK    7  A    between atoms: C_25  and  C_26 
REMARK    8  A    between atoms: C_27  and  O_28 
ROOT
HETATM    1  C   UNL     1      42.223 -17.526   5.000  1.00  0.00     0.159 A 
HETATM    2  N   UNL     1      42.192 -16.392   5.965  1.00  0.00    -0.329 N 
HETATM    3  C   UNL     1      43.343 -16.288   6.755  1.00  0.00     0.273 A 
HETATM    4  O   UNL     1      43.568 -15.521   7.674  1.00  0.00    -0.266 OA
HETATM    5  C   UNL     1      44.174 -17.323   6.266  1.00  0.00     0.129 A 
HETATM    6  C   UNL     1      43.580 -18.049   5.279  1.00  0.00     0.034 A 
HETATM    7  N   UNL     1      45.397 -17.835   6.473  1.00  0.00    -0.272 N 
HETATM    8  H   UNL     1      46.115 -17.543   7.128  1.00  0.00     0.189 HD
HETATM    9  N   UNL     1      45.640 -18.888   5.649  1.00  0.00    -0.173 NA
HETATM   10  C   UNL     1      44.518 -19.022   4.903  1.00  0.00     0.101 A 
ENDROOT
BRANCH   1  11
HETATM   11  C   UNL     1      42.196 -17.121   3.547  1.00  0.00    -0.030 A 
HETATM   12  C   UNL     1      41.218 -17.576   2.648  1.00  0.00     0.012 A 
HETATM   13  C   UNL     1      41.169 -17.085   1.340  1.00  0.00     0.037 A 
HETATM   14  C   UNL     1      42.085 -16.128   0.910  1.00  0.00     0.069 A 
HETATM   15  C   UNL     1      43.101 -15.715   1.769  1.00  0.00     0.037 A 
HETATM   16  C   UNL     1      43.153 -16.204   3.078  1.00  0.00     0.012 A 
BRANCH  14  17
HETATM   17  O   UNL     1      41.902 -15.669  -0.367  1.00  0.00    -0.348 OA
BRANCH  17  18
HETATM   18  C   UNL     1      40.790 -14.789  -0.545  1.00  0.00     0.202 C 
BRANCH  18  19
HETATM   19  C   UNL     1      40.388 -14.853  -1.988  1.00  0.00    -0.011 C 
HETATM   20  C   UNL     1      40.967 -15.643  -2.902  1.00  0.00     0.009 C 
ENDBRANCH  18  19
ENDBRANCH  17  18
ENDBRANCH  14  17
ENDBRANCH   1  11
BRANCH   2  21
HETATM   21  C   UNL     1      40.960 -15.704   6.289  1.00  0.00     0.167 C 
BRANCH  21  22
HETATM   22  C   UNL     1      40.771 -14.472   5.446  1.00  0.00    -0.023 A 
HETATM   23  C   UNL     1      41.450 -13.292   5.733  1.00  0.00     0.125 A 
HETATM   24  N   UNL     1      41.362 -12.167   4.990  1.00  0.00    -0.273 NA
HETATM   25  C   UNL     1      40.553 -12.211   3.909  1.00  0.00     0.116 A 
HETATM   26  C   UNL     1      39.828 -13.330   3.538  1.00  0.00     0.020 A 
HETATM   27  C   UNL     1      39.940 -14.475   4.321  1.00  0.00     0.012 A 
ENDBRANCH  21  22
ENDBRANCH   2  21
BRANCH  10  28
HETATM   28  C   UNL     1      44.398 -20.039   3.865  1.00  0.00     0.028 A 
HETATM   29  C   UNL     1      44.638 -21.398   4.112  1.00  0.00     0.078 A 
HETATM   30  C   UNL     1      44.411 -22.358   3.127  1.00  0.00     0.037 A 
HETATM   31  C   UNL     1      43.974 -21.964   1.862  1.00  0.00     0.003 A 
HETATM   32  C   UNL     1      43.766 -20.614   1.587  1.00  0.00     0.001 A 
HETATM   33  C   UNL     1      43.975 -19.657   2.583  1.00  0.00     0.017 A 
BRANCH  29  34
HETATM   34  O   UNL     1      45.127 -21.861   5.305  1.00  0.00    -0.360 OA
HETATM   35  H   UNL     1      44.594 -22.642   5.544  1.00  0.00     0.217 HD
ENDBRANCH  29  34
ENDBRANCH  10  28
TORSDOF 8
ENDMDL
MODEL 2
REMARK VINA RESULT:      -8.4      2.945      5.937
REMARK  8 active torsions:
REMARK  status: ('A' for Active; 'I' for Inactive)
REMARK    1  A    between atoms: C_2  and  C_3 
REMARK    2  A    between atoms: C_3  and  O_4 
REMARK    3  A    between atoms: O_4  and  C_5 
REMARK    4  A    between atoms: C_8  and  C_9 
REMARK    5  A    between atoms: N_10  and  C_11 
REMARK    6  A    between atoms: C_11  and  C_12 
REMARK    7  A    between atoms: C_25  and  C_26 
REMARK    8  A    between atoms: C_27  and  O_28 
ROOT
HETATM    1  C   UNL     1      41.812 -13.976   4.099  1.00  0.00     0.159 A 
HETATM    2  N   UNL     1      40.871 -12.865   4.410  1.00  0.00    -0.329 N 
HETATM    3  C   UNL     1      39.650 -12.949   3.728  1.00  0.00     0.273 A 
HETATM    4  O   UNL     1      38.729 -12.153   3.717  1.00  0.00    -0.266 OA
HETATM    5  C   UNL     1      39.756 -14.162   3.008  1.00  0.00     0.129 A 
HETATM    6  C   UNL     1      40.961 -14.771   3.185  1.00  0.00     0.034 A 
HETATM    7  N   UNL     1      39.028 -14.925   2.179  1.00  0.00    -0.272 N 
HETATM    8  H   UNL     1      38.085 -14.781   1.833  1.00  0.00     0.189 HD
HETATM    9  N   UNL     1      39.713 -16.034   1.794  1.00  0.00    -0.173 NA
HETATM   10  C   UNL     1      40.911 -15.945   2.419  1.00  0.00     0.101 A 
ENDROOT
BRANCH   1  11
HETATM   11  C   UNL     1      42.151 -14.864   5.271  1.00  0.00    -0.030 A 
HETATM   12  C   UNL     1      41.199 -15.675   5.911  1.00  0.00     0.012 A 
HETATM   13  C   UNL     1      41.584 -16.564   6.919  1.00  0.00     0.037 A 
HETATM   14  C   UNL     1      42.921 -16.668   7.298  1.00  0.00     0.069 A 
HETATM   15  C   UNL     1      43.866 -15.824   6.718  1.00  0.00     0.037 A 
HETATM   16  C   UNL     1      43.484 -14.934   5.710  1.00  0.00     0.012 A 
BRANCH  14  17
HETATM   17  O   UNL     1      43.192 -17.617   8.245  1.00  0.00    -0.348 OA
BRANCH  17  18
HETATM   18  C   UNL     1      44.272 -18.499   7.933  1.00  0.00     0.202 C 
BRANCH  18  19
HETATM   19  C   UNL     1      43.764 -19.507   6.945  1.00  0.00    -0.011 C 
HETATM   20  C   UNL     1      43.620 -20.814   7.202  1.00  0.00     0.009 C 
ENDBRANCH  18  19
ENDBRANCH  17  18
ENDBRANCH  14  17
ENDBRANCH   1  11
BRANCH   2  21
HETATM   21  C   UNL     1      41.316 -11.652   5.063  1.00  0.00     0.167 C 
BRANCH  21  22
HETATM   22  C   UNL     1      40.764 -11.536   6.458  1.00  0.00    -0.023 A 
HETATM   23  C   UNL     1      41.270 -10.603   7.357  1.00  0.00     0.125 A 
HETATM   24  N   UNL     1      40.787 -10.415   8.606  1.00  0.00    -0.273 NA
HETATM   25  C   UNL     1      39.755 -11.198   8.985  1.00  0.00     0.116 A 
HETATM   26  C   UNL     1      39.181 -12.161   8.173  1.00  0.00     0.020 A 
HETATM   27  C   UNL     1      39.697 -12.331   6.891  1.00  0.00     0.012 A 
ENDBRANCH  21  22
ENDBRANCH   2  21
BRANCH  10  28
HETATM   28  C   UNL     1      41.931 -16.978   2.280  1.00  0.00     0.028 A 
HETATM   29  C   UNL     1      42.711 -17.115   1.124  1.00  0.00     0.078 A 
HETATM   30  C   UNL     1      43.751 -18.042   1.065  1.00  0.00     0.037 A 
HETATM   31  C   UNL     1      44.000 -18.877   2.154  1.00  0.00     0.003 A 
HETATM   32  C   UNL     1      43.210 -18.780   3.298  1.00  0.00     0.001 A 
HETATM   33  C   UNL     1      42.183 -17.835   3.363  1.00  0.00     0.017 A 
BRANCH  29  34
HETATM   34  O   UNL     1      42.493 -16.379  -0.011  1.00  0.00    -0.360 OA
HETATM   35  H   UNL     1      42.149 -16.995  -0.684  1.00  0.00     0.217 HD
ENDBRANCH  29  34
ENDBRANCH  10  28
TORSDOF 8
ENDMDL
MODEL 3
REMARK VINA RESULT:      -8.3      1.842      6.346
REMARK  8 active torsions:
REMARK  status: ('A' for Active; 'I' for Inactive)
REMARK    1  A    between atoms: C_2  and  C_3 
REMARK    2  A    between atoms: C_3  and  O_4 
REMARK    3  A    between atoms: O_4  and  C_5 
REMARK    4  A    between atoms: C_8  and  C_9 
REMARK    5  A    between atoms: N_10  and  C_11 
REMARK    6  A    between atoms: C_11  and  C_12 
REMARK    7  A    between atoms: C_25  and  C_26 
REMARK    8  A    between atoms: C_27  and  O_28 
ROOT
HETATM    1  C   UNL     1      42.879 -14.686   3.362  1.00  0.00     0.159 A 
HETATM    2  N   UNL     1      42.676 -14.548   4.831  1.00  0.00    -0.329 N 
HETATM    3  C   UNL     1      41.441 -13.987   5.181  1.00  0.00     0.273 A 
HETATM    4  O   UNL     1      41.032 -13.680   6.287  1.00  0.00    -0.266 OA
HETATM    5  C   UNL     1      40.792 -13.811   3.937  1.00  0.00     0.129 A 
HETATM    6  C   UNL     1      41.569 -14.189   2.884  1.00  0.00     0.034 A 
HETATM    7  N   UNL     1      39.621 -13.376   3.448  1.00  0.00    -0.272 N 
HETATM    8  H   UNL     1      38.808 -13.024   3.943  1.00  0.00     0.189 HD
HETATM    9  N   UNL     1      39.591 -13.452   2.092  1.00  0.00    -0.173 NA
HETATM   10  C   UNL     1      40.795 -13.959   1.738  1.00  0.00     0.101 A 
ENDROOT
BRANCH   1  11
HETATM   11  C   UNL     1      43.016 -16.108   2.874  1.00  0.00    -0.030 A 
HETATM   12  C   UNL     1      43.922 -16.484   1.869  1.00  0.00     0.012 A 
HETATM   13  C   UNL     1      44.092 -17.829   1.531  1.00  0.00     0.037 A 
HETATM   14  C   UNL     1      43.371 -18.821   2.193  1.00  0.00     0.069 A 
HETATM   15  C   UNL     1      42.421 -18.459   3.145  1.00  0.00     0.037 A 
HETATM   16  C   UNL     1      42.250 -17.115   3.487  1.00  0.00     0.012 A 
BRANCH  14  17
HETATM   17  O   UNL     1      43.667 -20.107   1.827  1.00  0.00    -0.348 OA
BRANCH  17  18
HETATM   18  C   UNL     1      44.758 -20.705   2.530  1.00  0.00     0.202 C 
BRANCH  18  19
HETATM   19  C   UNL     1      44.350 -22.100   2.897  1.00  0.00    -0.011 C 
HETATM   20  C   UNL     1      44.631 -22.689   4.068  1.00  0.00     0.009 C 
ENDBRANCH  18  19
ENDBRANCH  17  18
ENDBRANCH  14  17
ENDBRANCH   1  11
BRANCH   2  21
HETATM   21  C   UNL     1      43.778 -14.649   5.764  1.00  0.00     0.167 C 
BRANCH  21  22
HETATM   22  C   UNL     1      43.868 -16.022   6.373  1.00  0.00    -0.023 A 
HETATM   23  C   UNL     1      42.877 -16.498   7.225  1.00  0.00     0.125 A 
HETATM   24  N   UNL     1      42.873 -17.737   7.766  1.00  0.00    -0.273 NA
HETATM   25  C   UNL     1      43.910 -18.543   7.452  1.00  0.00     0.116 A 
HETATM   26  C   UNL     1      44.951 -18.167   6.621  1.00  0.00     0.020 A 
HETATM   27  C   UNL     1      44.927 -16.886   6.076  1.00  0.00     0.012 A 
ENDBRANCH  21  22
ENDBRANCH   2  21
BRANCH  10  28
HETATM   28  C   UNL     1      41.141 -14.223   0.346  1.00  0.00     0.028 A 
HETATM   29  C   UNL     1      40.953 -15.477  -0.252  1.00  0.00     0.078 A 
HETATM   30  C   UNL     1      41.192 -15.667  -1.612  1.00  0.00     0.037 A 
HETATM   31  C   UNL     1      41.663 -14.609  -2.389  1.00  0.00     0.003 A 
HETATM   32  C   UNL     1      41.891 -13.364  -1.804  1.00  0.00     0.001 A 
HETATM   33  C   UNL     1      41.629 -13.171  -0.445  1.00  0.00     0.017 A 
BRANCH  29  34
HETATM   34  O   UNL     1      40.555 -16.583   0.452  1.00  0.00    -0.360 OA
HETATM   35  H   UNL     1      39.587 -16.521   0.550  1.00  0.00     0.217 HD
ENDBRANCH  29  34
ENDBRANCH  10  28
TORSDOF 8
ENDMDL
MODEL 4
REMARK VINA RESULT:      -8.3      2.171      4.297
REMARK  8 active torsions:
REMARK  status: ('A' for Active; 'I' for Inactive)
REMARK    1  A    between atoms: C_2  and  C_3 
REMARK    2  A    between atoms: C_3  and  O_4 
REMARK    3  A    between atoms: O_4  and  C_5 
REMARK    4  A    between atoms: C_8  and  C_9 
REMARK    5  A    between atoms: N_10  and  C_11 
REMARK    6  A    between atoms: C_11  and  C_12 
REMARK    7  A    between atoms: C_25  and  C_26 
REMARK    8  A    between atoms: C_27  and  O_28 
ROOT
HETATM    1  C   UNL     1      41.510 -15.096   5.289  1.00  0.00     0.159 A 
HETATM    2  N   UNL     1      41.197 -13.663   5.032  1.00  0.00    -0.329 N 
HETATM    3  C   UNL     1      42.044 -12.770   5.700  1.00  0.00     0.273 A 
HETATM    4  O   UNL     1      41.982 -11.555   5.747  1.00  0.00    -0.266 OA
HETATM    5  C   UNL     1      42.970 -13.617   6.353  1.00  0.00     0.129 A 
HETATM    6  C   UNL     1      42.703 -14.938   6.151  1.00  0.00     0.034 A 
HETATM    7  N   UNL     1      44.058 -13.533   7.133  1.00  0.00    -0.272 N 
HETATM    8  H   UNL     1      44.539 -12.709   7.480  1.00  0.00     0.189 HD
HETATM    9  N   UNL     1      44.530 -14.764   7.462  1.00  0.00    -0.173 NA
HETATM   10  C   UNL     1      43.695 -15.639   6.852  1.00  0.00     0.101 A 
ENDROOT
BRANCH   1  11
HETATM   11  C   UNL     1      41.947 -15.876   4.072  1.00  0.00    -0.030 A 
HETATM   12  C   UNL     1      43.101 -15.556   3.338  1.00  0.00     0.012 A 
HETATM   13  C   UNL     1      43.525 -16.374   2.287  1.00  0.00     0.037 A 
HETATM   14  C   UNL     1      42.815 -17.527   1.957  1.00  0.00     0.069 A 
HETATM   15  C   UNL     1      41.633 -17.822   2.633  1.00  0.00     0.037 A 
HETATM   16  C   UNL     1      41.206 -17.006   3.685  1.00  0.00     0.012 A 
BRANCH  14  17
HETATM   17  O   UNL     1      43.358 -18.288   0.957  1.00  0.00    -0.348 OA
BRANCH  17  18
HETATM   18  C   UNL     1      44.292 -19.281   1.386  1.00  0.00     0.202 C 
BRANCH  18  19
HETATM   19  C   UNL     1      43.507 -20.471   1.851  1.00  0.00    -0.011 C 
HETATM   20  C   UNL     1      43.941 -21.737   1.787  1.00  0.00     0.009 C 
ENDBRANCH  18  19
ENDBRANCH  17  18
ENDBRANCH  14  17
ENDBRANCH   1  11
BRANCH   2  21
HETATM   21  C   UNL     1      39.937 -13.254   4.450  1.00  0.00     0.167 C 
BRANCH  21  22
HETATM   22  C   UNL     1      39.965 -13.336   2.947  1.00  0.00    -0.023 A 
HETATM   23  C   UNL     1      40.805 -12.519   2.197  1.00  0.00     0.125 A 
HETATM   24  N   UNL     1      40.913 -12.576   0.851  1.00  0.00    -0.273 NA
HETATM   25  C   UNL     1      40.143 -13.485   0.215  1.00  0.00     0.116 A 
HETATM   26  C   UNL     1      39.269 -14.340   0.864  1.00  0.00     0.020 A 
HETATM   27  C   UNL     1      39.180 -14.261   2.250  1.00  0.00     0.012 A 
ENDBRANCH  21  22
ENDBRANCH   2  21
BRANCH  10  28
HETATM   28  C   UNL     1      43.891 -17.081   6.941  1.00  0.00     0.028 A 
HETATM   29  C   UNL     1      43.716 -17.791   8.136  1.00  0.00     0.078 A 
HETATM   30  C   UNL     1      43.804 -19.183   8.164  1.00  0.00     0.037 A 
HETATM   31  C   UNL     1      44.109 -19.883   6.997  1.00  0.00     0.003 A 
HETATM   32  C   UNL     1      44.323 -19.190   5.807  1.00  0.00     0.001 A 
HETATM   33  C   UNL     1      44.212 -17.797   5.778  1.00  0.00     0.017 A 
BRANCH  29  34
HETATM   34  O   UNL     1      43.477 -17.177   9.337  1.00  0.00    -0.360 OA
HETATM   35  H   UNL     1      44.202 -17.436   9.935  1.00  0.00     0.217 HD
ENDBRANCH  29  34
ENDBRANCH  10  28
TORSDOF 8
ENDMDL
MODEL 5
REMARK VINA RESULT:      -8.2      2.579      6.371
REMARK  8 active torsions:
REMARK  status: ('A' for Active; 'I' for Inactive)
REMARK    1  A    between atoms: C_2  and  C_3 
REMARK    2  A    between atoms: C_3  and  O_4 
REMARK    3  A    between atoms: O_4  and  C_5 
REMARK    4  A    between atoms: C_8  and  C_9 
REMARK    5  A    between atoms: N_10  and  C_11 
REMARK    6  A    between atoms: C_11  and  C_12 
REMARK    7  A    between atoms: C_25  and  C_26 
REMARK    8  A    between atoms: C_27  and  O_28 
ROOT
HETATM    1  C   UNL     1      40.277 -14.580   2.390  1.00  0.00     0.159 A 
HETATM    2  N   UNL     1      40.024 -13.572   1.323  1.00  0.00    -0.329 N 
HETATM    3  C   UNL     1      40.505 -12.292   1.628  1.00  0.00     0.273 A 
HETATM    4  O   UNL     1      40.375 -11.261   0.993  1.00  0.00    -0.266 OA
HETATM    5  C   UNL     1      41.140 -12.466   2.879  1.00  0.00     0.129 A 
HETATM    6  C   UNL     1      41.032 -13.741   3.348  1.00  0.00     0.034 A 
HETATM    7  N   UNL     1      41.834 -11.755   3.780  1.00  0.00    -0.272 N 
HETATM    8  H   UNL     1      42.105 -10.777   3.758  1.00  0.00     0.189 HD
HETATM    9  N   UNL     1      42.195 -12.519   4.844  1.00  0.00    -0.173 NA
HETATM   10  C   UNL     1      41.704 -13.752   4.579  1.00  0.00     0.101 A 
ENDROOT
BRANCH   1  11
HETATM   11  C   UNL     1      41.187 -15.714   1.985  1.00  0.00    -0.030 A 
HETATM   12  C   UNL     1      42.567 -15.547   1.782  1.00  0.00     0.012 A 
HETATM   13  C   UNL     1      43.385 -16.649   1.519  1.00  0.00     0.037 A 
HETATM   14  C   UNL     1      42.847 -17.933   1.464  1.00  0.00     0.069 A 
HETATM   15  C   UNL     1      41.471 -18.107   1.598  1.00  0.00     0.037 A 
HETATM   16  C   UNL     1      40.650 -17.007   1.862  1.00  0.00     0.012 A 
BRANCH  14  17
HETATM   17  O   UNL     1      43.750 -18.942   1.267  1.00  0.00    -0.348 OA
BRANCH  17  18
HETATM   18  C   UNL     1      43.555 -20.102   2.079  1.00  0.00     0.202 C 
BRANCH  18  19
HETATM   19  C   UNL     1      44.446 -19.971   3.278  1.00  0.00    -0.011 C 
HETATM   20  C   UNL     1      44.093 -19.369   4.422  1.00  0.00     0.009 C 
ENDBRANCH  18  19
ENDBRANCH  17  18
ENDBRANCH  14  17
ENDBRANCH   1  11
BRANCH   2  21
HETATM   21  C   UNL     1      39.073 -13.814   0.259  1.00  0.00     0.167 C 
BRANCH  21  22
HETATM   22  C   UNL     1      39.753 -13.944  -1.077  1.00  0.00    -0.023 A 
HETATM   23  C   UNL     1      39.640 -12.948  -2.042  1.00  0.00     0.125 A 
HETATM   24  N   UNL     1      40.263 -12.981  -3.242  1.00  0.00    -0.273 NA
HETATM   25  C   UNL     1      41.032 -14.060  -3.500  1.00  0.00     0.116 A 
HETATM   26  C   UNL     1      41.207 -15.110  -2.614  1.00  0.00     0.020 A 
HETATM   27  C   UNL     1      40.554 -15.048  -1.386  1.00  0.00     0.012 A 
ENDBRANCH  21  22
ENDBRANCH   2  21
BRANCH  10  28
HETATM   28  C   UNL     1      41.914 -14.877   5.483  1.00  0.00     0.028 A 
HETATM   29  C   UNL     1      40.854 -15.641   5.992  1.00  0.00     0.078 A 
HETATM   30  C   UNL     1      41.094 -16.775   6.766  1.00  0.00     0.037 A 
HETATM   31  C   UNL     1      42.404 -17.141   7.076  1.00  0.00     0.003 A 
HETATM   32  C   UNL     1      43.469 -16.372   6.609  1.00  0.00     0.001 A 
HETATM   33  C   UNL     1      43.226 -15.248   5.815  1.00  0.00     0.017 A 
BRANCH  29  34
HETATM   34  O   UNL     1      39.539 -15.316   5.788  1.00  0.00    -0.360 OA
HETATM   35  H   UNL     1      39.262 -15.762   4.967  1.00  0.00     0.217 HD
ENDBRANCH  29  34
ENDBRANCH  10  28
TORSDOF 8
ENDMDL
MODEL 6
REMARK VINA RESULT:      -7.8      1.547      6.144
REMARK  8 active torsions:
REMARK  status: ('A' for Active; 'I' for Inactive)
REMARK    1  A    between atoms: C_2  and  C_3 
REMARK    2  A    between atoms: C_3  and  O_4 
REMARK    3  A    between atoms: O_4  and  C_5 
REMARK    4  A    between atoms: C_8  and  C_9 
REMARK    5  A    between atoms: N_10  and  C_11 
REMARK    6  A    between atoms: C_11  and  C_12 
REMARK    7  A    between atoms: C_25  and  C_26 
REMARK    8  A    between atoms: C_27  and  O_28 
ROOT
HETATM    1  C   UNL     1      43.198 -16.635   4.317  1.00  0.00     0.159 A 
HETATM    2  N   UNL     1      43.571 -17.967   4.869  1.00  0.00    -0.329 N 
HETATM    3  C   UNL     1      42.785 -18.368   5.957  1.00  0.00     0.273 A 
HETATM    4  O   UNL     1      42.906 -19.358   6.657  1.00  0.00    -0.266 OA
HETATM    5  C   UNL     1      41.841 -17.324   6.088  1.00  0.00     0.129 A 
HETATM    6  C   UNL     1      42.040 -16.324   5.185  1.00  0.00     0.034 A 
HETATM    7  N   UNL     1      40.782 -16.992   6.841  1.00  0.00    -0.272 N 
HETATM    8  H   UNL     1      40.350 -17.502   7.605  1.00  0.00     0.189 HD
HETATM    9  N   UNL     1      40.263 -15.793   6.468  1.00  0.00    -0.173 NA
HETATM   10  C   UNL     1      41.037 -15.376   5.438  1.00  0.00     0.101 A 
ENDROOT
BRANCH   1  11
HETATM   11  C   UNL     1      42.690 -16.660   2.896  1.00  0.00    -0.030 A 
HETATM   12  C   UNL     1      41.711 -17.565   2.453  1.00  0.00     0.012 A 
HETATM   13  C   UNL     1      41.192 -17.475   1.159  1.00  0.00     0.037 A 
HETATM   14  C   UNL     1      41.629 -16.477   0.289  1.00  0.00     0.069 A 
HETATM   15  C   UNL     1      42.646 -15.613   0.692  1.00  0.00     0.037 A 
HETATM   16  C   UNL     1      43.167 -15.701   1.986  1.00  0.00     0.012 A 
BRANCH  14  17
HETATM   17  O   UNL     1      41.004 -16.442  -0.928  1.00  0.00    -0.348 OA
BRANCH  17  18
HETATM   18  C   UNL     1      40.954 -15.156  -1.550  1.00  0.00     0.202 C 
BRANCH  18  19
HETATM   19  C   UNL     1      40.749 -15.372  -3.020  1.00  0.00    -0.011 C 
HETATM   20  C   UNL     1      39.775 -16.126  -3.548  1.00  0.00     0.009 C 
ENDBRANCH  18  19
ENDBRANCH  17  18
ENDBRANCH  14  17
ENDBRANCH   1  11
BRANCH   2  21
HETATM   21  C   UNL     1      44.831 -18.600   4.542  1.00  0.00     0.167 C 
BRANCH  21  22
HETATM   22  C   UNL     1      44.629 -19.894   3.801  1.00  0.00    -0.023 A 
HETATM   23  C   UNL     1      44.877 -21.119   4.410  1.00  0.00     0.125 A 
HETATM   24  N   UNL     1      44.670 -22.317   3.817  1.00  0.00    -0.273 NA
HETATM   25  C   UNL     1      44.200 -22.297   2.552  1.00  0.00     0.116 A 
HETATM   26  C   UNL     1      43.926 -21.135   1.851  1.00  0.00     0.020 A 
HETATM   27  C   UNL     1      44.146 -19.917   2.488  1.00  0.00     0.012 A 
ENDBRANCH  21  22
ENDBRANCH   2  21
BRANCH  10  28
HETATM   28  C   UNL     1      40.777 -14.126   4.735  1.00  0.00     0.028 A 
HETATM   29  C   UNL     1      41.170 -12.880   5.245  1.00  0.00     0.078 A 
HETATM   30  C   UNL     1      41.004 -11.714   4.499  1.00  0.00     0.037 A 
HETATM   31  C   UNL     1      40.403 -11.774   3.241  1.00  0.00     0.003 A 
HETATM   32  C   UNL     1      39.973 -12.999   2.734  1.00  0.00     0.001 A 
HETATM   33  C   UNL     1      40.160 -14.168   3.475  1.00  0.00     0.017 A 
BRANCH  29  34
HETATM   34  O   UNL     1      41.709 -12.726   6.495  1.00  0.00    -0.360 OA
HETATM   35  H   UNL     1      42.530 -12.212   6.386  1.00  0.00     0.217 HD
ENDBRANCH  29  34
ENDBRANCH  10  28
TORSDOF 8
ENDMDL
MODEL 7
REMARK VINA RESULT:      -7.6      2.756      7.692
REMARK  8 active torsions:
REMARK  status: ('A' for Active; 'I' for Inactive)
REMARK    1  A    between atoms: C_2  and  C_3 
REMARK    2  A    between atoms: C_3  and  O_4 
REMARK    3  A    between atoms: O_4  and  C_5 
REMARK    4  A    between atoms: C_8  and  C_9 
REMARK    5  A    between atoms: N_10  and  C_11 
REMARK    6  A    between atoms: C_11  and  C_12 
REMARK    7  A    between atoms: C_25  and  C_26 
REMARK    8  A    between atoms: C_27  and  O_28 
ROOT
HETATM    1  C   UNL     1      40.654 -16.069   3.150  1.00  0.00     0.159 A 
HETATM    2  N   UNL     1      41.656 -17.170   3.169  1.00  0.00    -0.329 N 
HETATM    3  C   UNL     1      42.307 -17.365   1.944  1.00  0.00     0.273 A 
HETATM    4  O   UNL     1      43.105 -18.232   1.637  1.00  0.00    -0.266 OA
HETATM    5  C   UNL     1      41.779 -16.342   1.122  1.00  0.00     0.129 A 
HETATM    6  C   UNL     1      40.841 -15.590   1.762  1.00  0.00     0.034 A 
HETATM    7  N   UNL     1      41.911 -15.862  -0.123  1.00  0.00    -0.272 N 
HETATM    8  H   UNL     1      42.520 -16.175  -0.873  1.00  0.00     0.189 HD
HETATM    9  N   UNL     1      41.083 -14.806  -0.339  1.00  0.00    -0.173 NA
HETATM   10  C   UNL     1      40.421 -14.630   0.829  1.00  0.00     0.101 A 
ENDROOT
BRANCH   1  11
HETATM   11  C   UNL     1      40.971 -14.909   4.063  1.00  0.00    -0.030 A 
HETATM   12  C   UNL     1      42.185 -14.205   4.005  1.00  0.00     0.012 A 
HETATM   13  C   UNL     1      42.387 -13.069   4.793  1.00  0.00     0.037 A 
HETATM   14  C   UNL     1      41.382 -12.610   5.643  1.00  0.00     0.069 A 
HETATM   15  C   UNL     1      40.198 -13.335   5.760  1.00  0.00     0.037 A 
HETATM   16  C   UNL     1      39.992 -14.471   4.972  1.00  0.00     0.012 A 
BRANCH  14  17
HETATM   17  O   UNL     1      41.663 -11.452   6.316  1.00  0.00    -0.348 OA
BRANCH  17  18
HETATM   18  C   UNL     1      40.593 -10.931   7.107  1.00  0.00     0.202 C 
BRANCH  18  19
HETATM   19  C   UNL     1      41.153 -10.583   8.454  1.00  0.00    -0.011 C 
HETATM   20  C   UNL     1      42.455 -10.631   8.770  1.00  0.00     0.009 C 
ENDBRANCH  18  19
ENDBRANCH  17  18
ENDBRANCH  14  17
ENDBRANCH   1  11
BRANCH   2  21
HETATM   21  C   UNL     1      41.684 -18.153   4.231  1.00  0.00     0.167 C 
BRANCH  21  22
HETATM   22  C   UNL     1      42.934 -18.039   5.062  1.00  0.00    -0.023 A 
HETATM   23  C   UNL     1      43.996 -18.920   4.890  1.00  0.00     0.125 A 
HETATM   24  N   UNL     1      45.163 -18.843   5.570  1.00  0.00    -0.273 NA
HETATM   25  C   UNL     1      45.278 -17.844   6.471  1.00  0.00     0.116 A 
HETATM   26  C   UNL     1      44.281 -16.918   6.725  1.00  0.00     0.020 A 
HETATM   27  C   UNL     1      43.092 -17.021   6.009  1.00  0.00     0.012 A 
ENDBRANCH  21  22
ENDBRANCH   2  21
BRANCH  10  28
HETATM   28  C   UNL     1      39.449 -13.558   1.010  1.00  0.00     0.028 A 
HETATM   29  C   UNL     1      38.197 -13.563   0.380  1.00  0.00     0.078 A 
HETATM   30  C   UNL     1      37.249 -12.578   0.658  1.00  0.00     0.037 A 
HETATM   31  C   UNL     1      37.558 -11.549   1.547  1.00  0.00     0.003 A 
HETATM   32  C   UNL     1      38.812 -11.508   2.154  1.00  0.00     0.001 A 
HETATM   33  C   UNL     1      39.751 -12.507   1.890  1.00  0.00     0.017 A 
BRANCH  29  34
HETATM   34  O   UNL     1      37.838 -14.501  -0.552  1.00  0.00    -0.360 OA
HETATM   35  H   UNL     1      38.446 -14.397  -1.306  1.00  0.00     0.217 HD
ENDBRANCH  29  34
ENDBRANCH  10  28
TORSDOF 8
ENDMDL
MODEL 8
REMARK VINA RESULT:      -7.5      2.734      8.042
REMARK  8 active torsions:
REMARK  status: ('A' for Active; 'I' for Inactive)
REMARK    1  A    between atoms: C_2  and  C_3 
REMARK    2  A    between atoms: C_3  and  O_4 
REMARK    3  A    between atoms: O_4  and  C_5 
REMARK    4  A    between atoms: C_8  and  C_9 
REMARK    5  A    between atoms: N_10  and  C_11 
REMARK    6  A    between atoms: C_11  and  C_12 
REMARK    7  A    between atoms: C_25  and  C_26 
REMARK    8  A    between atoms: C_27  and  O_28 
ROOT
HETATM    1  C   UNL     1      40.345 -14.168   4.074  1.00  0.00     0.159 A 
HETATM    2  N   UNL     1      40.687 -14.423   2.647  1.00  0.00    -0.329 N 
HETATM    3  C   UNL     1      41.091 -13.278   1.949  1.00  0.00     0.273 A 
HETATM    4  O   UNL     1      41.350 -13.163   0.764  1.00  0.00    -0.266 OA
HETATM    5  C   UNL     1      41.080 -12.266   2.937  1.00  0.00     0.129 A 
HETATM    6  C   UNL     1      40.661 -12.724   4.149  1.00  0.00     0.034 A 
HETATM    7  N   UNL     1      41.356 -10.960   3.064  1.00  0.00    -0.272 N 
HETATM    8  H   UNL     1      41.693 -10.302   2.368  1.00  0.00     0.189 HD
HETATM    9  N   UNL     1      41.133 -10.527   4.333  1.00  0.00    -0.173 NA
HETATM   10  C   UNL     1      40.706 -11.618   5.011  1.00  0.00     0.101 A 
ENDROOT
BRANCH   1  11
HETATM   11  C   UNL     1      41.236 -14.867   5.072  1.00  0.00    -0.030 A 
HETATM   12  C   UNL     1      40.772 -15.882   5.927  1.00  0.00     0.012 A 
HETATM   13  C   UNL     1      41.659 -16.576   6.753  1.00  0.00     0.037 A 
HETATM   14  C   UNL     1      43.021 -16.280   6.737  1.00  0.00     0.069 A 
HETATM   15  C   UNL     1      43.486 -15.233   5.944  1.00  0.00     0.037 A 
HETATM   16  C   UNL     1      42.601 -14.537   5.115  1.00  0.00     0.012 A 
BRANCH  14  17
HETATM   17  O   UNL     1      43.804 -17.067   7.536  1.00  0.00    -0.348 OA
BRANCH  17  18
HETATM   18  C   UNL     1      44.948 -17.638   6.897  1.00  0.00     0.202 C 
BRANCH  18  19
HETATM   19  C   UNL     1      44.489 -18.849   6.142  1.00  0.00    -0.011 C 
HETATM   20  C   UNL     1      43.777 -19.851   6.676  1.00  0.00     0.009 C 
ENDBRANCH  18  19
ENDBRANCH  17  18
ENDBRANCH  14  17
ENDBRANCH   1  11
BRANCH   2  21
HETATM   21  C   UNL     1      40.296 -15.646   1.979  1.00  0.00     0.167 C 
BRANCH  21  22
HETATM   22  C   UNL     1      41.432 -16.631   1.911  1.00  0.00    -0.023 A 
HETATM   23  C   UNL     1      42.318 -16.635   0.838  1.00  0.00     0.125 A 
HETATM   24  N   UNL     1      43.385 -17.460   0.739  1.00  0.00    -0.273 NA
HETATM   25  C   UNL     1      43.579 -18.330   1.753  1.00  0.00     0.116 A 
HETATM   26  C   UNL     1      42.755 -18.414   2.863  1.00  0.00     0.020 A 
HETATM   27  C   UNL     1      41.666 -17.551   2.938  1.00  0.00     0.012 A 
ENDBRANCH  21  22
ENDBRANCH   2  21
BRANCH  10  28
HETATM   28  C   UNL     1      40.389 -11.567   6.433  1.00  0.00     0.028 A 
HETATM   29  C   UNL     1      41.018 -10.674   7.312  1.00  0.00     0.078 A 
HETATM   30  C   UNL     1      40.615 -10.575   8.644  1.00  0.00     0.037 A 
HETATM   31  C   UNL     1      39.598 -11.399   9.125  1.00  0.00     0.003 A 
HETATM   32  C   UNL     1      38.987 -12.318   8.274  1.00  0.00     0.001 A 
HETATM   33  C   UNL     1      39.378 -12.400   6.936  1.00  0.00     0.017 A 
BRANCH  29  34
HETATM   34  O   UNL     1      42.065  -9.876   6.937  1.00  0.00    -0.360 OA
HETATM   35  H   UNL     1      41.872  -8.981   7.273  1.00  0.00     0.217 HD
ENDBRANCH  29  34
ENDBRANCH  10  28
TORSDOF 8
ENDMDL
MODEL 9
REMARK VINA RESULT:      -7.4      2.874      8.309
REMARK  8 active torsions:
REMARK  status: ('A' for Active; 'I' for Inactive)
REMARK    1  A    between atoms: C_2  and  C_3 
REMARK    2  A    between atoms: C_3  and  O_4 
REMARK    3  A    between atoms: O_4  and  C_5 
REMARK    4  A    between atoms: C_8  and  C_9 
REMARK    5  A    between atoms: N_10  and  C_11 
REMARK    6  A    between atoms: C_11  and  C_12 
REMARK    7  A    between atoms: C_25  and  C_26 
REMARK    8  A    between atoms: C_27  and  O_28 
ROOT
HETATM    1  C   UNL     1      40.238 -14.760   3.779  1.00  0.00     0.159 A 
HETATM    2  N   UNL     1      40.289 -15.289   2.387  1.00  0.00    -0.329 N 
HETATM    3  C   UNL     1      40.063 -14.318   1.404  1.00  0.00     0.273 A 
HETATM    4  O   UNL     1      39.964 -14.466   0.199  1.00  0.00    -0.266 OA
HETATM    5  C   UNL     1      39.925 -13.122   2.145  1.00  0.00     0.129 A 
HETATM    6  C   UNL     1      40.013 -13.326   3.489  1.00  0.00     0.034 A 
HETATM    7  N   UNL     1      39.727 -11.811   1.941  1.00  0.00    -0.272 N 
HETATM    8  H   UNL     1      39.619 -11.304   1.068  1.00  0.00     0.189 HD
HETATM    9  N   UNL     1      39.679 -11.127   3.115  1.00  0.00    -0.173 NA
HETATM   10  C   UNL     1      39.860 -12.062   4.077  1.00  0.00     0.101 A 
ENDROOT
BRANCH   1  11
HETATM   11  C   UNL     1      41.537 -14.857   4.540  1.00  0.00    -0.030 A 
HETATM   12  C   UNL     1      42.704 -14.184   4.143  1.00  0.00     0.012 A 
HETATM   13  C   UNL     1      43.850 -14.215   4.942  1.00  0.00     0.037 A 
HETATM   14  C   UNL     1      43.850 -14.906   6.153  1.00  0.00     0.069 A 
HETATM   15  C   UNL     1      42.722 -15.632   6.528  1.00  0.00     0.037 A 
HETATM   16  C   UNL     1      41.574 -15.603   5.732  1.00  0.00     0.012 A 
BRANCH  14  17
HETATM   17  O   UNL     1      45.003 -14.812   6.884  1.00  0.00    -0.348 OA
BRANCH  17  18
HETATM   18  C   UNL     1      45.488 -13.484   7.090  1.00  0.00     0.202 C 
BRANCH  18  19
HETATM   19  C   UNL     1      44.819 -12.942   8.318  1.00  0.00    -0.011 C 
HETATM   20  C   UNL     1      45.356 -12.021   9.130  1.00  0.00     0.009 C 
ENDBRANCH  18  19
ENDBRANCH  17  18
ENDBRANCH  14  17
ENDBRANCH   1  11
BRANCH   2  21
HETATM   21  C   UNL     1      40.221 -16.709   2.112  1.00  0.00     0.167 C 
BRANCH  21  22
HETATM   22  C   UNL     1      41.590 -17.330   2.051  1.00  0.00    -0.023 A 
HETATM   23  C   UNL     1      42.422 -17.135   0.953  1.00  0.00     0.125 A 
HETATM   24  N   UNL     1      43.678 -17.625   0.857  1.00  0.00    -0.273 NA
HETATM   25  C   UNL     1      44.131 -18.351   1.901  1.00  0.00     0.116 A 
HETATM   26  C   UNL     1      43.385 -18.610   3.038  1.00  0.00     0.020 A 
HETATM   27  C   UNL     1      42.095 -18.092   3.110  1.00  0.00     0.012 A 
ENDBRANCH  21  22
ENDBRANCH   2  21
BRANCH  10  28
HETATM   28  C   UNL     1      39.903 -11.713   5.493  1.00  0.00     0.028 A 
HETATM   29  C   UNL     1      40.521 -10.545   5.960  1.00  0.00     0.078 A 
HETATM   30  C   UNL     1      40.452 -10.185   7.305  1.00  0.00     0.037 A 
HETATM   31  C   UNL     1      39.792 -11.014   8.213  1.00  0.00     0.003 A 
HETATM   32  C   UNL     1      39.204 -12.198   7.772  1.00  0.00     0.001 A 
HETATM   33  C   UNL     1      39.257 -12.545   6.419  1.00  0.00     0.017 A 
BRANCH  29  34
HETATM   34  O   UNL     1      41.242  -9.709   5.148  1.00  0.00    -0.360 OA
HETATM   35  H   UNL     1      42.087  -9.536   5.601  1.00  0.00     0.217 HD
ENDBRANCH  29  34
ENDBRANCH  10  28
TORSDOF 8
ENDMDL
MODEL 10
REMARK VINA RESULT:      -7.4      3.290      6.538
REMARK  8 active torsions:
REMARK  status: ('A' for Active; 'I' for Inactive)
REMARK    1  A    between atoms: C_2  and  C_3 
REMARK    2  A    between atoms: C_3  and  O_4 
REMARK    3  A    between atoms: O_4  and  C_5 
REMARK    4  A    between atoms: C_8  and  C_9 
REMARK    5  A    between atoms: N_10  and  C_11 
REMARK    6  A    between atoms: C_11  and  C_12 
REMARK    7  A    between atoms: C_25  and  C_26 
REMARK    8  A    between atoms: C_27  and  O_28 
ROOT
HETATM    1  C   UNL     1      41.647 -13.678   2.198  1.00  0.00     0.159 A 
HETATM    2  N   UNL     1      40.587 -12.651   2.001  1.00  0.00    -0.329 N 
HETATM    3  C   UNL     1      39.308 -13.189   1.809  1.00  0.00     0.273 A 
HETATM    4  O   UNL     1      38.271 -12.606   1.545  1.00  0.00    -0.266 OA
HETATM    5  C   UNL     1      39.509 -14.582   1.943  1.00  0.00     0.129 A 
HETATM    6  C   UNL     1      40.816 -14.902   2.159  1.00  0.00     0.034 A 
HETATM    7  N   UNL     1      38.805 -15.723   1.923  1.00  0.00    -0.272 N 
HETATM    8  H   UNL     1      37.808 -15.862   1.790  1.00  0.00     0.189 HD
HETATM    9  N   UNL     1      39.604 -16.804   2.120  1.00  0.00    -0.173 NA
HETATM   10  C   UNL     1      40.852 -16.300   2.271  1.00  0.00     0.101 A 
ENDROOT
BRANCH   1  11
HETATM   11  C   UNL     1      42.319 -13.644   3.549  1.00  0.00    -0.030 A 
HETATM   12  C   UNL     1      41.632 -13.322   4.732  1.00  0.00     0.012 A 
HETATM   13  C   UNL     1      42.270 -13.414   5.972  1.00  0.00     0.037 A 
HETATM   14  C   UNL     1      43.596 -13.835   6.056  1.00  0.00     0.069 A 
HETATM   15  C   UNL     1      44.309 -14.095   4.888  1.00  0.00     0.037 A 
HETATM   16  C   UNL     1      43.673 -14.005   3.646  1.00  0.00     0.012 A 
BRANCH  14  17
HETATM   17  O   UNL     1      44.097 -13.952   7.324  1.00  0.00    -0.348 OA
BRANCH  17  18
HETATM   18  C   UNL     1      45.305 -13.230   7.572  1.00  0.00     0.202 C 
BRANCH  18  19
HETATM   19  C   UNL     1      45.105 -12.427   8.822  1.00  0.00    -0.011 C 
HETATM   20  C   UNL     1      45.877 -11.396   9.193  1.00  0.00     0.009 C 
ENDBRANCH  18  19
ENDBRANCH  17  18
ENDBRANCH  14  17
ENDBRANCH   1  11
BRANCH   2  21
HETATM   21  C   UNL     1      40.910 -11.276   1.687  1.00  0.00     0.167 C 
BRANCH  21  22
HETATM   22  C   UNL     1      41.423 -11.132   0.281  1.00  0.00    -0.023 A 
HETATM   23  C   UNL     1      42.787 -11.147   0.007  1.00  0.00     0.125 A 
HETATM   24  N   UNL     1      43.312 -11.070  -1.237  1.00  0.00    -0.273 NA
HETATM   25  C   UNL     1      42.438 -10.966  -2.261  1.00  0.00     0.116 A 
HETATM   26  C   UNL     1      41.064 -10.935  -2.100  1.00  0.00     0.020 A 
HETATM   27  C   UNL     1      40.552 -11.018  -0.808  1.00  0.00     0.012 A 
ENDBRANCH  21  22
ENDBRANCH   2  21
BRANCH  10  28
HETATM   28  C   UNL     1      42.002 -17.156   2.536  1.00  0.00     0.028 A 
HETATM   29  C   UNL     1      42.416 -17.478   3.836  1.00  0.00     0.078 A 
HETATM   30  C   UNL     1      43.452 -18.385   4.056  1.00  0.00     0.037 A 
HETATM   31  C   UNL     1      44.117 -18.956   2.971  1.00  0.00     0.003 A 
HETATM   32  C   UNL     1      43.743 -18.619   1.671  1.00  0.00     0.001 A 
HETATM   33  C   UNL     1      42.690 -17.727   1.455  1.00  0.00     0.017 A 
BRANCH  29  34
HETATM   34  O   UNL     1      41.860 -16.914   4.954  1.00  0.00    -0.360 OA
HETATM   35  H   UNL     1      42.168 -17.437   5.717  1.00  0.00     0.217 HD
ENDBRANCH  29  34
ENDBRANCH  10  28
TORSDOF 8
ENDMDL
