MODEL 1
REMARK VINA RESULT:      -7.9      0.000      0.000
REMARK  6 active torsions:
REMARK  status: ('A' for Active; 'I' for Inactive)
REMARK    1  A    between atoms: N_1  and  C_5 
REMARK    2  A    between atoms: C_5  and  C_6 
REMARK    3  A    between atoms: C_6  and  O_7 
REMARK    4  A    between atoms: C_6  and  C_8 
REMARK    5  A    between atoms: C_6  and  C_15 
REMARK    6  A    between atoms: C_18  and  C_21 
ROOT
HETATM    1  C   UNL     1      44.083 -18.303   6.321  1.00  0.00     0.135 C 
ENDROOT
BRANCH   1   2
HETATM    2  C   UNL     1      43.712 -19.053   7.645  1.00  0.00     0.277 C 
BRANCH   2   3
HETATM    3  N   UNL     1      43.971 -18.147   8.817  1.00  0.00    -0.076 N 
HETATM    4  H   UNL     1      44.778 -18.541   9.332  1.00  0.00     0.274 HD
HETATM    5  H   UNL     1      44.257 -17.207   8.510  1.00  0.00     0.274 HD
HETATM    6  H   UNL     1      43.174 -18.067   9.458  1.00  0.00     0.274 HD
ENDBRANCH   2   3
ENDBRANCH   1   2
BRANCH   1   7
HETATM    7  O   UNL     1      45.404 -17.781   6.614  1.00  0.00    -0.378 OA
HETATM    8  H   UNL     1      45.503 -17.734   7.586  1.00  0.00     0.211 HD
ENDBRANCH   1   7
BRANCH   1   9
HETATM    9  C   UNL     1      44.170 -19.175   5.066  1.00  0.00    -0.018 A 
HETATM   10  C   UNL     1      43.803 -18.721   3.787  1.00  0.00     0.012 A 
HETATM   11  C   UNL     1      43.891 -19.565   2.673  1.00  0.00     0.024 A 
HETATM   12  C   UNL     1      44.346 -20.872   2.818  1.00  0.00     0.034 A 
HETATM   13 CL   UNL     1      44.447 -21.901   1.446  1.00  0.00    -0.084 Cl
HETATM   14  C   UNL     1      44.721 -21.344   4.069  1.00  0.00     0.024 A 
HETATM   15  C   UNL     1      44.634 -20.504   5.183  1.00  0.00     0.012 A 
ENDBRANCH   1   9
BRANCH   1  16
HETATM   16  C   UNL     1      43.102 -17.132   6.154  1.00  0.00    -0.018 A 
HETATM   17  C   UNL     1      41.711 -17.325   6.157  1.00  0.00     0.011 A 
HETATM   18  C   UNL     1      40.834 -16.252   5.956  1.00  0.00     0.013 A 
HETATM   19  C   UNL     1      41.320 -14.957   5.749  1.00  0.00    -0.023 A 
HETATM   20  C   UNL     1      42.703 -14.753   5.770  1.00  0.00     0.013 A 
HETATM   21  C   UNL     1      43.583 -15.822   5.974  1.00  0.00     0.011 A 
BRANCH  19  22
HETATM   22  C   UNL     1      40.397 -13.857   5.535  1.00  0.00     0.010 A 
HETATM   23  C   UNL     1      39.712 -13.031   6.458  1.00  0.00     0.152 A 
HETATM   24  N   UNL     1      38.918 -12.139   5.863  1.00  0.00    -0.187 NA
HETATM   25  N   UNL     1      39.096 -12.377   4.556  1.00  0.00    -0.289 N 
HETATM   26  H   UNL     1      38.586 -11.805   3.889  1.00  0.00     0.188 HD
HETATM   27  C   UNL     1      39.965 -13.402   4.305  1.00  0.00     0.123 A 
ENDBRANCH  19  22
ENDBRANCH   1  16
TORSDOF 6
ENDMDL
MODEL 2
REMARK VINA RESULT:      -7.6      3.063      4.392
REMARK  6 active torsions:
REMARK  status: ('A' for Active; 'I' for Inactive)
REMARK    1  A    between atoms: N_1  and  C_5 
REMARK    2  A    between atoms: C_5  and  C_6 
REMARK    3  A    between atoms: C_6  and  O_7 
REMARK    4  A    between atoms: C_6  and  C_8 
REMARK    5  A    between atoms: C_6  and  C_15 
REMARK    6  A    between atoms: C_18  and  C_21 
ROOT
HETATM    1  C   UNL     1      41.965 -17.064   3.991  1.00  0.00     0.135 C 
ENDROOT
BRANCH   1   2
HETATM    2  C   UNL     1      41.356 -16.194   2.839  1.00  0.00     0.277 C 
BRANCH   2   3
HETATM    3  N   UNL     1      39.902 -16.538   2.672  1.00  0.00    -0.076 N 
HETATM    4  H   UNL     1      39.569 -16.896   3.584  1.00  0.00     0.274 HD
HETATM    5  H   UNL     1      39.338 -15.701   2.469  1.00  0.00     0.274 HD
HETATM    6  H   UNL     1      39.728 -17.246   1.952  1.00  0.00     0.274 HD
ENDBRANCH   2   3
ENDBRANCH   1   2
BRANCH   1   7
HETATM    7  O   UNL     1      40.785 -17.486   4.723  1.00  0.00    -0.378 OA
HETATM    8  H   UNL     1      40.435 -18.292   4.295  1.00  0.00     0.211 HD
ENDBRANCH   1   7
BRANCH   1   9
HETATM    9  C   UNL     1      42.735 -18.309   3.547  1.00  0.00    -0.018 A 
HETATM   10  C   UNL     1      43.637 -18.993   4.381  1.00  0.00     0.012 A 
HETATM   11  C   UNL     1      44.327 -20.122   3.919  1.00  0.00     0.024 A 
HETATM   12  C   UNL     1      44.126 -20.584   2.622  1.00  0.00     0.034 A 
HETATM   13 CL   UNL     1      44.978 -21.967   2.064  1.00  0.00    -0.084 Cl
HETATM   14  C   UNL     1      43.235 -19.930   1.780  1.00  0.00     0.024 A 
HETATM   15  C   UNL     1      42.546 -18.804   2.238  1.00  0.00     0.012 A 
ENDBRANCH   1   9
BRANCH   1  16
HETATM   16  C   UNL     1      42.808 -16.139   4.883  1.00  0.00    -0.018 A 
HETATM   17  C   UNL     1      43.120 -16.473   6.210  1.00  0.00     0.011 A 
HETATM   18  C   UNL     1      43.849 -15.596   7.023  1.00  0.00     0.013 A 
HETATM   19  C   UNL     1      44.290 -14.363   6.532  1.00  0.00    -0.023 A 
HETATM   20  C   UNL     1      44.005 -14.034   5.202  1.00  0.00     0.013 A 
HETATM   21  C   UNL     1      43.280 -14.909   4.387  1.00  0.00     0.011 A 
BRANCH  19  22
HETATM   22  C   UNL     1      45.038 -13.462   7.390  1.00  0.00     0.010 A 
HETATM   23  C   UNL     1      44.681 -12.834   8.607  1.00  0.00     0.152 A 
HETATM   24  N   UNL     1      45.644 -12.043   9.082  1.00  0.00    -0.187 NA
HETATM   25  N   UNL     1      46.631 -12.166   8.182  1.00  0.00    -0.289 N 
HETATM   26  H   UNL     1      47.490 -11.648   8.337  1.00  0.00     0.188 HD
HETATM   27  C   UNL     1      46.315 -12.998   7.144  1.00  0.00     0.123 A 
ENDBRANCH  19  22
ENDBRANCH   1  16
TORSDOF 6
ENDMDL
MODEL 3
REMARK VINA RESULT:      -7.6      3.611      7.135
REMARK  6 active torsions:
REMARK  status: ('A' for Active; 'I' for Inactive)
REMARK    1  A    between atoms: N_1  and  C_5 
REMARK    2  A    between atoms: C_5  and  C_6 
REMARK    3  A    between atoms: C_6  and  O_7 
REMARK    4  A    between atoms: C_6  and  C_8 
REMARK    5  A    between atoms: C_6  and  C_15 
REMARK    6  A    between atoms: C_18  and  C_21 
ROOT
HETATM    1  C   UNL     1      43.259 -15.623   5.967  1.00  0.00     0.135 C 
ENDROOT
BRANCH   1   2
HETATM    2  C   UNL     1      44.510 -15.088   6.743  1.00  0.00     0.277 C 
BRANCH   2   3
HETATM    3  N   UNL     1      44.116 -13.882   7.550  1.00  0.00    -0.076 N 
HETATM    4  H   UNL     1      44.872 -13.716   8.237  1.00  0.00     0.274 HD
HETATM    5  H   UNL     1      44.070 -13.036   6.964  1.00  0.00     0.274 HD
HETATM    6  H   UNL     1      43.229 -13.995   8.051  1.00  0.00     0.274 HD
ENDBRANCH   2   3
ENDBRANCH   1   2
BRANCH   1   7
HETATM    7  O   UNL     1      42.267 -15.748   7.017  1.00  0.00    -0.378 OA
HETATM    8  H   UNL     1      42.109 -14.860   7.394  1.00  0.00     0.211 HD
ENDBRANCH   1   7
BRANCH   1   9
HETATM    9  C   UNL     1      42.706 -14.697   4.881  1.00  0.00    -0.018 A 
HETATM   10  C   UNL     1      43.480 -14.222   3.808  1.00  0.00     0.012 A 
HETATM   11  C   UNL     1      42.927 -13.366   2.847  1.00  0.00     0.024 A 
HETATM   12  C   UNL     1      41.595 -12.973   2.942  1.00  0.00     0.034 A 
HETATM   13 CL   UNL     1      40.927 -11.920   1.761  1.00  0.00    -0.084 Cl
HETATM   14  C   UNL     1      40.806 -13.433   3.989  1.00  0.00     0.024 A 
HETATM   15  C   UNL     1      41.356 -14.287   4.949  1.00  0.00     0.012 A 
ENDBRANCH   1   9
BRANCH   1  16
HETATM   16  C   UNL     1      43.603 -17.020   5.427  1.00  0.00    -0.018 A 
HETATM   17  C   UNL     1      42.958 -17.558   4.302  1.00  0.00     0.011 A 
HETATM   18  C   UNL     1      43.251 -18.852   3.853  1.00  0.00     0.013 A 
HETATM   19  C   UNL     1      44.196 -19.644   4.514  1.00  0.00    -0.023 A 
HETATM   20  C   UNL     1      44.861 -19.105   5.621  1.00  0.00     0.013 A 
HETATM   21  C   UNL     1      44.573 -17.811   6.070  1.00  0.00     0.011 A 
BRANCH  19  22
HETATM   22  C   UNL     1      44.482 -20.986   4.040  1.00  0.00     0.010 A 
HETATM   23  C   UNL     1      44.441 -21.535   2.736  1.00  0.00     0.152 A 
HETATM   24  N   UNL     1      44.746 -22.834   2.712  1.00  0.00    -0.187 NA
HETATM   25  N   UNL     1      44.996 -23.125   3.997  1.00  0.00    -0.289 N 
HETATM   26  H   UNL     1      45.260 -24.077   4.231  1.00  0.00     0.188 HD
HETATM   27  C   UNL     1      44.844 -22.055   4.834  1.00  0.00     0.123 A 
ENDBRANCH  19  22
ENDBRANCH   1  16
TORSDOF 6
ENDMDL
MODEL 4
REMARK VINA RESULT:      -7.3      4.251      7.585
REMARK  6 active torsions:
REMARK  status: ('A' for Active; 'I' for Inactive)
REMARK    1  A    between atoms: N_1  and  C_5 
REMARK    2  A    between atoms: C_5  and  C_6 
REMARK    3  A    between atoms: C_6  and  O_7 
REMARK    4  A    between atoms: C_6  and  C_8 
REMARK    5  A    between atoms: C_6  and  C_15 
REMARK    6  A    between atoms: C_18  and  C_21 
ROOT
HETATM    1  C   UNL     1      42.198 -14.919   3.211  1.00  0.00     0.135 C 
ENDROOT
BRANCH   1   2
HETATM    2  C   UNL     1      43.436 -13.960   3.241  1.00  0.00     0.277 C 
BRANCH   2   3
HETATM    3  N   UNL     1      43.925 -13.825   4.657  1.00  0.00    -0.076 N 
HETATM    4  H   UNL     1      43.350 -14.460   5.238  1.00  0.00     0.274 HD
HETATM    5  H   UNL     1      44.897 -14.151   4.752  1.00  0.00     0.274 HD
HETATM    6  H   UNL     1      43.850 -12.872   5.028  1.00  0.00     0.274 HD
ENDBRANCH   2   3
ENDBRANCH   1   2
BRANCH   1   7
HETATM    7  O   UNL     1      41.605 -14.709   4.519  1.00  0.00    -0.378 OA
HETATM    8  H   UNL     1      42.174 -14.086   5.013  1.00  0.00     0.211 HD
ENDBRANCH   1   7
BRANCH   1   9
HETATM    9  C   UNL     1      41.146 -14.613   2.143  1.00  0.00    -0.018 A 
HETATM   10  C   UNL     1      41.453 -14.009   0.912  1.00  0.00     0.012 A 
HETATM   11  C   UNL     1      40.449 -13.739  -0.026  1.00  0.00     0.024 A 
HETATM   12  C   UNL     1      39.125 -14.068   0.250  1.00  0.00     0.034 A 
HETATM   13 CL   UNL     1      37.899 -13.730  -0.905  1.00  0.00    -0.084 Cl
HETATM   14  C   UNL     1      38.795 -14.672   1.457  1.00  0.00     0.024 A 
HETATM   15  C   UNL     1      39.795 -14.942   2.395  1.00  0.00     0.012 A 
ENDBRANCH   1   9
BRANCH   1  16
HETATM   16  C   UNL     1      42.723 -16.361   3.120  1.00  0.00    -0.018 A 
HETATM   17  C   UNL     1      43.534 -16.788   2.057  1.00  0.00     0.011 A 
HETATM   18  C   UNL     1      43.964 -18.117   1.966  1.00  0.00     0.013 A 
HETATM   19  C   UNL     1      43.598 -19.057   2.935  1.00  0.00    -0.023 A 
HETATM   20  C   UNL     1      42.811 -18.634   4.011  1.00  0.00     0.013 A 
HETATM   21  C   UNL     1      42.382 -17.305   4.107  1.00  0.00     0.011 A 
BRANCH  19  22
HETATM   22  C   UNL     1      44.045 -20.434   2.822  1.00  0.00     0.010 A 
HETATM   23  C   UNL     1      43.973 -21.343   1.740  1.00  0.00     0.152 A 
HETATM   24  N   UNL     1      44.473 -22.544   2.039  1.00  0.00    -0.187 NA
HETATM   25  N   UNL     1      44.881 -22.410   3.310  1.00  0.00    -0.289 N 
HETATM   26  H   UNL     1      45.310 -23.211   3.763  1.00  0.00     0.188 HD
HETATM   27  C   UNL     1      44.640 -21.168   3.828  1.00  0.00     0.123 A 
ENDBRANCH  19  22
ENDBRANCH   1  16
TORSDOF 6
ENDMDL
MODEL 5
REMARK VINA RESULT:      -7.1      4.557      7.711
REMARK  6 active torsions:
REMARK  status: ('A' for Active; 'I' for Inactive)
REMARK    1  A    between atoms: N_1  and  C_5 
REMARK    2  A    between atoms: C_5  and  C_6 
REMARK    3  A    between atoms: C_6  and  O_7 
REMARK    4  A    between atoms: C_6  and  C_8 
REMARK    5  A    between atoms: C_6  and  C_15 
REMARK    6  A    between atoms: C_18  and  C_21 
ROOT
HETATM    1  C   UNL     1      42.355 -14.915   2.604  1.00  0.00     0.135 C 
ENDROOT
BRANCH   1   2
HETATM    2  C   UNL     1      43.463 -13.988   3.210  1.00  0.00     0.277 C 
BRANCH   2   3
HETATM    3  N   UNL     1      42.966 -13.400   4.502  1.00  0.00    -0.076 N 
HETATM    4  H   UNL     1      41.933 -13.372   4.444  1.00  0.00     0.274 HD
HETATM    5  H   UNL     1      43.192 -14.006   5.303  1.00  0.00     0.274 HD
HETATM    6  H   UNL     1      43.316 -12.453   4.684  1.00  0.00     0.274 HD
ENDBRANCH   2   3
ENDBRANCH   1   2
BRANCH   1   7
HETATM    7  O   UNL     1      41.254 -14.736   3.531  1.00  0.00    -0.378 OA
HETATM    8  H   UNL     1      40.565 -14.205   3.085  1.00  0.00     0.211 HD
ENDBRANCH   1   7
BRANCH   1   9
HETATM    9  C   UNL     1      41.876 -14.545   1.199  1.00  0.00    -0.018 A 
HETATM   10  C   UNL     1      41.263 -15.463   0.328  1.00  0.00     0.012 A 
HETATM   11  C   UNL     1      40.854 -15.075  -0.954  1.00  0.00     0.024 A 
HETATM   12  C   UNL     1      41.050 -13.766  -1.385  1.00  0.00     0.034 A 
HETATM   13 CL   UNL     1      40.548 -13.300  -2.961  1.00  0.00    -0.084 Cl
HETATM   14  C   UNL     1      41.647 -12.837  -0.543  1.00  0.00     0.024 A 
HETATM   15  C   UNL     1      42.056 -13.222   0.737  1.00  0.00     0.012 A 
ENDBRANCH   1   9
BRANCH   1  16
HETATM   16  C   UNL     1      42.858 -16.365   2.689  1.00  0.00    -0.018 A 
HETATM   17  C   UNL     1      43.730 -16.904   1.731  1.00  0.00     0.011 A 
HETATM   18  C   UNL     1      44.139 -18.241   1.799  1.00  0.00     0.013 A 
HETATM   19  C   UNL     1      43.691 -19.077   2.827  1.00  0.00    -0.023 A 
HETATM   20  C   UNL     1      42.842 -18.540   3.800  1.00  0.00     0.013 A 
HETATM   21  C   UNL     1      42.434 -17.203   3.737  1.00  0.00     0.011 A 
BRANCH  19  22
HETATM   22  C   UNL     1      44.119 -20.463   2.879  1.00  0.00     0.010 A 
HETATM   23  C   UNL     1      44.119 -21.468   1.882  1.00  0.00     0.152 A 
HETATM   24  N   UNL     1      44.568 -22.642   2.332  1.00  0.00    -0.187 NA
HETATM   25  N   UNL     1      44.871 -22.396   3.614  1.00  0.00    -0.289 N 
HETATM   26  H   UNL     1      45.244 -23.156   4.174  1.00  0.00     0.188 HD
HETATM   27  C   UNL     1      44.612 -21.108   3.994  1.00  0.00     0.123 A 
ENDBRANCH  19  22
ENDBRANCH   1  16
TORSDOF 6
ENDMDL
MODEL 6
REMARK VINA RESULT:      -7.1      3.618      4.305
REMARK  6 active torsions:
REMARK  status: ('A' for Active; 'I' for Inactive)
REMARK    1  A    between atoms: N_1  and  C_5 
REMARK    2  A    between atoms: C_5  and  C_6 
REMARK    3  A    between atoms: C_6  and  O_7 
REMARK    4  A    between atoms: C_6  and  C_8 
REMARK    5  A    between atoms: C_6  and  C_15 
REMARK    6  A    between atoms: C_18  and  C_21 
ROOT
HETATM    1  C   UNL     1      42.809 -16.906   5.191  1.00  0.00     0.135 C 
ENDROOT
BRANCH   1   2
HETATM    2  C   UNL     1      41.653 -16.716   6.230  1.00  0.00     0.277 C 
BRANCH   2   3
HETATM    3  N   UNL     1      41.407 -15.246   6.435  1.00  0.00    -0.076 N 
HETATM    4  H   UNL     1      42.322 -14.771   6.344  1.00  0.00     0.274 HD
HETATM    5  H   UNL     1      40.807 -14.859   5.694  1.00  0.00     0.274 HD
HETATM    6  H   UNL     1      41.003 -15.022   7.351  1.00  0.00     0.274 HD
ENDBRANCH   2   3
ENDBRANCH   1   2
BRANCH   1   7
HETATM    7  O   UNL     1      43.798 -15.944   5.640  1.00  0.00    -0.378 OA
HETATM    8  H   UNL     1      43.576 -15.687   6.557  1.00  0.00     0.211 HD
ENDBRANCH   1   7
BRANCH   1   9
HETATM    9  C   UNL     1      43.456 -18.293   5.163  1.00  0.00    -0.018 A 
HETATM   10  C   UNL     1      44.118 -18.810   4.036  1.00  0.00     0.012 A 
HETATM   11  C   UNL     1      44.682 -20.092   4.060  1.00  0.00     0.024 A 
HETATM   12  C   UNL     1      44.593 -20.875   5.207  1.00  0.00     0.034 A 
HETATM   13 CL   UNL     1      45.285 -22.448   5.226  1.00  0.00    -0.084 Cl
HETATM   14  C   UNL     1      43.950 -20.386   6.337  1.00  0.00     0.024 A 
HETATM   15  C   UNL     1      43.387 -19.107   6.315  1.00  0.00     0.012 A 
ENDBRANCH   1   9
BRANCH   1  16
HETATM   16  C   UNL     1      42.278 -16.479   3.813  1.00  0.00    -0.018 A 
HETATM   17  C   UNL     1      42.910 -15.482   3.053  1.00  0.00     0.011 A 
HETATM   18  C   UNL     1      42.384 -15.072   1.822  1.00  0.00     0.013 A 
HETATM   19  C   UNL     1      41.215 -15.647   1.314  1.00  0.00    -0.023 A 
HETATM   20  C   UNL     1      40.594 -16.659   2.054  1.00  0.00     0.013 A 
HETATM   21  C   UNL     1      41.118 -17.074   3.283  1.00  0.00     0.011 A 
BRANCH  19  22
HETATM   22  C   UNL     1      40.679 -15.205   0.039  1.00  0.00     0.010 A 
HETATM   23  C   UNL     1      39.712 -14.218  -0.264  1.00  0.00     0.152 A 
HETATM   24  N   UNL     1      39.461 -14.125  -1.571  1.00  0.00    -0.187 NA
HETATM   25  N   UNL     1      40.272 -15.042  -2.117  1.00  0.00    -0.289 N 
HETATM   26  H   UNL     1      40.261 -15.154  -3.126  1.00  0.00     0.188 HD
HETATM   27  C   UNL     1      41.017 -15.723  -1.194  1.00  0.00     0.123 A 
ENDBRANCH  19  22
ENDBRANCH   1  16
TORSDOF 6
ENDMDL
MODEL 7
REMARK VINA RESULT:      -7.0      2.684      3.507
REMARK  6 active torsions:
REMARK  status: ('A' for Active; 'I' for Inactive)
REMARK    1  A    between atoms: N_1  and  C_5 
REMARK    2  A    between atoms: C_5  and  C_6 
REMARK    3  A    between atoms: C_6  and  O_7 
REMARK    4  A    between atoms: C_6  and  C_8 
REMARK    5  A    between atoms: C_6  and  C_15 
REMARK    6  A    between atoms: C_18  and  C_21 
ROOT
HETATM    1  C   UNL     1      42.773 -17.810   2.325  1.00  0.00     0.135 C 
ENDROOT
BRANCH   1   2
HETATM    2  C   UNL     1      43.594 -17.182   1.149  1.00  0.00     0.277 C 
BRANCH   2   3
HETATM    3  N   UNL     1      42.648 -16.550   0.165  1.00  0.00    -0.076 N 
HETATM    4  H   UNL     1      42.817 -15.529   0.195  1.00  0.00     0.274 HD
HETATM    5  H   UNL     1      42.855 -16.847  -0.799  1.00  0.00     0.274 HD
HETATM    6  H   UNL     1      41.661 -16.732   0.370  1.00  0.00     0.274 HD
ENDBRANCH   2   3
ENDBRANCH   1   2
BRANCH   1   7
HETATM    7  O   UNL     1      41.599 -18.329   1.648  1.00  0.00    -0.378 OA
HETATM    8  H   UNL     1      41.799 -19.237   1.347  1.00  0.00     0.211 HD
ENDBRANCH   1   7
BRANCH   1   9
HETATM    9  C   UNL     1      43.454 -18.959   3.071  1.00  0.00    -0.018 A 
HETATM   10  C   UNL     1      43.756 -18.914   4.444  1.00  0.00     0.012 A 
HETATM   11  C   UNL     1      44.393 -19.990   5.075  1.00  0.00     0.024 A 
HETATM   12  C   UNL     1      44.735 -21.126   4.348  1.00  0.00     0.034 A 
HETATM   13 CL   UNL     1      45.518 -22.440   5.131  1.00  0.00    -0.084 Cl
HETATM   14  C   UNL     1      44.441 -21.200   2.992  1.00  0.00     0.024 A 
HETATM   15  C   UNL     1      43.807 -20.127   2.360  1.00  0.00     0.012 A 
ENDBRANCH   1   9
BRANCH   1  16
HETATM   16  C   UNL     1      42.351 -16.669   3.265  1.00  0.00    -0.018 A 
HETATM   17  C   UNL     1      41.108 -16.670   3.919  1.00  0.00     0.011 A 
HETATM   18  C   UNL     1      40.721 -15.599   4.733  1.00  0.00     0.013 A 
HETATM   19  C   UNL     1      41.564 -14.499   4.921  1.00  0.00    -0.023 A 
HETATM   20  C   UNL     1      42.815 -14.503   4.293  1.00  0.00     0.013 A 
HETATM   21  C   UNL     1      43.206 -15.573   3.481  1.00  0.00     0.011 A 
BRANCH  19  22
HETATM   22  C   UNL     1      41.145 -13.394   5.763  1.00  0.00     0.010 A 
HETATM   23  C   UNL     1      39.858 -13.008   6.210  1.00  0.00     0.152 A 
HETATM   24  N   UNL     1      39.879 -11.901   6.954  1.00  0.00    -0.187 NA
HETATM   25  N   UNL     1      41.179 -11.575   7.001  1.00  0.00    -0.289 N 
HETATM   26  H   UNL     1      41.449 -10.749   7.527  1.00  0.00     0.188 HD
HETATM   27  C   UNL     1      41.978 -12.432   6.296  1.00  0.00     0.123 A 
ENDBRANCH  19  22
ENDBRANCH   1  16
TORSDOF 6
ENDMDL
MODEL 8
REMARK VINA RESULT:      -6.8      3.781      7.319
REMARK  6 active torsions:
REMARK  status: ('A' for Active; 'I' for Inactive)
REMARK    1  A    between atoms: N_1  and  C_5 
REMARK    2  A    between atoms: C_5  and  C_6 
REMARK    3  A    between atoms: C_6  and  O_7 
REMARK    4  A    between atoms: C_6  and  C_8 
REMARK    5  A    between atoms: C_6  and  C_15 
REMARK    6  A    between atoms: C_18  and  C_21 
ROOT
HETATM    1  C   UNL     1      40.469 -14.492   4.676  1.00  0.00     0.135 C 
ENDROOT
BRANCH   1   2
HETATM    2  C   UNL     1      41.334 -13.434   5.441  1.00  0.00     0.277 C 
BRANCH   2   3
HETATM    3  N   UNL     1      40.552 -12.907   6.613  1.00  0.00    -0.076 N 
HETATM    4  H   UNL     1      41.093 -12.118   7.008  1.00  0.00     0.274 HD
HETATM    5  H   UNL     1      39.648 -12.514   6.315  1.00  0.00     0.274 HD
HETATM    6  H   UNL     1      40.393 -13.604   7.347  1.00  0.00     0.274 HD
ENDBRANCH   2   3
ENDBRANCH   1   2
BRANCH   1   7
HETATM    7  O   UNL     1      39.423 -14.796   5.634  1.00  0.00    -0.378 OA
HETATM    8  H   UNL     1      38.740 -14.099   5.570  1.00  0.00     0.211 HD
ENDBRANCH   1   7
BRANCH   1   9
HETATM    9  C   UNL     1      39.817 -14.005   3.380  1.00  0.00    -0.018 A 
HETATM   10  C   UNL     1      39.700 -12.646   3.041  1.00  0.00     0.012 A 
HETATM   11  C   UNL     1      39.082 -12.254   1.847  1.00  0.00     0.024 A 
HETATM   12  C   UNL     1      38.573 -13.212   0.974  1.00  0.00     0.034 A 
HETATM   13 CL   UNL     1      37.814 -12.721  -0.487  1.00  0.00    -0.084 Cl
HETATM   14  C   UNL     1      38.681 -14.562   1.281  1.00  0.00     0.024 A 
HETATM   15  C   UNL     1      39.297 -14.955   2.473  1.00  0.00     0.012 A 
ENDBRANCH   1   9
BRANCH   1  16
HETATM   16  C   UNL     1      41.337 -15.743   4.462  1.00  0.00    -0.018 A 
HETATM   17  C   UNL     1      41.027 -16.971   5.067  1.00  0.00     0.011 A 
HETATM   18  C   UNL     1      41.856 -18.087   4.899  1.00  0.00     0.013 A 
HETATM   19  C   UNL     1      43.016 -18.008   4.120  1.00  0.00    -0.023 A 
HETATM   20  C   UNL     1      43.318 -16.794   3.494  1.00  0.00     0.013 A 
HETATM   21  C   UNL     1      42.489 -15.678   3.657  1.00  0.00     0.011 A 
BRANCH  19  22
HETATM   22  C   UNL     1      43.868 -19.173   3.963  1.00  0.00     0.010 A 
HETATM   23  C   UNL     1      44.601 -19.918   4.917  1.00  0.00     0.152 A 
HETATM   24  N   UNL     1      45.299 -20.915   4.370  1.00  0.00    -0.187 NA
HETATM   25  N   UNL     1      45.010 -20.825   3.064  1.00  0.00    -0.289 N 
HETATM   26  H   UNL     1      45.431 -21.498   2.431  1.00  0.00     0.188 HD
HETATM   27  C   UNL     1      44.164 -19.793   2.766  1.00  0.00     0.123 A 
ENDBRANCH  19  22
ENDBRANCH   1  16
TORSDOF 6
ENDMDL
MODEL 9
REMARK VINA RESULT:      -6.7      1.594      2.164
REMARK  6 active torsions:
REMARK  status: ('A' for Active; 'I' for Inactive)
REMARK    1  A    between atoms: N_1  and  C_5 
REMARK    2  A    between atoms: C_5  and  C_6 
REMARK    3  A    between atoms: C_6  and  O_7 
REMARK    4  A    between atoms: C_6  and  C_8 
REMARK    5  A    between atoms: C_6  and  C_15 
REMARK    6  A    between atoms: C_18  and  C_21 
ROOT
HETATM    1  C   UNL     1      43.668 -17.436   5.906  1.00  0.00     0.135 C 
ENDROOT
BRANCH   1   2
HETATM    2  C   UNL     1      42.770 -17.843   7.124  1.00  0.00     0.277 C 
BRANCH   2   3
HETATM    3  N   UNL     1      43.649 -18.287   8.261  1.00  0.00    -0.076 N 
HETATM    4  H   UNL     1      44.540 -17.768   8.176  1.00  0.00     0.274 HD
HETATM    5  H   UNL     1      43.248 -18.022   9.172  1.00  0.00     0.274 HD
HETATM    6  H   UNL     1      43.847 -19.293   8.258  1.00  0.00     0.274 HD
ENDBRANCH   2   3
ENDBRANCH   1   2
BRANCH   1   7
HETATM    7  O   UNL     1      44.952 -17.183   6.532  1.00  0.00    -0.378 OA
HETATM    8  H   UNL     1      44.852 -17.319   7.495  1.00  0.00     0.211 HD
ENDBRANCH   1   7
BRANCH   1   9
HETATM    9  C   UNL     1      43.852 -18.508   4.830  1.00  0.00    -0.018 A 
HETATM   10  C   UNL     1      43.072 -18.568   3.661  1.00  0.00     0.012 A 
HETATM   11  C   UNL     1      43.275 -19.578   2.713  1.00  0.00     0.024 A 
HETATM   12  C   UNL     1      44.258 -20.543   2.916  1.00  0.00     0.034 A 
HETATM   13 CL   UNL     1      44.496 -21.781   1.749  1.00  0.00    -0.084 Cl
HETATM   14  C   UNL     1      45.047 -20.503   4.059  1.00  0.00     0.024 A 
HETATM   15  C   UNL     1      44.847 -19.496   5.006  1.00  0.00     0.012 A 
ENDBRANCH   1   9
BRANCH   1  16
HETATM   16  C   UNL     1      43.115 -16.120   5.334  1.00  0.00    -0.018 A 
HETATM   17  C   UNL     1      43.760 -15.439   4.290  1.00  0.00     0.011 A 
HETATM   18  C   UNL     1      43.269 -14.217   3.815  1.00  0.00     0.013 A 
HETATM   19  C   UNL     1      42.119 -13.643   4.367  1.00  0.00    -0.023 A 
HETATM   20  C   UNL     1      41.457 -14.328   5.391  1.00  0.00     0.013 A 
HETATM   21  C   UNL     1      41.943 -15.551   5.866  1.00  0.00     0.011 A 
BRANCH  19  22
HETATM   22  C   UNL     1      41.627 -12.371   3.868  1.00  0.00     0.010 A 
HETATM   23  C   UNL     1      41.215 -11.984   2.570  1.00  0.00     0.152 A 
HETATM   24  N   UNL     1      40.853 -10.702   2.504  1.00  0.00    -0.187 NA
HETATM   25  N   UNL     1      41.018 -10.260   3.759  1.00  0.00    -0.289 N 
HETATM   26  H   UNL     1      40.796  -9.289   3.960  1.00  0.00     0.188 HD
HETATM   27  C   UNL     1      41.488 -11.218   4.613  1.00  0.00     0.123 A 
ENDBRANCH  19  22
ENDBRANCH   1  16
TORSDOF 6
ENDMDL
MODEL 10
REMARK VINA RESULT:      -6.7      3.493      4.359
REMARK  6 active torsions:
REMARK  status: ('A' for Active; 'I' for Inactive)
REMARK    1  A    between atoms: N_1  and  C_5 
REMARK    2  A    between atoms: C_5  and  C_6 
REMARK    3  A    between atoms: C_6  and  O_7 
REMARK    4  A    between atoms: C_6  and  C_8 
REMARK    5  A    between atoms: C_6  and  C_15 
REMARK    6  A    between atoms: C_18  and  C_21 
ROOT
HETATM    1  C   UNL     1      42.442 -16.662   4.134  1.00  0.00     0.135 C 
ENDROOT
BRANCH   1   2
HETATM    2  C   UNL     1      41.530 -16.741   5.405  1.00  0.00     0.277 C 
BRANCH   2   3
HETATM    3  N   UNL     1      42.031 -15.770   6.438  1.00  0.00    -0.076 N 
HETATM    4  H   UNL     1      42.525 -15.015   5.930  1.00  0.00     0.274 HD
HETATM    5  H   UNL     1      41.253 -15.317   6.938  1.00  0.00     0.274 HD
HETATM    6  H   UNL     1      42.673 -16.189   7.119  1.00  0.00     0.274 HD
ENDBRANCH   2   3
ENDBRANCH   1   2
BRANCH   1   7
HETATM    7  O   UNL     1      43.524 -15.802   4.577  1.00  0.00    -0.378 OA
HETATM    8  H   UNL     1      43.457 -15.705   5.548  1.00  0.00     0.211 HD
ENDBRANCH   1   7
BRANCH   1   9
HETATM    9  C   UNL     1      43.037 -17.989   3.660  1.00  0.00    -0.018 A 
HETATM   10  C   UNL     1      43.981 -18.719   4.403  1.00  0.00     0.012 A 
HETATM   11  C   UNL     1      44.503 -19.924   3.916  1.00  0.00     0.024 A 
HETATM   12  C   UNL     1      44.090 -20.418   2.682  1.00  0.00     0.034 A 
HETATM   13 CL   UNL     1      44.738 -21.895   2.091  1.00  0.00    -0.084 Cl
HETATM   14  C   UNL     1      43.153 -19.721   1.930  1.00  0.00     0.024 A 
HETATM   15  C   UNL     1      42.631 -18.518   2.414  1.00  0.00     0.012 A 
ENDBRANCH   1   9
BRANCH   1  16
HETATM   16  C   UNL     1      41.648 -15.946   3.030  1.00  0.00    -0.018 A 
HETATM   17  C   UNL     1      40.259 -16.100   2.899  1.00  0.00     0.011 A 
HETATM   18  C   UNL     1      39.560 -15.478   1.857  1.00  0.00     0.013 A 
HETATM   19  C   UNL     1      40.227 -14.684   0.919  1.00  0.00    -0.023 A 
HETATM   20  C   UNL     1      41.608 -14.506   1.057  1.00  0.00     0.013 A 
HETATM   21  C   UNL     1      42.309 -15.123   2.099  1.00  0.00     0.011 A 
BRANCH  19  22
HETATM   22  C   UNL     1      39.488 -14.053  -0.159  1.00  0.00     0.010 A 
HETATM   23  C   UNL     1      39.856 -13.786  -1.500  1.00  0.00     0.152 A 
HETATM   24  N   UNL     1      38.899 -13.154  -2.182  1.00  0.00    -0.187 NA
HETATM   25  N   UNL     1      37.907 -13.022  -1.290  1.00  0.00    -0.289 N 
HETATM   26  H   UNL     1      37.051 -12.564  -1.588  1.00  0.00     0.188 HD
HETATM   27  C   UNL     1      38.212 -13.536  -0.061  1.00  0.00     0.123 A 
ENDBRANCH  19  22
ENDBRANCH   1  16
TORSDOF 6
ENDMDL
