MODEL 1
REMARK VINA RESULT:      -8.7      0.000      0.000
REMARK  5 active torsions:
REMARK  status: ('A' for Active; 'I' for Inactive)
REMARK    1  A    between atoms: C_3  and  N_4 
REMARK       I    between atoms: N_4  and  C_5 
REMARK    2  A    between atoms: C_5  and  C_6 
REMARK    3  A    between atoms: C_14  and  C_15 
REMARK    4  A    between atoms: C_21  and  O_22 
REMARK    5  A    between atoms: C_24  and  O_25 
ROOT
HETATM    1  N   UNL     1      42.703 -16.344   1.609  1.00  0.00    -0.322 N 
HETATM    2  C   UNL     1      42.105 -17.230   2.491  1.00  0.00     0.257 C 
HETATM    3  O   UNL     1      40.912 -17.342   2.741  1.00  0.00    -0.267 OA
HETATM    4  H   UNL     1      43.712 -16.277   1.670  1.00  0.00     0.169 HD
ENDROOT
BRANCH   2   5
HETATM    5  C   UNL     1      43.051 -18.114   3.217  1.00  0.00     0.046 A 
HETATM    6  C   UNL     1      43.605 -17.777   4.477  1.00  0.00     0.008 A 
HETATM    7  C   UNL     1      44.550 -18.683   4.993  1.00  0.00     0.068 A 
HETATM    8  C   UNL     1      43.262 -16.637   5.253  1.00  0.00     0.015 A 
HETATM    9  C   UNL     1      45.169 -18.392   6.200  1.00  0.00     0.032 A 
HETATM   10  N   UNL     1      44.875 -19.832   4.377  1.00  0.00    -0.252 NA
HETATM   11  C   UNL     1      44.862 -17.244   6.934  1.00  0.00     0.002 A 
HETATM   12  C   UNL     1      43.893 -16.371   6.466  1.00  0.00     0.001 A 
HETATM   13  C   UNL     1      44.266 -20.166   3.214  1.00  0.00     0.039 A 
HETATM   14  C   UNL     1      43.359 -19.324   2.596  1.00  0.00     0.045 A 
BRANCH  13  15
HETATM   15  C   UNL     1      44.584 -21.525   2.623  1.00  0.00     0.029 C 
HETATM   16  C   UNL     1      44.606 -22.606   3.705  1.00  0.00     0.016 C 
HETATM   17  C   UNL     1      43.577 -21.876   1.526  1.00  0.00     0.016 C 
ENDBRANCH  13  15
ENDBRANCH   2   5
BRANCH   1  18
HETATM   18  C   UNL     1      42.055 -15.253   0.985  1.00  0.00     0.043 A 
HETATM   19  C   UNL     1      42.073 -13.930   1.447  1.00  0.00    -0.032 A 
HETATM   20  C   UNL     1      42.657 -13.503   2.765  1.00  0.00     0.050 C 
HETATM   21  C   UNL     1      41.458 -12.929   0.664  1.00  0.00     0.048 A 
HETATM   22  C   UNL     1      40.799 -13.234  -0.532  1.00  0.00     0.102 A 
HETATM   23  C   UNL     1      40.736 -14.569  -0.954  1.00  0.00     0.103 A 
HETATM   24  C   UNL     1      41.334 -15.568  -0.179  1.00  0.00     0.069 A 
BRANCH  22  25
HETATM   25  O   UNL     1      40.190 -12.312  -1.344  1.00  0.00    -0.353 OA
HETATM   26  C   UNL     1      41.021 -11.392  -2.038  1.00  0.00     0.210 C 
ENDBRANCH  22  25
BRANCH  23  27
HETATM   27  O   UNL     1      40.060 -14.811  -2.127  1.00  0.00    -0.353 OA
HETATM   28  C   UNL     1      40.744 -15.558  -3.123  1.00  0.00     0.210 C 
ENDBRANCH  23  27
ENDBRANCH   1  18
TORSDOF 5
ENDMDL
MODEL 2
REMARK VINA RESULT:      -8.7      0.615      3.288
REMARK  5 active torsions:
REMARK  status: ('A' for Active; 'I' for Inactive)
REMARK    1  A    between atoms: C_3  and  N_4 
REMARK       I    between atoms: N_4  and  C_5 
REMARK    2  A    between atoms: C_5  and  C_6 
REMARK    3  A    between atoms: C_14  and  C_15 
REMARK    4  A    between atoms: C_21  and  O_22 
REMARK    5  A    between atoms: C_24  and  O_25 
ROOT
HETATM    1  N   UNL     1      42.743 -16.332   1.844  1.00  0.00    -0.322 N 
HETATM    2  C   UNL     1      42.114 -17.200   2.722  1.00  0.00     0.257 C 
HETATM    3  O   UNL     1      40.911 -17.342   2.897  1.00  0.00    -0.267 OA
HETATM    4  H   UNL     1      43.743 -16.229   1.968  1.00  0.00     0.169 HD
ENDROOT
BRANCH   2   5
HETATM    5  C   UNL     1      43.036 -18.023   3.545  1.00  0.00     0.046 A 
HETATM    6  C   UNL     1      43.486 -19.305   3.146  1.00  0.00     0.008 A 
HETATM    7  C   UNL     1      44.288 -19.991   4.077  1.00  0.00     0.068 A 
HETATM    8  C   UNL     1      43.219 -19.923   1.893  1.00  0.00     0.015 A 
HETATM    9  C   UNL     1      44.724 -21.273   3.772  1.00  0.00     0.032 A 
HETATM   10  N   UNL     1      44.668 -19.456   5.248  1.00  0.00    -0.252 NA
HETATM   11  C   UNL     1      44.417 -21.892   2.558  1.00  0.00     0.002 A 
HETATM   12  C   UNL     1      43.674 -21.208   1.609  1.00  0.00     0.001 A 
HETATM   13  C   UNL     1      44.291 -18.194   5.565  1.00  0.00     0.039 A 
HETATM   14  C   UNL     1      43.462 -17.453   4.745  1.00  0.00     0.045 A 
BRANCH  13  15
HETATM   15  C   UNL     1      44.844 -17.599   6.845  1.00  0.00     0.029 C 
HETATM   16  C   UNL     1      44.470 -16.122   6.974  1.00  0.00     0.016 C 
HETATM   17  C   UNL     1      44.349 -18.393   8.056  1.00  0.00     0.016 C 
ENDBRANCH  13  15
ENDBRANCH   2   5
BRANCH   1  18
HETATM   18  C   UNL     1      42.106 -15.289   1.133  1.00  0.00     0.043 A 
HETATM   19  C   UNL     1      42.096 -13.940   1.512  1.00  0.00    -0.032 A 
HETATM   20  C   UNL     1      42.633 -13.426   2.820  1.00  0.00     0.050 C 
HETATM   21  C   UNL     1      41.498 -12.996   0.649  1.00  0.00     0.048 A 
HETATM   22  C   UNL     1      40.882 -13.381  -0.546  1.00  0.00     0.102 A 
HETATM   23  C   UNL     1      40.845 -14.741  -0.887  1.00  0.00     0.103 A 
HETATM   24  C   UNL     1      41.426 -15.683  -0.032  1.00  0.00     0.069 A 
BRANCH  22  25
HETATM   25  O   UNL     1      40.291 -12.518  -1.433  1.00  0.00    -0.353 OA
HETATM   26  C   UNL     1      41.141 -11.716  -2.239  1.00  0.00     0.210 C 
ENDBRANCH  22  25
BRANCH  23  27
HETATM   27  O   UNL     1      40.210 -15.062  -2.063  1.00  0.00    -0.353 OA
HETATM   28  C   UNL     1      41.019 -15.572  -3.114  1.00  0.00     0.210 C 
ENDBRANCH  23  27
ENDBRANCH   1  18
TORSDOF 5
ENDMDL
MODEL 3
REMARK VINA RESULT:      -8.1      2.139      2.997
REMARK  5 active torsions:
REMARK  status: ('A' for Active; 'I' for Inactive)
REMARK    1  A    between atoms: C_3  and  N_4 
REMARK       I    between atoms: N_4  and  C_5 
REMARK    2  A    between atoms: C_5  and  C_6 
REMARK    3  A    between atoms: C_14  and  C_15 
REMARK    4  A    between atoms: C_21  and  O_22 
REMARK    5  A    between atoms: C_24  and  O_25 
ROOT
HETATM    1  N   UNL     1      41.574 -16.415   3.369  1.00  0.00    -0.322 N 
HETATM    2  C   UNL     1      42.948 -16.590   3.341  1.00  0.00     0.257 C 
HETATM    3  O   UNL     1      43.782 -15.859   2.823  1.00  0.00    -0.267 OA
HETATM    4  H   UNL     1      41.036 -17.213   3.686  1.00  0.00     0.169 HD
ENDROOT
BRANCH   2   5
HETATM    5  C   UNL     1      43.429 -17.828   4.006  1.00  0.00     0.046 A 
HETATM    6  C   UNL     1      43.506 -17.963   5.413  1.00  0.00     0.008 A 
HETATM    7  C   UNL     1      44.062 -19.167   5.884  1.00  0.00     0.068 A 
HETATM    8  C   UNL     1      43.048 -17.010   6.363  1.00  0.00     0.015 A 
HETATM    9  C   UNL     1      44.214 -19.348   7.251  1.00  0.00     0.032 A 
HETATM   10  N   UNL     1      44.442 -20.165   5.069  1.00  0.00    -0.252 NA
HETATM   11  C   UNL     1      43.805 -18.385   8.177  1.00  0.00     0.002 A 
HETATM   12  C   UNL     1      43.206 -17.217   7.731  1.00  0.00     0.001 A 
HETATM   13  C   UNL     1      44.277 -20.039   3.730  1.00  0.00     0.039 A 
HETATM   14  C   UNL     1      43.788 -18.878   3.161  1.00  0.00     0.045 A 
BRANCH  13  15
HETATM   15  C   UNL     1      44.614 -21.239   2.868  1.00  0.00     0.029 C 
HETATM   16  C   UNL     1      44.626 -22.526   3.693  1.00  0.00     0.016 C 
HETATM   17  C   UNL     1      43.628 -21.349   1.703  1.00  0.00     0.016 C 
ENDBRANCH  13  15
ENDBRANCH   2   5
BRANCH   1  18
HETATM   18  C   UNL     1      40.858 -15.458   2.613  1.00  0.00     0.043 A 
HETATM   19  C   UNL     1      40.634 -15.522   1.232  1.00  0.00    -0.032 A 
HETATM   20  C   UNL     1      41.258 -16.544   0.321  1.00  0.00     0.050 C 
HETATM   21  C   UNL     1      39.818 -14.540   0.630  1.00  0.00     0.048 A 
HETATM   22  C   UNL     1      39.269 -13.488   1.370  1.00  0.00     0.102 A 
HETATM   23  C   UNL     1      39.548 -13.400   2.741  1.00  0.00     0.103 A 
HETATM   24  C   UNL     1      40.364 -14.364   3.343  1.00  0.00     0.069 A 
BRANCH  22  25
HETATM   25  O   UNL     1      38.462 -12.507   0.852  1.00  0.00    -0.353 OA
HETATM   26  C   UNL     1      37.131 -12.861   0.507  1.00  0.00     0.210 C 
ENDBRANCH  22  25
BRANCH  23  27
HETATM   27  O   UNL     1      38.997 -12.335   3.413  1.00  0.00    -0.353 OA
HETATM   28  C   UNL     1      39.844 -11.629   4.308  1.00  0.00     0.210 C 
ENDBRANCH  23  27
ENDBRANCH   1  18
TORSDOF 5
ENDMDL
MODEL 4
REMARK VINA RESULT:      -7.9      2.225      7.645
REMARK  5 active torsions:
REMARK  status: ('A' for Active; 'I' for Inactive)
REMARK    1  A    between atoms: C_3  and  N_4 
REMARK       I    between atoms: N_4  and  C_5 
REMARK    2  A    between atoms: C_5  and  C_6 
REMARK    3  A    between atoms: C_14  and  C_15 
REMARK    4  A    between atoms: C_21  and  O_22 
REMARK    5  A    between atoms: C_24  and  O_25 
ROOT
HETATM    1  N   UNL     1      42.640 -16.592   2.278  1.00  0.00    -0.322 N 
HETATM    2  C   UNL     1      41.300 -16.645   1.926  1.00  0.00     0.257 C 
HETATM    3  O   UNL     1      40.458 -17.443   2.314  1.00  0.00    -0.267 OA
HETATM    4  H   UNL     1      43.217 -15.976   1.719  1.00  0.00     0.169 HD
ENDROOT
BRANCH   2   5
HETATM    5  C   UNL     1      40.877 -15.613   0.946  1.00  0.00     0.046 A 
HETATM    6  C   UNL     1      40.243 -14.405   1.327  1.00  0.00     0.008 A 
HETATM    7  C   UNL     1      39.829 -13.571   0.272  1.00  0.00     0.068 A 
HETATM    8  C   UNL     1      40.028 -13.970   2.663  1.00  0.00     0.015 A 
HETATM    9  C   UNL     1      39.157 -12.394   0.572  1.00  0.00     0.032 A 
HETATM   10  N   UNL     1      40.066 -13.852  -1.019  1.00  0.00    -0.252 NA
HETATM   11  C   UNL     1      38.906 -11.997   1.887  1.00  0.00     0.002 A 
HETATM   12  C   UNL     1      39.356 -12.781   2.937  1.00  0.00     0.001 A 
HETATM   13  C   UNL     1      40.749 -14.975  -1.348  1.00  0.00     0.039 A 
HETATM   14  C   UNL     1      41.158 -15.887  -0.393  1.00  0.00     0.045 A 
BRANCH  13  15
HETATM   15  C   UNL     1      41.090 -15.183  -2.810  1.00  0.00     0.029 C 
HETATM   16  C   UNL     1      40.041 -16.053  -3.504  1.00  0.00     0.016 C 
HETATM   17  C   UNL     1      41.233 -13.835  -3.519  1.00  0.00     0.016 C 
ENDBRANCH  13  15
ENDBRANCH   2   5
BRANCH   1  18
HETATM   18  C   UNL     1      43.333 -17.593   2.997  1.00  0.00     0.043 A 
HETATM   19  C   UNL     1      43.604 -17.559   4.372  1.00  0.00    -0.032 A 
HETATM   20  C   UNL     1      43.334 -16.374   5.258  1.00  0.00     0.050 C 
HETATM   21  C   UNL     1      44.223 -18.678   4.969  1.00  0.00     0.048 A 
HETATM   22  C   UNL     1      44.607 -19.793   4.218  1.00  0.00     0.102 A 
HETATM   23  C   UNL     1      44.385 -19.792   2.833  1.00  0.00     0.103 A 
HETATM   24  C   UNL     1      43.781 -18.682   2.232  1.00  0.00     0.069 A 
BRANCH  22  25
HETATM   25  O   UNL     1      45.203 -20.915   4.734  1.00  0.00    -0.353 OA
HETATM   26  C   UNL     1      44.439 -21.721   5.618  1.00  0.00     0.210 C 
ENDBRANCH  22  25
BRANCH  23  27
HETATM   27  O   UNL     1      44.799 -20.906   2.143  1.00  0.00    -0.353 OA
HETATM   28  C   UNL     1      43.787 -21.755   1.621  1.00  0.00     0.210 C 
ENDBRANCH  23  27
ENDBRANCH   1  18
TORSDOF 5
ENDMDL
MODEL 5
REMARK VINA RESULT:      -7.8      2.016      2.164
REMARK  5 active torsions:
REMARK  status: ('A' for Active; 'I' for Inactive)
REMARK    1  A    between atoms: C_3  and  N_4 
REMARK       I    between atoms: N_4  and  C_5 
REMARK    2  A    between atoms: C_5  and  C_6 
REMARK    3  A    between atoms: C_14  and  C_15 
REMARK    4  A    between atoms: C_21  and  O_22 
REMARK    5  A    between atoms: C_24  and  O_25 
ROOT
HETATM    1  N   UNL     1      41.344 -16.062   3.723  1.00  0.00    -0.322 N 
HETATM    2  C   UNL     1      42.727 -16.082   3.809  1.00  0.00     0.257 C 
HETATM    3  O   UNL     1      43.508 -15.200   3.476  1.00  0.00    -0.267 OA
HETATM    4  H   UNL     1      40.881 -16.950   3.879  1.00  0.00     0.169 HD
ENDROOT
BRANCH   2   5
HETATM    5  C   UNL     1      43.296 -17.342   4.351  1.00  0.00     0.046 A 
HETATM    6  C   UNL     1      43.471 -17.572   5.738  1.00  0.00     0.008 A 
HETATM    7  C   UNL     1      44.101 -18.782   6.084  1.00  0.00     0.068 A 
HETATM    8  C   UNL     1      43.042 -16.706   6.781  1.00  0.00     0.015 A 
HETATM    9  C   UNL     1      44.349 -19.051   7.423  1.00  0.00     0.032 A 
HETATM   10  N   UNL     1      44.462 -19.704   5.177  1.00  0.00    -0.252 NA
HETATM   11  C   UNL     1      43.967 -18.172   8.439  1.00  0.00     0.002 A 
HETATM   12  C   UNL     1      43.298 -17.002   8.118  1.00  0.00     0.001 A 
HETATM   13  C   UNL     1      44.205 -19.492   3.864  1.00  0.00     0.039 A 
HETATM   14  C   UNL     1      43.636 -18.315   3.412  1.00  0.00     0.045 A 
BRANCH  13  15
HETATM   15  C   UNL     1      44.528 -20.614   2.897  1.00  0.00     0.029 C 
HETATM   16  C   UNL     1      44.562 -21.966   3.612  1.00  0.00     0.016 C 
HETATM   17  C   UNL     1      43.518 -20.632   1.748  1.00  0.00     0.016 C 
ENDBRANCH  13  15
ENDBRANCH   2   5
BRANCH   1  18
HETATM   18  C   UNL     1      40.585 -15.090   3.032  1.00  0.00     0.043 A 
HETATM   19  C   UNL     1      39.945 -13.993   3.623  1.00  0.00    -0.032 A 
HETATM   20  C   UNL     1      39.842 -13.775   5.108  1.00  0.00     0.050 C 
HETATM   21  C   UNL     1      39.302 -13.052   2.791  1.00  0.00     0.048 A 
HETATM   22  C   UNL     1      39.253 -13.212   1.402  1.00  0.00     0.102 A 
HETATM   23  C   UNL     1      39.845 -14.345   0.825  1.00  0.00     0.103 A 
HETATM   24  C   UNL     1      40.476 -15.287   1.645  1.00  0.00     0.069 A 
BRANCH  22  25
HETATM   25  O   UNL     1      38.655 -12.334   0.535  1.00  0.00    -0.353 OA
HETATM   26  C   UNL     1      38.552 -10.976   0.938  1.00  0.00     0.210 C 
ENDBRANCH  22  25
BRANCH  23  27
HETATM   27  O   UNL     1      39.750 -14.460  -0.541  1.00  0.00    -0.353 OA
HETATM   28  C   UNL     1      40.967 -14.471  -1.273  1.00  0.00     0.210 C 
ENDBRANCH  23  27
ENDBRANCH   1  18
TORSDOF 5
ENDMDL
MODEL 6
REMARK VINA RESULT:      -7.6      2.068      4.178
REMARK  5 active torsions:
REMARK  status: ('A' for Active; 'I' for Inactive)
REMARK    1  A    between atoms: C_3  and  N_4 
REMARK       I    between atoms: N_4  and  C_5 
REMARK    2  A    between atoms: C_5  and  C_6 
REMARK    3  A    between atoms: C_14  and  C_15 
REMARK    4  A    between atoms: C_21  and  O_22 
REMARK    5  A    between atoms: C_24  and  O_25 
ROOT
HETATM    1  N   UNL     1      41.564 -16.335   3.201  1.00  0.00    -0.322 N 
HETATM    2  C   UNL     1      42.941 -16.378   3.351  1.00  0.00     0.257 C 
HETATM    3  O   UNL     1      43.763 -15.582   2.917  1.00  0.00    -0.267 OA
HETATM    4  H   UNL     1      41.066 -17.173   3.475  1.00  0.00     0.169 HD
ENDROOT
BRANCH   2   5
HETATM    5  C   UNL     1      43.445 -17.550   4.110  1.00  0.00     0.046 A 
HETATM    6  C   UNL     1      43.773 -18.782   3.492  1.00  0.00     0.008 A 
HETATM    7  C   UNL     1      44.156 -19.820   4.361  1.00  0.00     0.068 A 
HETATM    8  C   UNL     1      43.775 -19.031   2.093  1.00  0.00     0.015 A 
HETATM    9  C   UNL     1      44.445 -21.069   3.829  1.00  0.00     0.032 A 
HETATM   10  N   UNL     1      44.271 -19.657   5.690  1.00  0.00    -0.252 NA
HETATM   11  C   UNL     1      44.397 -21.319   2.456  1.00  0.00     0.002 A 
HETATM   12  C   UNL     1      44.075 -20.292   1.583  1.00  0.00     0.001 A 
HETATM   13  C   UNL     1      44.031 -18.444   6.241  1.00  0.00     0.039 A 
HETATM   14  C   UNL     1      43.601 -17.370   5.484  1.00  0.00     0.045 A 
BRANCH  13  15
HETATM   15  C   UNL     1      44.289 -18.287   7.727  1.00  0.00     0.029 C 
HETATM   16  C   UNL     1      43.406 -17.192   8.328  1.00  0.00     0.016 C 
HETATM   17  C   UNL     1      44.069 -19.619   8.447  1.00  0.00     0.016 C 
ENDBRANCH  13  15
ENDBRANCH   2   5
BRANCH   1  18
HETATM   18  C   UNL     1      40.865 -15.465   2.332  1.00  0.00     0.043 A 
HETATM   19  C   UNL     1      40.786 -15.607   0.940  1.00  0.00    -0.032 A 
HETATM   20  C   UNL     1      41.566 -16.620   0.148  1.00  0.00     0.050 C 
HETATM   21  C   UNL     1      39.970 -14.713   0.212  1.00  0.00     0.048 A 
HETATM   22  C   UNL     1      39.280 -13.672   0.840  1.00  0.00     0.102 A 
HETATM   23  C   UNL     1      39.414 -13.503   2.226  1.00  0.00     0.103 A 
HETATM   24  C   UNL     1      40.228 -14.378   2.953  1.00  0.00     0.069 A 
BRANCH  22  25
HETATM   25  O   UNL     1      38.465 -12.776   0.197  1.00  0.00    -0.353 OA
HETATM   26  C   UNL     1      37.883 -13.179  -1.034  1.00  0.00     0.210 C 
ENDBRANCH  22  25
BRANCH  23  27
HETATM   27  O   UNL     1      38.727 -12.453   2.786  1.00  0.00    -0.353 OA
HETATM   28  C   UNL     1      39.474 -11.547   3.586  1.00  0.00     0.210 C 
ENDBRANCH  23  27
ENDBRANCH   1  18
TORSDOF 5
ENDMDL
MODEL 7
REMARK VINA RESULT:      -7.6      2.781      7.509
REMARK  5 active torsions:
REMARK  status: ('A' for Active; 'I' for Inactive)
REMARK    1  A    between atoms: C_3  and  N_4 
REMARK       I    between atoms: N_4  and  C_5 
REMARK    2  A    between atoms: C_5  and  C_6 
REMARK    3  A    between atoms: C_14  and  C_15 
REMARK    4  A    between atoms: C_21  and  O_22 
REMARK    5  A    between atoms: C_24  and  O_25 
ROOT
HETATM    1  N   UNL     1      42.868 -16.643   3.829  1.00  0.00    -0.322 N 
HETATM    2  C   UNL     1      41.493 -16.537   3.963  1.00  0.00     0.257 C 
HETATM    3  O   UNL     1      40.736 -17.318   4.523  1.00  0.00    -0.267 OA
HETATM    4  H   UNL     1      43.298 -15.994   3.181  1.00  0.00     0.169 HD
ENDROOT
BRANCH   2   5
HETATM    5  C   UNL     1      40.900 -15.336   3.322  1.00  0.00     0.046 A 
HETATM    6  C   UNL     1      40.341 -14.267   4.064  1.00  0.00     0.008 A 
HETATM    7  C   UNL     1      39.743 -13.241   3.307  1.00  0.00     0.068 A 
HETATM    8  C   UNL     1      40.365 -14.140   5.480  1.00  0.00     0.015 A 
HETATM    9  C   UNL     1      39.133 -12.186   3.969  1.00  0.00     0.032 A 
HETATM   10  N   UNL     1      39.749 -13.227   1.964  1.00  0.00    -0.252 NA
HETATM   11  C   UNL     1      39.118 -12.094   5.363  1.00  0.00     0.002 A 
HETATM   12  C   UNL     1      39.749 -13.067   6.121  1.00  0.00     0.001 A 
HETATM   13  C   UNL     1      40.365 -14.222   1.283  1.00  0.00     0.039 A 
HETATM   14  C   UNL     1      40.939 -15.301   1.928  1.00  0.00     0.045 A 
BRANCH  13  15
HETATM   15  C   UNL     1      40.442 -14.095  -0.226  1.00  0.00     0.029 C 
HETATM   16  C   UNL     1      41.095 -15.328  -0.851  1.00  0.00     0.016 C 
HETATM   17  C   UNL     1      39.047 -13.863  -0.810  1.00  0.00     0.016 C 
ENDBRANCH  13  15
ENDBRANCH   2   5
BRANCH   1  18
HETATM   18  C   UNL     1      43.630 -17.794   4.136  1.00  0.00     0.043 A 
HETATM   19  C   UNL     1      44.198 -18.078   5.386  1.00  0.00    -0.032 A 
HETATM   20  C   UNL     1      44.211 -17.119   6.545  1.00  0.00     0.050 C 
HETATM   21  C   UNL     1      44.852 -19.315   5.569  1.00  0.00     0.048 A 
HETATM   22  C   UNL     1      44.983 -20.237   4.527  1.00  0.00     0.102 A 
HETATM   23  C   UNL     1      44.464 -19.918   3.263  1.00  0.00     0.103 A 
HETATM   24  C   UNL     1      43.823 -18.690   3.071  1.00  0.00     0.069 A 
BRANCH  22  25
HETATM   25  O   UNL     1      45.598 -21.459   4.637  1.00  0.00    -0.353 OA
HETATM   26  C   UNL     1      44.883 -22.501   5.286  1.00  0.00     0.210 C 
ENDBRANCH  22  25
BRANCH  23  27
HETATM   27  O   UNL     1      44.639 -20.854   2.273  1.00  0.00    -0.353 OA
HETATM   28  C   UNL     1      43.476 -21.528   1.811  1.00  0.00     0.210 C 
ENDBRANCH  23  27
ENDBRANCH   1  18
TORSDOF 5
ENDMDL
MODEL 8
REMARK VINA RESULT:      -7.5      2.605      8.073
REMARK  5 active torsions:
REMARK  status: ('A' for Active; 'I' for Inactive)
REMARK    1  A    between atoms: C_3  and  N_4 
REMARK       I    between atoms: N_4  and  C_5 
REMARK    2  A    between atoms: C_5  and  C_6 
REMARK    3  A    between atoms: C_14  and  C_15 
REMARK    4  A    between atoms: C_21  and  O_22 
REMARK    5  A    between atoms: C_24  and  O_25 
ROOT
HETATM    1  N   UNL     1      42.878 -16.701   3.675  1.00  0.00    -0.322 N 
HETATM    2  C   UNL     1      41.499 -16.601   3.762  1.00  0.00     0.257 C 
HETATM    3  O   UNL     1      40.727 -17.377   4.309  1.00  0.00    -0.267 OA
HETATM    4  H   UNL     1      43.326 -16.060   3.031  1.00  0.00     0.169 HD
ENDROOT
BRANCH   2   5
HETATM    5  C   UNL     1      40.921 -15.414   3.082  1.00  0.00     0.046 A 
HETATM    6  C   UNL     1      40.887 -15.276   1.673  1.00  0.00     0.008 A 
HETATM    7  C   UNL     1      40.383 -14.055   1.188  1.00  0.00     0.068 A 
HETATM    8  C   UNL     1      41.286 -16.267   0.735  1.00  0.00     0.015 A 
HETATM    9  C   UNL     1      40.366 -13.832  -0.181  1.00  0.00     0.032 A 
HETATM   10  N   UNL     1      39.900 -13.093   1.992  1.00  0.00    -0.252 NA
HETATM   11  C   UNL     1      40.805 -14.792  -1.095  1.00  0.00     0.002 A 
HETATM   12  C   UNL     1      41.254 -16.021  -0.635  1.00  0.00     0.001 A 
HETATM   13  C   UNL     1      39.869 -13.289   3.331  1.00  0.00     0.039 A 
HETATM   14  C   UNL     1      40.384 -14.431   3.915  1.00  0.00     0.045 A 
BRANCH  13  15
HETATM   15  C   UNL     1      39.207 -12.220   4.179  1.00  0.00     0.029 C 
HETATM   16  C   UNL     1      40.213 -11.565   5.127  1.00  0.00     0.016 C 
HETATM   17  C   UNL     1      38.539 -11.173   3.287  1.00  0.00     0.016 C 
ENDBRANCH  13  15
ENDBRANCH   2   5
BRANCH   1  18
HETATM   18  C   UNL     1      43.636 -17.843   4.026  1.00  0.00     0.043 A 
HETATM   19  C   UNL     1      44.177 -18.094   5.294  1.00  0.00    -0.032 A 
HETATM   20  C   UNL     1      44.165 -17.108   6.429  1.00  0.00     0.050 C 
HETATM   21  C   UNL     1      44.830 -19.325   5.521  1.00  0.00     0.048 A 
HETATM   22  C   UNL     1      44.984 -20.273   4.505  1.00  0.00     0.102 A 
HETATM   23  C   UNL     1      44.491 -19.986   3.224  1.00  0.00     0.103 A 
HETATM   24  C   UNL     1      43.852 -18.764   2.988  1.00  0.00     0.069 A 
BRANCH  22  25
HETATM   25  O   UNL     1      45.598 -21.490   4.658  1.00  0.00    -0.353 OA
HETATM   26  C   UNL     1      44.899 -22.496   5.376  1.00  0.00     0.210 C 
ENDBRANCH  22  25
BRANCH  23  27
HETATM   27  O   UNL     1      44.687 -20.946   2.260  1.00  0.00    -0.353 OA
HETATM   28  C   UNL     1      43.532 -21.609   1.767  1.00  0.00     0.210 C 
ENDBRANCH  23  27
ENDBRANCH   1  18
TORSDOF 5
ENDMDL
MODEL 9
REMARK VINA RESULT:      -7.5      2.707      7.890
REMARK  5 active torsions:
REMARK  status: ('A' for Active; 'I' for Inactive)
REMARK    1  A    between atoms: C_3  and  N_4 
REMARK       I    between atoms: N_4  and  C_5 
REMARK    2  A    between atoms: C_5  and  C_6 
REMARK    3  A    between atoms: C_14  and  C_15 
REMARK    4  A    between atoms: C_21  and  O_22 
REMARK    5  A    between atoms: C_24  and  O_25 
ROOT
HETATM    1  N   UNL     1      42.475 -16.431   3.467  1.00  0.00    -0.322 N 
HETATM    2  C   UNL     1      41.229 -16.246   2.891  1.00  0.00     0.257 C 
HETATM    3  O   UNL     1      40.404 -17.104   2.606  1.00  0.00    -0.267 OA
HETATM    4  H   UNL     1      43.087 -15.623   3.461  1.00  0.00     0.169 HD
ENDROOT
BRANCH   2   5
HETATM    5  C   UNL     1      40.897 -14.834   2.573  1.00  0.00     0.046 A 
HETATM    6  C   UNL     1      40.330 -13.946   3.519  1.00  0.00     0.008 A 
HETATM    7  C   UNL     1      39.997 -12.666   3.037  1.00  0.00     0.068 A 
HETATM    8  C   UNL     1      40.107 -14.233   4.893  1.00  0.00     0.015 A 
HETATM    9  C   UNL     1      39.393 -11.761   3.897  1.00  0.00     0.032 A 
HETATM   10  N   UNL     1      40.251 -12.270   1.779  1.00  0.00    -0.252 NA
HETATM   11  C   UNL     1      39.132 -12.068   5.234  1.00  0.00     0.002 A 
HETATM   12  C   UNL     1      39.504 -13.305   5.738  1.00  0.00     0.001 A 
HETATM   13  C   UNL     1      40.871 -13.115   0.920  1.00  0.00     0.039 A 
HETATM   14  C   UNL     1      41.196 -14.410   1.277  1.00  0.00     0.045 A 
BRANCH  13  15
HETATM   15  C   UNL     1      41.237 -12.576  -0.448  1.00  0.00     0.029 C 
HETATM   16  C   UNL     1      42.392 -11.578  -0.358  1.00  0.00     0.016 C 
HETATM   17  C   UNL     1      41.586 -13.727  -1.395  1.00  0.00     0.016 C 
ENDBRANCH  13  15
ENDBRANCH   2   5
BRANCH   1  18
HETATM   18  C   UNL     1      43.115 -17.680   3.643  1.00  0.00     0.043 A 
HETATM   19  C   UNL     1      43.754 -18.409   2.631  1.00  0.00    -0.032 A 
HETATM   20  C   UNL     1      43.717 -18.043   1.173  1.00  0.00     0.050 C 
HETATM   21  C   UNL     1      44.433 -19.597   2.977  1.00  0.00     0.048 A 
HETATM   22  C   UNL     1      44.445 -20.081   4.289  1.00  0.00     0.102 A 
HETATM   23  C   UNL     1      43.752 -19.374   5.283  1.00  0.00     0.103 A 
HETATM   24  C   UNL     1      43.069 -18.201   4.946  1.00  0.00     0.069 A 
BRANCH  22  25
HETATM   25  O   UNL     1      45.091 -21.220   4.695  1.00  0.00    -0.353 OA
HETATM   26  C   UNL     1      44.732 -22.442   4.067  1.00  0.00     0.210 C 
ENDBRANCH  22  25
BRANCH  23  27
HETATM   27  O   UNL     1      43.784 -19.906   6.550  1.00  0.00    -0.353 OA
HETATM   28  C   UNL     1      43.819 -18.988   7.633  1.00  0.00     0.210 C 
ENDBRANCH  23  27
ENDBRANCH   1  18
TORSDOF 5
ENDMDL
MODEL 10
REMARK VINA RESULT:      -7.4      2.422      7.934
REMARK  5 active torsions:
REMARK  status: ('A' for Active; 'I' for Inactive)
REMARK    1  A    between atoms: C_3  and  N_4 
REMARK       I    between atoms: N_4  and  C_5 
REMARK    2  A    between atoms: C_5  and  C_6 
REMARK    3  A    between atoms: C_14  and  C_15 
REMARK    4  A    between atoms: C_21  and  O_22 
REMARK    5  A    between atoms: C_24  and  O_25 
ROOT
HETATM    1  N   UNL     1      42.080 -16.104   2.613  1.00  0.00    -0.322 N 
HETATM    2  C   UNL     1      40.839 -16.139   1.996  1.00  0.00     0.257 C 
HETATM    3  O   UNL     1      40.001 -17.028   2.057  1.00  0.00    -0.267 OA
HETATM    4  H   UNL     1      42.706 -15.371   2.300  1.00  0.00     0.169 HD
ENDROOT
BRANCH   2   5
HETATM    5  C   UNL     1      40.534 -14.956   1.152  1.00  0.00     0.046 A 
HETATM    6  C   UNL     1      39.965 -13.768   1.672  1.00  0.00     0.008 A 
HETATM    7  C   UNL     1      39.659 -12.770   0.727  1.00  0.00     0.068 A 
HETATM    8  C   UNL     1      39.715 -13.502   3.046  1.00  0.00     0.015 A 
HETATM    9  C   UNL     1      39.055 -11.599   1.160  1.00  0.00     0.032 A 
HETATM   10  N   UNL     1      39.939 -12.891  -0.580  1.00  0.00    -0.252 NA
HETATM   11  C   UNL     1      38.768 -11.365   2.507  1.00  0.00     0.002 A 
HETATM   12  C   UNL     1      39.112 -12.315   3.456  1.00  0.00     0.001 A 
HETATM   13  C   UNL     1      40.561 -14.005  -1.035  1.00  0.00     0.039 A 
HETATM   14  C   UNL     1      40.860 -15.066  -0.200  1.00  0.00     0.045 A 
BRANCH  13  15
HETATM   15  C   UNL     1      40.957 -14.039  -2.497  1.00  0.00     0.029 C 
HETATM   16  C   UNL     1      42.261 -13.275  -2.733  1.00  0.00     0.016 C 
HETATM   17  C   UNL     1      41.080 -15.485  -2.981  1.00  0.00     0.016 C 
ENDBRANCH  13  15
ENDBRANCH   2   5
BRANCH   1  18
HETATM   18  C   UNL     1      42.696 -17.197   3.265  1.00  0.00     0.043 A 
HETATM   19  C   UNL     1      43.519 -18.148   2.646  1.00  0.00    -0.032 A 
HETATM   20  C   UNL     1      43.740 -18.236   1.161  1.00  0.00     0.050 C 
HETATM   21  C   UNL     1      44.143 -19.129   3.446  1.00  0.00     0.048 A 
HETATM   22  C   UNL     1      43.925 -19.198   4.826  1.00  0.00     0.102 A 
HETATM   23  C   UNL     1      43.053 -18.278   5.426  1.00  0.00     0.103 A 
HETATM   24  C   UNL     1      42.424 -17.309   4.638  1.00  0.00     0.069 A 
BRANCH  22  25
HETATM   25  O   UNL     1      44.505 -20.118   5.663  1.00  0.00    -0.353 OA
HETATM   26  C   UNL     1      44.817 -21.394   5.125  1.00  0.00     0.210 C 
ENDBRANCH  22  25
BRANCH  23  27
HETATM   27  O   UNL     1      42.864 -18.405   6.781  1.00  0.00    -0.353 OA
HETATM   28  C   UNL     1      42.842 -17.207   7.544  1.00  0.00     0.210 C 
ENDBRANCH  23  27
ENDBRANCH   1  18
TORSDOF 5
ENDMDL
