MODEL 1
REMARK VINA RESULT:      -8.1      0.000      0.000
REMARK  5 active torsions:
REMARK  status: ('A' for Active; 'I' for Inactive)
REMARK    1  A    between atoms: C_3  and  C_4 
REMARK       I    between atoms: C_4  and  N_5 
REMARK    2  A    between atoms: C_7  and  N_8 
REMARK    3  A    between atoms: N_8  and  C_9 
REMARK    4  A    between atoms: C_9  and  C_10 
REMARK    5  A    between atoms: C_10  and  C_11 
ROOT
HETATM    1  C   UNL     1      41.085 -14.142   4.722  1.00  0.00     0.049 C 
HETATM    2  C   UNL     1      42.206 -14.730   5.535  1.00  0.00    -0.041 A 
HETATM    3  C   UNL     1      42.205 -16.073   5.947  1.00  0.00     0.081 A 
HETATM    4  C   UNL     1      43.247 -16.593   6.746  1.00  0.00     0.117 A 
HETATM    5  N   UNL     1      44.211 -15.734   7.129  1.00  0.00    -0.346 N 
HETATM    6  H   UNL     1      44.927 -16.083   7.755  1.00  0.00     0.167 HD
HETATM    7  C   UNL     1      44.263 -14.440   6.767  1.00  0.00     0.007 A 
HETATM    8  C   UNL     1      45.389 -13.594   7.271  1.00  0.00     0.068 C 
HETATM    9  C   UNL     1      43.257 -13.914   5.957  1.00  0.00     0.032 A 
ENDROOT
BRANCH   4  10
HETATM   10  N   UNL     1      43.245 -17.894   7.235  1.00  0.00    -0.375 N 
HETATM   11  H   UNL     1      42.325 -18.182   7.583  1.00  0.00     0.161 HD
BRANCH  10  12
HETATM   12  C   UNL     1      43.992 -18.979   6.607  1.00  0.00     0.126 C 
BRANCH  12  13
HETATM   13  C   UNL     1      44.629 -18.520   5.289  1.00  0.00     0.058 C 
BRANCH  13  14
HETATM   14  C   UNL     1      44.379 -19.535   4.201  1.00  0.00    -0.057 A 
HETATM   15  C   UNL     1      44.793 -20.865   4.370  1.00  0.00     0.010 A 
HETATM   16  C   UNL     1      44.611 -21.796   3.346  1.00  0.00     0.043 A 
HETATM   17  C   UNL     1      44.019 -21.396   2.154  1.00  0.00     0.116 A 
HETATM   18  F   UNL     1      43.857 -22.286   1.168  1.00  0.00    -0.206 F 
HETATM   19  C   UNL     1      43.598 -20.085   1.970  1.00  0.00     0.043 A 
HETATM   20  C   UNL     1      43.776 -19.152   2.992  1.00  0.00     0.010 A 
ENDBRANCH  13  14
ENDBRANCH  12  13
ENDBRANCH  10  12
ENDBRANCH   4  10
BRANCH   3  21
HETATM   21  C   UNL     1      41.066 -16.939   5.611  1.00  0.00     0.253 C 
HETATM   22  N   UNL     1      39.954 -16.811   6.393  1.00  0.00    -0.366 N 
HETATM   23  H   UNL     1      39.985 -16.421   7.327  1.00  0.00     0.159 HD
HETATM   24  H   UNL     1      39.232 -17.510   6.233  1.00  0.00     0.159 HD
HETATM   25  O   UNL     1      41.140 -17.727   4.683  1.00  0.00    -0.268 OA
ENDBRANCH   3  21
TORSDOF 5
ENDMDL
MODEL 2
REMARK VINA RESULT:      -7.9      2.009      3.296
REMARK  5 active torsions:
REMARK  status: ('A' for Active; 'I' for Inactive)
REMARK    1  A    between atoms: C_3  and  C_4 
REMARK       I    between atoms: C_4  and  N_5 
REMARK    2  A    between atoms: C_7  and  N_8 
REMARK    3  A    between atoms: N_8  and  C_9 
REMARK    4  A    between atoms: C_9  and  C_10 
REMARK    5  A    between atoms: C_10  and  C_11 
ROOT
HETATM    1  C   UNL     1      44.727 -13.779   7.132  1.00  0.00     0.049 C 
HETATM    2  C   UNL     1      44.142 -15.046   6.569  1.00  0.00    -0.041 A 
HETATM    3  C   UNL     1      43.518 -15.085   5.311  1.00  0.00     0.081 A 
HETATM    4  C   UNL     1      42.937 -16.276   4.821  1.00  0.00     0.117 A 
HETATM    5  N   UNL     1      42.970 -17.351   5.630  1.00  0.00    -0.346 N 
HETATM    6  H   UNL     1      42.498 -18.190   5.313  1.00  0.00     0.167 HD
HETATM    7  C   UNL     1      43.550 -17.371   6.844  1.00  0.00     0.007 A 
HETATM    8  C   UNL     1      43.507 -18.635   7.643  1.00  0.00     0.068 C 
HETATM    9  C   UNL     1      44.152 -16.213   7.334  1.00  0.00     0.032 A 
ENDROOT
BRANCH   4  10
HETATM   10  N   UNL     1      42.247 -16.337   3.615  1.00  0.00    -0.375 N 
HETATM   11  H   UNL     1      42.307 -15.463   3.083  1.00  0.00     0.161 HD
BRANCH  10  12
HETATM   12  C   UNL     1      42.226 -17.529   2.774  1.00  0.00     0.126 C 
BRANCH  12  13
HETATM   13  C   UNL     1      43.634 -17.877   2.274  1.00  0.00     0.058 C 
BRANCH  13  14
HETATM   14  C   UNL     1      43.970 -19.311   2.601  1.00  0.00    -0.057 A 
HETATM   15  C   UNL     1      43.652 -20.334   1.694  1.00  0.00     0.010 A 
HETATM   16  C   UNL     1      43.913 -21.667   2.015  1.00  0.00     0.043 A 
HETATM   17  C   UNL     1      44.487 -21.978   3.241  1.00  0.00     0.116 A 
HETATM   18  F   UNL     1      44.725 -23.257   3.553  1.00  0.00    -0.206 F 
HETATM   19  C   UNL     1      44.813 -20.979   4.150  1.00  0.00     0.043 A 
HETATM   20  C   UNL     1      44.556 -19.644   3.833  1.00  0.00     0.010 A 
ENDBRANCH  13  14
ENDBRANCH  12  13
ENDBRANCH  10  12
ENDBRANCH   4  10
BRANCH   3  21
HETATM   21  C   UNL     1      43.395 -13.854   4.518  1.00  0.00     0.253 C 
HETATM   22  N   UNL     1      42.377 -13.010   4.860  1.00  0.00    -0.366 N 
HETATM   23  H   UNL     1      41.561 -13.319   5.373  1.00  0.00     0.159 HD
HETATM   24  H   UNL     1      42.224 -12.237   4.217  1.00  0.00     0.159 HD
HETATM   25  O   UNL     1      44.168 -13.626   3.603  1.00  0.00    -0.268 OA
ENDBRANCH   3  21
TORSDOF 5
ENDMDL
MODEL 3
REMARK VINA RESULT:      -7.6      2.476      3.394
REMARK  5 active torsions:
REMARK  status: ('A' for Active; 'I' for Inactive)
REMARK    1  A    between atoms: C_3  and  C_4 
REMARK       I    between atoms: C_4  and  N_5 
REMARK    2  A    between atoms: C_7  and  N_8 
REMARK    3  A    between atoms: N_8  and  C_9 
REMARK    4  A    between atoms: C_9  and  C_10 
REMARK    5  A    between atoms: C_10  and  C_11 
ROOT
HETATM    1  C   UNL     1      39.600 -13.965   4.973  1.00  0.00     0.049 C 
HETATM    2  C   UNL     1      40.565 -15.117   4.905  1.00  0.00    -0.041 A 
HETATM    3  C   UNL     1      40.912 -15.730   3.690  1.00  0.00     0.081 A 
HETATM    4  C   UNL     1      41.787 -16.838   3.654  1.00  0.00     0.117 A 
HETATM    5  N   UNL     1      42.233 -17.304   4.836  1.00  0.00    -0.346 N 
HETATM    6  H   UNL     1      42.809 -18.138   4.824  1.00  0.00     0.167 HD
HETATM    7  C   UNL     1      41.933 -16.760   6.029  1.00  0.00     0.007 A 
HETATM    8  C   UNL     1      42.493 -17.383   7.268  1.00  0.00     0.068 C 
HETATM    9  C   UNL     1      41.092 -15.649   6.083  1.00  0.00     0.032 A 
ENDROOT
BRANCH   4  10
HETATM   10  N   UNL     1      42.096 -17.518   2.481  1.00  0.00    -0.375 N 
HETATM   11  H   UNL     1      41.552 -17.185   1.679  1.00  0.00     0.161 HD
BRANCH  10  12
HETATM   12  C   UNL     1      43.454 -17.922   2.133  1.00  0.00     0.126 C 
BRANCH  12  13
HETATM   13  C   UNL     1      43.483 -19.359   1.599  1.00  0.00     0.058 C 
BRANCH  13  14
HETATM   14  C   UNL     1      44.041 -20.298   2.641  1.00  0.00    -0.057 A 
HETATM   15  C   UNL     1      44.115 -21.675   2.381  1.00  0.00     0.010 A 
HETATM   16  C   UNL     1      44.582 -22.553   3.361  1.00  0.00     0.043 A 
HETATM   17  C   UNL     1      44.971 -22.056   4.598  1.00  0.00     0.116 A 
HETATM   18  F   UNL     1      45.406 -22.900   5.541  1.00  0.00    -0.206 F 
HETATM   19  C   UNL     1      44.910 -20.695   4.872  1.00  0.00     0.043 A 
HETATM   20  C   UNL     1      44.446 -19.813   3.895  1.00  0.00     0.010 A 
ENDBRANCH  13  14
ENDBRANCH  12  13
ENDBRANCH  10  12
ENDBRANCH   4  10
BRANCH   3  21
HETATM   21  C   UNL     1      40.299 -15.267   2.437  1.00  0.00     0.253 C 
HETATM   22  N   UNL     1      39.088 -15.810   2.116  1.00  0.00    -0.366 N 
HETATM   23  H   UNL     1      38.768 -16.693   2.493  1.00  0.00     0.159 HD
HETATM   24  H   UNL     1      38.747 -15.582   1.184  1.00  0.00     0.159 HD
HETATM   25  O   UNL     1      40.867 -14.446   1.736  1.00  0.00    -0.268 OA
ENDBRANCH   3  21
TORSDOF 5
ENDMDL
MODEL 4
REMARK VINA RESULT:      -7.6      3.995      5.337
REMARK  5 active torsions:
REMARK  status: ('A' for Active; 'I' for Inactive)
REMARK    1  A    between atoms: C_3  and  C_4 
REMARK       I    between atoms: C_4  and  N_5 
REMARK    2  A    between atoms: C_7  and  N_8 
REMARK    3  A    between atoms: N_8  and  C_9 
REMARK    4  A    between atoms: C_9  and  C_10 
REMARK    5  A    between atoms: C_10  and  C_11 
ROOT
HETATM    1  C   UNL     1      39.948 -12.694   1.086  1.00  0.00     0.049 C 
HETATM    2  C   UNL     1      40.386 -13.958   0.396  1.00  0.00    -0.041 A 
HETATM    3  C   UNL     1      40.864 -15.070   1.108  1.00  0.00     0.081 A 
HETATM    4  C   UNL     1      41.309 -16.230   0.437  1.00  0.00     0.117 A 
HETATM    5  N   UNL     1      41.299 -16.201  -0.908  1.00  0.00    -0.346 N 
HETATM    6  H   UNL     1      41.678 -17.004  -1.398  1.00  0.00     0.167 HD
HETATM    7  C   UNL     1      40.855 -15.164  -1.642  1.00  0.00     0.007 A 
HETATM    8  C   UNL     1      40.906 -15.262  -3.134  1.00  0.00     0.068 C 
HETATM    9  C   UNL     1      40.386 -14.020  -0.998  1.00  0.00     0.032 A 
ENDROOT
BRANCH   4  10
HETATM   10  N   UNL     1      41.857 -17.322   1.102  1.00  0.00    -0.375 N 
HETATM   11  H   UNL     1      41.281 -18.165   1.015  1.00  0.00     0.161 HD
BRANCH  10  12
HETATM   12  C   UNL     1      43.290 -17.599   1.125  1.00  0.00     0.126 C 
BRANCH  12  13
HETATM   13  C   UNL     1      43.786 -17.823   2.559  1.00  0.00     0.058 C 
BRANCH  13  14
HETATM   14  C   UNL     1      44.008 -19.294   2.815  1.00  0.00    -0.057 A 
HETATM   15  C   UNL     1      44.555 -19.721   4.035  1.00  0.00     0.010 A 
HETATM   16  C   UNL     1      44.812 -21.076   4.256  1.00  0.00     0.043 A 
HETATM   17  C   UNL     1      44.525 -22.000   3.259  1.00  0.00     0.116 A 
HETATM   18  F   UNL     1      44.784 -23.296   3.467  1.00  0.00    -0.206 F 
HETATM   19  C   UNL     1      43.979 -21.596   2.046  1.00  0.00     0.043 A 
HETATM   20  C   UNL     1      43.719 -20.243   1.822  1.00  0.00     0.010 A 
ENDBRANCH  13  14
ENDBRANCH  12  13
ENDBRANCH  10  12
ENDBRANCH   4  10
BRANCH   3  21
HETATM   21  C   UNL     1      40.976 -15.006   2.572  1.00  0.00     0.253 C 
HETATM   22  N   UNL     1      39.843 -15.287   3.281  1.00  0.00    -0.366 N 
HETATM   23  H   UNL     1      38.916 -15.217   2.880  1.00  0.00     0.159 HD
HETATM   24  H   UNL     1      39.904 -15.105   4.281  1.00  0.00     0.159 HD
HETATM   25  O   UNL     1      42.034 -14.707   3.100  1.00  0.00    -0.268 OA
ENDBRANCH   3  21
TORSDOF 5
ENDMDL
MODEL 5
REMARK VINA RESULT:      -7.3      3.150      5.001
REMARK  5 active torsions:
REMARK  status: ('A' for Active; 'I' for Inactive)
REMARK    1  A    between atoms: C_3  and  C_4 
REMARK       I    between atoms: C_4  and  N_5 
REMARK    2  A    between atoms: C_7  and  N_8 
REMARK    3  A    between atoms: N_8  and  C_9 
REMARK    4  A    between atoms: C_9  and  C_10 
REMARK    5  A    between atoms: C_10  and  C_11 
ROOT
HETATM    1  C   UNL     1      39.672 -12.073   3.961  1.00  0.00     0.049 C 
HETATM    2  C   UNL     1      39.415 -13.172   2.965  1.00  0.00    -0.041 A 
HETATM    3  C   UNL     1      39.813 -14.498   3.198  1.00  0.00     0.081 A 
HETATM    4  C   UNL     1      39.600 -15.505   2.231  1.00  0.00     0.117 A 
HETATM    5  N   UNL     1      39.045 -15.126   1.065  1.00  0.00    -0.346 N 
HETATM    6  H   UNL     1      38.948 -15.829   0.341  1.00  0.00     0.167 HD
HETATM    7  C   UNL     1      38.647 -13.872   0.785  1.00  0.00     0.007 A 
HETATM    8  C   UNL     1      38.049 -13.587  -0.556  1.00  0.00     0.068 C 
HETATM    9  C   UNL     1      38.824 -12.869   1.738  1.00  0.00     0.032 A 
ENDROOT
BRANCH   4  10
HETATM   10  N   UNL     1      40.045 -16.813   2.393  1.00  0.00    -0.375 N 
HETATM   11  H   UNL     1      39.325 -17.427   2.789  1.00  0.00     0.161 HD
BRANCH  10  12
HETATM   12  C   UNL     1      40.911 -17.481   1.428  1.00  0.00     0.126 C 
BRANCH  12  13
HETATM   13  C   UNL     1      42.369 -17.033   1.591  1.00  0.00     0.058 C 
BRANCH  13  14
HETATM   14  C   UNL     1      43.142 -18.043   2.402  1.00  0.00    -0.057 A 
HETATM   15  C   UNL     1      43.549 -19.253   1.819  1.00  0.00     0.010 A 
HETATM   16  C   UNL     1      44.219 -20.213   2.580  1.00  0.00     0.043 A 
HETATM   17  C   UNL     1      44.479 -19.964   3.922  1.00  0.00     0.116 A 
HETATM   18  F   UNL     1      45.110 -20.890   4.654  1.00  0.00    -0.206 F 
HETATM   19  C   UNL     1      44.088 -18.770   4.516  1.00  0.00     0.043 A 
HETATM   20  C   UNL     1      43.420 -17.807   3.758  1.00  0.00     0.010 A 
ENDBRANCH  13  14
ENDBRANCH  12  13
ENDBRANCH  10  12
ENDBRANCH   4  10
BRANCH   3  21
HETATM   21  C   UNL     1      40.531 -14.838   4.435  1.00  0.00     0.253 C 
HETATM   22  N   UNL     1      39.761 -15.095   5.533  1.00  0.00    -0.366 N 
HETATM   23  H   UNL     1      38.809 -14.765   5.622  1.00  0.00     0.159 HD
HETATM   24  H   UNL     1      40.276 -15.193   6.406  1.00  0.00     0.159 HD
HETATM   25  O   UNL     1      41.750 -14.873   4.454  1.00  0.00    -0.268 OA
ENDBRANCH   3  21
TORSDOF 5
ENDMDL
MODEL 6
REMARK VINA RESULT:      -7.2      2.841      3.992
REMARK  5 active torsions:
REMARK  status: ('A' for Active; 'I' for Inactive)
REMARK    1  A    between atoms: C_3  and  C_4 
REMARK       I    between atoms: C_4  and  N_5 
REMARK    2  A    between atoms: C_7  and  N_8 
REMARK    3  A    between atoms: N_8  and  C_9 
REMARK    4  A    between atoms: C_9  and  C_10 
REMARK    5  A    between atoms: C_10  and  C_11 
ROOT
HETATM    1  C   UNL     1      39.793 -12.768   2.869  1.00  0.00     0.049 C 
HETATM    2  C   UNL     1      40.250 -14.154   3.235  1.00  0.00    -0.041 A 
HETATM    3  C   UNL     1      40.582 -15.112   2.263  1.00  0.00     0.081 A 
HETATM    4  C   UNL     1      40.968 -16.420   2.629  1.00  0.00     0.117 A 
HETATM    5  N   UNL     1      40.955 -16.717   3.942  1.00  0.00    -0.346 N 
HETATM    6  H   UNL     1      41.167 -17.672   4.208  1.00  0.00     0.167 HD
HETATM    7  C   UNL     1      40.643 -15.843   4.916  1.00  0.00     0.007 A 
HETATM    8  C   UNL     1      40.663 -16.309   6.337  1.00  0.00     0.068 C 
HETATM    9  C   UNL     1      40.286 -14.539   4.576  1.00  0.00     0.032 A 
ENDROOT
BRANCH   4  10
HETATM   10  N   UNL     1      41.233 -17.417   1.696  1.00  0.00    -0.375 N 
HETATM   11  H   UNL     1      40.531 -17.454   0.950  1.00  0.00     0.161 HD
BRANCH  10  12
HETATM   12  C   UNL     1      42.582 -17.737   1.240  1.00  0.00     0.126 C 
BRANCH  12  13
HETATM   13  C   UNL     1      43.551 -17.855   2.423  1.00  0.00     0.058 C 
BRANCH  13  14
HETATM   14  C   UNL     1      43.857 -19.304   2.712  1.00  0.00    -0.057 A 
HETATM   15  C   UNL     1      44.473 -19.667   3.920  1.00  0.00     0.010 A 
HETATM   16  C   UNL     1      44.805 -21.000   4.168  1.00  0.00     0.043 A 
HETATM   17  C   UNL     1      44.526 -21.967   3.211  1.00  0.00     0.116 A 
HETATM   18  F   UNL     1      44.857 -23.242   3.445  1.00  0.00    -0.206 F 
HETATM   19  C   UNL     1      43.912 -21.627   2.011  1.00  0.00     0.043 A 
HETATM   20  C   UNL     1      43.576 -20.297   1.759  1.00  0.00     0.010 A 
ENDBRANCH  13  14
ENDBRANCH  12  13
ENDBRANCH  10  12
ENDBRANCH   4  10
BRANCH   3  21
HETATM   21  C   UNL     1      40.458 -14.778   0.837  1.00  0.00     0.253 C 
HETATM   22  N   UNL     1      39.194 -14.789   0.319  1.00  0.00    -0.366 N 
HETATM   23  H   UNL     1      38.432 -15.299   0.748  1.00  0.00     0.159 HD
HETATM   24  H   UNL     1      39.143 -14.692  -0.693  1.00  0.00     0.159 HD
HETATM   25  O   UNL     1      41.447 -14.519   0.172  1.00  0.00    -0.268 OA
ENDBRANCH   3  21
TORSDOF 5
ENDMDL
MODEL 7
REMARK VINA RESULT:      -7.2      2.553      3.498
REMARK  5 active torsions:
REMARK  status: ('A' for Active; 'I' for Inactive)
REMARK    1  A    between atoms: C_3  and  C_4 
REMARK       I    between atoms: C_4  and  N_5 
REMARK    2  A    between atoms: C_7  and  N_8 
REMARK    3  A    between atoms: N_8  and  C_9 
REMARK    4  A    between atoms: C_9  and  C_10 
REMARK    5  A    between atoms: C_10  and  C_11 
ROOT
HETATM    1  C   UNL     1      40.618 -12.832   1.616  1.00  0.00     0.049 C 
HETATM    2  C   UNL     1      40.512 -13.589   2.912  1.00  0.00    -0.041 A 
HETATM    3  C   UNL     1      40.808 -14.958   3.003  1.00  0.00     0.081 A 
HETATM    4  C   UNL     1      40.659 -15.659   4.221  1.00  0.00     0.117 A 
HETATM    5  N   UNL     1      40.179 -14.966   5.270  1.00  0.00    -0.346 N 
HETATM    6  H   UNL     1      40.008 -15.475   6.130  1.00  0.00     0.167 HD
HETATM    7  C   UNL     1      39.876 -13.655   5.241  1.00  0.00     0.007 A 
HETATM    8  C   UNL     1      39.344 -13.010   6.481  1.00  0.00     0.068 C 
HETATM    9  C   UNL     1      40.041 -12.941   4.055  1.00  0.00     0.032 A 
ENDROOT
BRANCH   4  10
HETATM   10  N   UNL     1      40.871 -17.028   4.334  1.00  0.00    -0.375 N 
HETATM   11  H   UNL     1      40.721 -17.524   3.449  1.00  0.00     0.161 HD
BRANCH  10  12
HETATM   12  C   UNL     1      41.940 -17.601   5.146  1.00  0.00     0.126 C 
BRANCH  12  13
HETATM   13  C   UNL     1      43.301 -17.441   4.458  1.00  0.00     0.058 C 
BRANCH  13  14
HETATM   14  C   UNL     1      43.730 -18.744   3.829  1.00  0.00    -0.057 A 
HETATM   15  C   UNL     1      43.285 -19.084   2.541  1.00  0.00     0.010 A 
HETATM   16  C   UNL     1      43.636 -20.311   1.976  1.00  0.00     0.043 A 
HETATM   17  C   UNL     1      44.426 -21.198   2.697  1.00  0.00     0.116 A 
HETATM   18  F   UNL     1      44.751 -22.380   2.159  1.00  0.00    -0.206 F 
HETATM   19  C   UNL     1      44.879 -20.877   3.971  1.00  0.00     0.043 A 
HETATM   20  C   UNL     1      44.533 -19.650   4.539  1.00  0.00     0.010 A 
ENDBRANCH  13  14
ENDBRANCH  12  13
ENDBRANCH  10  12
ENDBRANCH   4  10
BRANCH   3  21
HETATM   21  C   UNL     1      41.207 -15.701   1.799  1.00  0.00     0.253 C 
HETATM   22  N   UNL     1      40.196 -16.238   1.054  1.00  0.00    -0.366 N 
HETATM   23  H   UNL     1      39.276 -16.423   1.433  1.00  0.00     0.159 HD
HETATM   24  H   UNL     1      40.496 -16.860   0.306  1.00  0.00     0.159 HD
HETATM   25  O   UNL     1      42.385 -15.824   1.509  1.00  0.00    -0.268 OA
ENDBRANCH   3  21
TORSDOF 5
ENDMDL
MODEL 8
REMARK VINA RESULT:      -7.1      3.997      5.037
REMARK  5 active torsions:
REMARK  status: ('A' for Active; 'I' for Inactive)
REMARK    1  A    between atoms: C_3  and  C_4 
REMARK       I    between atoms: C_4  and  N_5 
REMARK    2  A    between atoms: C_7  and  N_8 
REMARK    3  A    between atoms: N_8  and  C_9 
REMARK    4  A    between atoms: C_9  and  C_10 
REMARK    5  A    between atoms: C_10  and  C_11 
ROOT
HETATM    1  C   UNL     1      39.275 -13.286   0.122  1.00  0.00     0.049 C 
HETATM    2  C   UNL     1      40.203 -14.141   0.942  1.00  0.00    -0.041 A 
HETATM    3  C   UNL     1      41.198 -14.939   0.353  1.00  0.00     0.081 A 
HETATM    4  C   UNL     1      42.030 -15.767   1.139  1.00  0.00     0.117 A 
HETATM    5  N   UNL     1      41.794 -15.790   2.464  1.00  0.00    -0.346 N 
HETATM    6  H   UNL     1      42.343 -16.430   3.027  1.00  0.00     0.167 HD
HETATM    7  C   UNL     1      40.856 -15.050   3.082  1.00  0.00     0.007 A 
HETATM    8  C   UNL     1      40.696 -15.178   4.564  1.00  0.00     0.068 C 
HETATM    9  C   UNL     1      40.042 -14.207   2.327  1.00  0.00     0.032 A 
ENDROOT
BRANCH   4  10
HETATM   10  N   UNL     1      42.975 -16.626   0.589  1.00  0.00    -0.375 N 
HETATM   11  H   UNL     1      43.535 -16.177  -0.143  1.00  0.00     0.161 HD
BRANCH  10  12
HETATM   12  C   UNL     1      43.726 -17.592   1.384  1.00  0.00     0.126 C 
BRANCH  12  13
HETATM   13  C   UNL     1      42.949 -18.905   1.536  1.00  0.00     0.058 C 
BRANCH  13  14
HETATM   14  C   UNL     1      43.663 -19.833   2.488  1.00  0.00    -0.057 A 
HETATM   15  C   UNL     1      43.878 -21.175   2.136  1.00  0.00     0.010 A 
HETATM   16  C   UNL     1      44.491 -22.049   3.034  1.00  0.00     0.043 A 
HETATM   17  C   UNL     1      44.885 -21.585   4.283  1.00  0.00     0.116 A 
HETATM   18  F   UNL     1      45.462 -22.428   5.148  1.00  0.00    -0.206 F 
HETATM   19  C   UNL     1      44.686 -20.259   4.647  1.00  0.00     0.043 A 
HETATM   20  C   UNL     1      44.075 -19.381   3.751  1.00  0.00     0.010 A 
ENDBRANCH  13  14
ENDBRANCH  12  13
ENDBRANCH  10  12
ENDBRANCH   4  10
BRANCH   3  21
HETATM   21  C   UNL     1      41.332 -14.978  -1.110  1.00  0.00     0.253 C 
HETATM   22  N   UNL     1      42.055 -13.969  -1.680  1.00  0.00    -0.366 N 
HETATM   23  H   UNL     1      42.211 -13.081  -1.219  1.00  0.00     0.159 HD
HETATM   24  H   UNL     1      42.021 -13.936  -2.696  1.00  0.00     0.159 HD
HETATM   25  O   UNL     1      40.808 -15.869  -1.757  1.00  0.00    -0.268 OA
ENDBRANCH   3  21
TORSDOF 5
ENDMDL
MODEL 9
REMARK VINA RESULT:      -6.9      3.464      4.834
REMARK  5 active torsions:
REMARK  status: ('A' for Active; 'I' for Inactive)
REMARK    1  A    between atoms: C_3  and  C_4 
REMARK       I    between atoms: C_4  and  N_5 
REMARK    2  A    between atoms: C_7  and  N_8 
REMARK    3  A    between atoms: N_8  and  C_9 
REMARK    4  A    between atoms: C_9  and  C_10 
REMARK    5  A    between atoms: C_10  and  C_11 
ROOT
HETATM    1  C   UNL     1      38.897 -11.923   2.107  1.00  0.00     0.049 C 
HETATM    2  C   UNL     1      39.448 -13.237   2.589  1.00  0.00    -0.041 A 
HETATM    3  C   UNL     1      39.587 -14.346   1.738  1.00  0.00     0.081 A 
HETATM    4  C   UNL     1      40.066 -15.583   2.222  1.00  0.00     0.117 A 
HETATM    5  N   UNL     1      40.336 -15.662   3.538  1.00  0.00    -0.346 N 
HETATM    6  H   UNL     1      40.618 -16.563   3.906  1.00  0.00     0.167 HD
HETATM    7  C   UNL     1      40.219 -14.636   4.401  1.00  0.00     0.007 A 
HETATM    8  C   UNL     1      40.547 -14.864   5.842  1.00  0.00     0.068 C 
HETATM    9  C   UNL     1      39.773 -13.399   3.937  1.00  0.00     0.032 A 
ENDROOT
BRANCH   4  10
HETATM   10  N   UNL     1      40.149 -16.722   1.429  1.00  0.00    -0.375 N 
HETATM   11  H   UNL     1      39.303 -16.875   0.871  1.00  0.00     0.161 HD
BRANCH  10  12
HETATM   12  C   UNL     1      41.374 -17.127   0.748  1.00  0.00     0.126 C 
BRANCH  12  13
HETATM   13  C   UNL     1      42.612 -16.566   1.459  1.00  0.00     0.058 C 
BRANCH  13  14
HETATM   14  C   UNL     1      43.260 -17.632   2.308  1.00  0.00    -0.057 A 
HETATM   15  C   UNL     1      43.603 -18.871   1.743  1.00  0.00     0.010 A 
HETATM   16  C   UNL     1      44.154 -19.878   2.536  1.00  0.00     0.043 A 
HETATM   17  C   UNL     1      44.359 -19.650   3.891  1.00  0.00     0.116 A 
HETATM   18  F   UNL     1      44.876 -20.621   4.653  1.00  0.00    -0.206 F 
HETATM   19  C   UNL     1      44.031 -18.428   4.467  1.00  0.00     0.043 A 
HETATM   20  C   UNL     1      43.482 -17.417   3.677  1.00  0.00     0.010 A 
ENDBRANCH  13  14
ENDBRANCH  12  13
ENDBRANCH  10  12
ENDBRANCH   4  10
BRANCH   3  21
HETATM   21  C   UNL     1      39.158 -14.248   0.336  1.00  0.00     0.253 C 
HETATM   22  N   UNL     1      37.822 -14.399   0.097  1.00  0.00    -0.366 N 
HETATM   23  H   UNL     1      37.202 -14.870   0.743  1.00  0.00     0.159 HD
HETATM   24  H   UNL     1      37.565 -14.465  -0.886  1.00  0.00     0.159 HD
HETATM   25  O   UNL     1      39.974 -14.051  -0.550  1.00  0.00    -0.268 OA
ENDBRANCH   3  21
TORSDOF 5
ENDMDL
MODEL 10
REMARK VINA RESULT:      -6.9      2.690      4.229
REMARK  5 active torsions:
REMARK  status: ('A' for Active; 'I' for Inactive)
REMARK    1  A    between atoms: C_3  and  C_4 
REMARK       I    between atoms: C_4  and  N_5 
REMARK    2  A    between atoms: C_7  and  N_8 
REMARK    3  A    between atoms: N_8  and  C_9 
REMARK    4  A    between atoms: C_9  and  C_10 
REMARK    5  A    between atoms: C_10  and  C_11 
ROOT
HETATM    1  C   UNL     1      39.523 -11.315   3.678  1.00  0.00     0.049 C 
HETATM    2  C   UNL     1      39.700 -12.802   3.826  1.00  0.00    -0.041 A 
HETATM    3  C   UNL     1      39.904 -13.408   5.076  1.00  0.00     0.081 A 
HETATM    4  C   UNL     1      40.110 -14.801   5.187  1.00  0.00     0.117 A 
HETATM    5  N   UNL     1      40.149 -15.507   4.042  1.00  0.00    -0.346 N 
HETATM    6  H   UNL     1      40.362 -16.496   4.108  1.00  0.00     0.167 HD
HETATM    7  C   UNL     1      39.963 -14.981   2.818  1.00  0.00     0.007 A 
HETATM    8  C   UNL     1      40.040 -15.881   1.626  1.00  0.00     0.068 C 
HETATM    9  C   UNL     1      39.732 -13.611   2.690  1.00  0.00     0.032 A 
ENDROOT
BRANCH   4  10
HETATM   10  N   UNL     1      40.388 -15.428   6.397  1.00  0.00    -0.375 N 
HETATM   11  H   UNL     1      39.746 -15.145   7.143  1.00  0.00     0.161 HD
BRANCH  10  12
HETATM   12  C   UNL     1      40.806 -16.823   6.489  1.00  0.00     0.126 C 
BRANCH  12  13
HETATM   13  C   UNL     1      42.311 -16.932   6.764  1.00  0.00     0.058 C 
BRANCH  13  14
HETATM   14  C   UNL     1      42.966 -17.848   5.760  1.00  0.00    -0.057 A 
HETATM   15  C   UNL     1      44.095 -18.600   6.123  1.00  0.00     0.010 A 
HETATM   16  C   UNL     1      44.735 -19.408   5.183  1.00  0.00     0.043 A 
HETATM   17  C   UNL     1      44.251 -19.463   3.882  1.00  0.00     0.116 A 
HETATM   18  F   UNL     1      44.873 -20.229   2.978  1.00  0.00    -0.206 F 
HETATM   19  C   UNL     1      43.132 -18.730   3.505  1.00  0.00     0.043 A 
HETATM   20  C   UNL     1      42.487 -17.922   4.442  1.00  0.00     0.010 A 
ENDBRANCH  13  14
ENDBRANCH  12  13
ENDBRANCH  10  12
ENDBRANCH   4  10
BRANCH   3  21
HETATM   21  C   UNL     1      39.980 -12.578   6.287  1.00  0.00     0.253 C 
HETATM   22  N   UNL     1      41.211 -12.078   6.603  1.00  0.00    -0.366 N 
HETATM   23  H   UNL     1      42.072 -12.487   6.262  1.00  0.00     0.159 HD
HETATM   24  H   UNL     1      41.271 -11.624   7.512  1.00  0.00     0.159 HD
HETATM   25  O   UNL     1      38.985 -12.372   6.960  1.00  0.00    -0.268 OA
ENDBRANCH   3  21
TORSDOF 5
ENDMDL
