MODEL 1
REMARK VINA RESULT:      -7.7      0.000      0.000
REMARK  4 active torsions:
REMARK  status: ('A' for Active; 'I' for Inactive)
REMARK    1  A    between atoms: S_2  and  N_3 
REMARK    2  A    between atoms: N_3  and  N_4 
REMARK    3  A    between atoms: C_10  and  C_11 
REMARK    4  A    between atoms: C_12  and  O_13 
ROOT
HETATM    1  N   UNL     1      42.682 -16.679   6.010  1.00  0.00    -0.241 N 
HETATM    2  C   UNL     1      42.982 -15.343   6.213  1.00  0.00     0.272 C 
HETATM    3  O   UNL     1      43.866 -14.982   6.988  1.00  0.00    -0.266 OA
HETATM    4  C   UNL     1      42.076 -14.375   5.574  1.00  0.00     0.054 A 
HETATM    5  C   UNL     1      40.845 -14.854   5.108  1.00  0.00     0.026 A 
HETATM    6  N   UNL     1      40.505 -16.233   5.158  1.00  0.00    -0.265 NA
HETATM    7  C   UNL     1      41.686 -17.124   5.029  1.00  0.00     0.219 C 
HETATM    8  C   UNL     1      42.367 -13.009   5.588  1.00  0.00     0.019 A 
HETATM    9  C   UNL     1      41.408 -12.101   5.142  1.00  0.00     0.001 A 
HETATM   10  C   UNL     1      40.160 -12.560   4.717  1.00  0.00     0.002 A 
HETATM   11  C   UNL     1      39.874 -13.929   4.717  1.00  0.00     0.024 A 
HETATM   12  H   UNL     1      40.100 -16.414   6.081  1.00  0.00     0.130 HD
ENDROOT
BRANCH   7  13
HETATM   13  C   UNL     1      42.192 -17.178   3.584  1.00  0.00     0.014 A 
HETATM   14  C   UNL     1      41.332 -17.185   2.471  1.00  0.00     0.075 A 
HETATM   15  C   UNL     1      41.815 -17.296   1.166  1.00  0.00     0.037 A 
HETATM   16  C   UNL     1      43.180 -17.433   0.936  1.00  0.00     0.003 A 
HETATM   17  C   UNL     1      44.055 -17.464   2.014  1.00  0.00     0.001 A 
HETATM   18  C   UNL     1      43.567 -17.341   3.320  1.00  0.00     0.013 A 
BRANCH  14  19
HETATM   19  O   UNL     1      39.971 -17.090   2.584  1.00  0.00    -0.360 OA
HETATM   20  H   UNL     1      39.694 -17.718   3.283  1.00  0.00     0.217 HD
ENDBRANCH  14  19
ENDBRANCH   7  13
BRANCH   1  21
HETATM   21  N   UNL     1      42.874 -17.527   7.220  1.00  0.00    -0.123 NA
HETATM   22  H   UNL     1      42.724 -17.001   8.093  1.00  0.00     0.165 HD
BRANCH  21  23
HETATM   23  S   UNL     1      44.252 -18.506   7.348  1.00  0.00     0.222 S 
HETATM   24  C   UNL     1      43.721 -19.957   6.462  1.00  0.00     0.181 C 
HETATM   25  O   UNL     1      44.447 -18.853   8.737  1.00  0.00    -0.210 OA
HETATM   26  O   UNL     1      45.290 -17.865   6.573  1.00  0.00    -0.210 OA
ENDBRANCH  21  23
ENDBRANCH   1  21
TORSDOF 4
ENDMDL
MODEL 2
REMARK VINA RESULT:      -7.6      2.603      6.113
REMARK  4 active torsions:
REMARK  status: ('A' for Active; 'I' for Inactive)
REMARK    1  A    between atoms: S_2  and  N_3 
REMARK    2  A    between atoms: N_3  and  N_4 
REMARK    3  A    between atoms: C_10  and  C_11 
REMARK    4  A    between atoms: C_12  and  O_13 
ROOT
HETATM    1  N   UNL     1      41.678 -16.888   3.544  1.00  0.00    -0.241 N 
HETATM    2  C   UNL     1      42.523 -17.666   2.772  1.00  0.00     0.272 C 
HETATM    3  O   UNL     1      42.472 -17.665   1.543  1.00  0.00    -0.266 OA
HETATM    4  C   UNL     1      43.376 -18.615   3.506  1.00  0.00     0.054 A 
HETATM    5  C   UNL     1      43.043 -18.882   4.840  1.00  0.00     0.026 A 
HETATM    6  N   UNL     1      41.985 -18.204   5.503  1.00  0.00    -0.265 NA
HETATM    7  C   UNL     1      41.784 -16.819   5.006  1.00  0.00     0.219 C 
HETATM    8  C   UNL     1      44.368 -19.342   2.844  1.00  0.00     0.019 A 
HETATM    9  C   UNL     1      45.033 -20.363   3.520  1.00  0.00     0.001 A 
HETATM   10  C   UNL     1      44.682 -20.671   4.836  1.00  0.00     0.002 A 
HETATM   11  C   UNL     1      43.679 -19.945   5.486  1.00  0.00     0.024 A 
HETATM   12  H   UNL     1      41.121 -18.716   5.302  1.00  0.00     0.130 HD
ENDROOT
BRANCH   7  13
HETATM   13  C   UNL     1      42.875 -15.875   5.523  1.00  0.00     0.014 A 
HETATM   14  C   UNL     1      43.377 -15.931   6.836  1.00  0.00     0.075 A 
HETATM   15  C   UNL     1      44.326 -15.021   7.302  1.00  0.00     0.037 A 
HETATM   16  C   UNL     1      44.783 -14.002   6.473  1.00  0.00     0.003 A 
HETATM   17  C   UNL     1      44.284 -13.896   5.181  1.00  0.00     0.001 A 
HETATM   18  C   UNL     1      43.340 -14.818   4.715  1.00  0.00     0.013 A 
BRANCH  14  19
HETATM   19  O   UNL     1      42.972 -16.871   7.746  1.00  0.00    -0.360 OA
HETATM   20  H   UNL     1      42.418 -16.411   8.409  1.00  0.00     0.217 HD
ENDBRANCH  14  19
ENDBRANCH   7  13
BRANCH   1  21
HETATM   21  N   UNL     1      40.325 -16.700   2.949  1.00  0.00    -0.123 NA
HETATM   22  H   UNL     1      40.168 -17.312   2.135  1.00  0.00     0.165 HD
BRANCH  21  23
HETATM   23  S   UNL     1      39.758 -15.134   2.630  1.00  0.00     0.222 S 
HETATM   24  C   UNL     1      41.081 -14.493   1.624  1.00  0.00     0.181 C 
HETATM   25  O   UNL     1      39.716 -14.395   3.871  1.00  0.00    -0.210 OA
HETATM   26  O   UNL     1      38.589 -15.279   1.792  1.00  0.00    -0.210 OA
ENDBRANCH  21  23
ENDBRANCH   1  21
TORSDOF 4
ENDMDL
MODEL 3
REMARK VINA RESULT:      -7.4      3.399      5.915
REMARK  4 active torsions:
REMARK  status: ('A' for Active; 'I' for Inactive)
REMARK    1  A    between atoms: S_2  and  N_3 
REMARK    2  A    between atoms: N_3  and  N_4 
REMARK    3  A    between atoms: C_10  and  C_11 
REMARK    4  A    between atoms: C_12  and  O_13 
ROOT
HETATM    1  N   UNL     1      41.471 -13.431   4.017  1.00  0.00    -0.241 N 
HETATM    2  C   UNL     1      42.070 -13.746   2.810  1.00  0.00     0.272 C 
HETATM    3  O   UNL     1      42.680 -12.911   2.145  1.00  0.00    -0.266 OA
HETATM    4  C   UNL     1      41.798 -15.096   2.289  1.00  0.00     0.054 A 
HETATM    5  C   UNL     1      40.735 -15.806   2.861  1.00  0.00     0.026 A 
HETATM    6  N   UNL     1      39.996 -15.298   3.963  1.00  0.00    -0.265 NA
HETATM    7  C   UNL     1      40.811 -14.436   4.857  1.00  0.00     0.219 C 
HETATM    8  C   UNL     1      42.467 -15.573   1.159  1.00  0.00     0.019 A 
HETATM    9  C   UNL     1      42.060 -16.773   0.579  1.00  0.00     0.001 A 
HETATM   10  C   UNL     1      40.973 -17.470   1.111  1.00  0.00     0.002 A 
HETATM   11  C   UNL     1      40.303 -16.978   2.236  1.00  0.00     0.024 A 
HETATM   12  H   UNL     1      39.250 -14.706   3.584  1.00  0.00     0.130 HD
ENDROOT
BRANCH   7  13
HETATM   13  C   UNL     1      41.761 -15.269   5.724  1.00  0.00     0.014 A 
HETATM   14  C   UNL     1      41.348 -16.410   6.435  1.00  0.00     0.075 A 
HETATM   15  C   UNL     1      42.219 -17.116   7.266  1.00  0.00     0.037 A 
HETATM   16  C   UNL     1      43.530 -16.682   7.434  1.00  0.00     0.003 A 
HETATM   17  C   UNL     1      43.962 -15.539   6.774  1.00  0.00     0.001 A 
HETATM   18  C   UNL     1      43.088 -14.841   5.933  1.00  0.00     0.013 A 
BRANCH  14  19
HETATM   19  O   UNL     1      40.074 -16.905   6.368  1.00  0.00    -0.360 OA
HETATM   20  H   UNL     1      40.145 -17.864   6.187  1.00  0.00     0.217 HD
ENDBRANCH  14  19
ENDBRANCH   7  13
BRANCH   1  21
HETATM   21  N   UNL     1      40.945 -12.038   4.079  1.00  0.00    -0.123 NA
HETATM   22  H   UNL     1      41.264 -11.537   4.921  1.00  0.00     0.165 HD
BRANCH  21  23
HETATM   23  S   UNL     1      39.295 -11.751   3.809  1.00  0.00     0.222 S 
HETATM   24  C   UNL     1      39.337 -10.075   3.206  1.00  0.00     0.181 C 
HETATM   25  O   UNL     1      38.607 -11.773   5.079  1.00  0.00    -0.210 OA
HETATM   26  O   UNL     1      38.899 -12.609   2.715  1.00  0.00    -0.210 OA
ENDBRANCH  21  23
ENDBRANCH   1  21
TORSDOF 4
ENDMDL
MODEL 4
REMARK VINA RESULT:      -7.2      2.327      3.119
REMARK  4 active torsions:
REMARK  status: ('A' for Active; 'I' for Inactive)
REMARK    1  A    between atoms: S_2  and  N_3 
REMARK    2  A    between atoms: N_3  and  N_4 
REMARK    3  A    between atoms: C_10  and  C_11 
REMARK    4  A    between atoms: C_12  and  O_13 
ROOT
HETATM    1  N   UNL     1      42.630 -15.913   4.956  1.00  0.00    -0.241 N 
HETATM    2  C   UNL     1      42.790 -14.877   4.052  1.00  0.00     0.272 C 
HETATM    3  O   UNL     1      43.487 -13.895   4.300  1.00  0.00    -0.266 OA
HETATM    4  C   UNL     1      41.951 -14.940   2.845  1.00  0.00     0.054 A 
HETATM    5  C   UNL     1      40.865 -15.824   2.860  1.00  0.00     0.026 A 
HETATM    6  N   UNL     1      40.622 -16.701   3.952  1.00  0.00    -0.265 NA
HETATM    7  C   UNL     1      41.868 -17.125   4.641  1.00  0.00     0.219 C 
HETATM    8  C   UNL     1      42.134 -14.031   1.800  1.00  0.00     0.019 A 
HETATM    9  C   UNL     1      41.211 -13.994   0.756  1.00  0.00     0.001 A 
HETATM   10  C   UNL     1      40.099 -14.838   0.780  1.00  0.00     0.002 A 
HETATM   11  C   UNL     1      39.919 -15.736   1.836  1.00  0.00     0.024 A 
HETATM   12  H   UNL     1      40.067 -16.184   4.641  1.00  0.00     0.130 HD
ENDROOT
BRANCH   7  13
HETATM   13  C   UNL     1      42.634 -18.167   3.818  1.00  0.00     0.014 A 
HETATM   14  C   UNL     1      43.607 -19.017   4.374  1.00  0.00     0.075 A 
HETATM   15  C   UNL     1      44.336 -19.915   3.593  1.00  0.00     0.037 A 
HETATM   16  C   UNL     1      44.132 -19.969   2.218  1.00  0.00     0.003 A 
HETATM   17  C   UNL     1      43.203 -19.120   1.631  1.00  0.00     0.001 A 
HETATM   18  C   UNL     1      42.467 -18.229   2.420  1.00  0.00     0.013 A 
BRANCH  14  19
HETATM   19  O   UNL     1      43.912 -19.023   5.709  1.00  0.00    -0.360 OA
HETATM   20  H   UNL     1      44.165 -18.108   5.952  1.00  0.00     0.217 HD
ENDBRANCH  14  19
ENDBRANCH   7  13
BRANCH   1  21
HETATM   21  N   UNL     1      42.656 -15.475   6.380  1.00  0.00    -0.123 NA
HETATM   22  H   UNL     1      42.369 -14.492   6.492  1.00  0.00     0.165 HD
BRANCH  21  23
HETATM   23  S   UNL     1      44.018 -15.806   7.335  1.00  0.00     0.222 S 
HETATM   24  C   UNL     1      43.359 -17.026   8.454  1.00  0.00     0.181 C 
HETATM   25  O   UNL     1      44.357 -14.619   8.086  1.00  0.00    -0.210 OA
HETATM   26  O   UNL     1      44.978 -16.461   6.475  1.00  0.00    -0.210 OA
ENDBRANCH  21  23
ENDBRANCH   1  21
TORSDOF 4
ENDMDL
MODEL 5
REMARK VINA RESULT:      -7.1      3.651      6.891
REMARK  4 active torsions:
REMARK  status: ('A' for Active; 'I' for Inactive)
REMARK    1  A    between atoms: S_2  and  N_3 
REMARK    2  A    between atoms: N_3  and  N_4 
REMARK    3  A    between atoms: C_10  and  C_11 
REMARK    4  A    between atoms: C_12  and  O_13 
ROOT
HETATM    1  N   UNL     1      40.218 -15.042   1.388  1.00  0.00    -0.241 N 
HETATM    2  C   UNL     1      41.378 -15.517   0.802  1.00  0.00     0.272 C 
HETATM    3  O   UNL     1      41.668 -15.269  -0.368  1.00  0.00    -0.266 OA
HETATM    4  C   UNL     1      42.164 -16.468   1.604  1.00  0.00     0.054 A 
HETATM    5  C   UNL     1      41.536 -17.049   2.713  1.00  0.00     0.026 A 
HETATM    6  N   UNL     1      40.224 -16.679   3.116  1.00  0.00    -0.265 NA
HETATM    7  C   UNL     1      39.902 -15.263   2.804  1.00  0.00     0.219 C 
HETATM    8  C   UNL     1      43.423 -16.895   1.175  1.00  0.00     0.019 A 
HETATM    9  C   UNL     1      44.062 -17.930   1.854  1.00  0.00     0.001 A 
HETATM   10  C   UNL     1      43.429 -18.550   2.933  1.00  0.00     0.002 A 
HETATM   11  C   UNL     1      42.164 -18.122   3.349  1.00  0.00     0.024 A 
HETATM   12  H   UNL     1      39.567 -17.254   2.582  1.00  0.00     0.130 HD
ENDROOT
BRANCH   7  13
HETATM   13  C   UNL     1      40.601 -14.303   3.772  1.00  0.00     0.014 A 
HETATM   14  C   UNL     1      40.464 -14.389   5.169  1.00  0.00     0.075 A 
HETATM   15  C   UNL     1      41.062 -13.465   6.028  1.00  0.00     0.037 A 
HETATM   16  C   UNL     1      41.796 -12.404   5.509  1.00  0.00     0.003 A 
HETATM   17  C   UNL     1      41.924 -12.268   4.133  1.00  0.00     0.001 A 
HETATM   18  C   UNL     1      41.331 -13.203   3.277  1.00  0.00     0.013 A 
BRANCH  14  19
HETATM   19  O   UNL     1      39.737 -15.373   5.784  1.00  0.00    -0.360 OA
HETATM   20  H   UNL     1      39.136 -15.752   5.111  1.00  0.00     0.217 HD
ENDBRANCH  14  19
ENDBRANCH   7  13
BRANCH   1  21
HETATM   21  N   UNL     1      39.072 -14.927   0.444  1.00  0.00    -0.123 NA
HETATM   22  H   UNL     1      39.217 -15.478  -0.415  1.00  0.00     0.165 HD
BRANCH  21  23
HETATM   23  S   UNL     1      38.445 -13.397   0.067  1.00  0.00     0.222 S 
HETATM   24  C   UNL     1      38.183 -13.561  -1.688  1.00  0.00     0.181 C 
HETATM   25  O   UNL     1      39.471 -12.406   0.295  1.00  0.00    -0.210 OA
HETATM   26  O   UNL     1      37.150 -13.311   0.705  1.00  0.00    -0.210 OA
ENDBRANCH  21  23
ENDBRANCH   1  21
TORSDOF 4
ENDMDL
MODEL 6
REMARK VINA RESULT:      -7.1      2.924      6.034
REMARK  4 active torsions:
REMARK  status: ('A' for Active; 'I' for Inactive)
REMARK    1  A    between atoms: S_2  and  N_3 
REMARK    2  A    between atoms: N_3  and  N_4 
REMARK    3  A    between atoms: C_10  and  C_11 
REMARK    4  A    between atoms: C_12  and  O_13 
ROOT
HETATM    1  N   UNL     1      41.031 -14.776   3.483  1.00  0.00    -0.241 N 
HETATM    2  C   UNL     1      41.743 -15.056   2.330  1.00  0.00     0.272 C 
HETATM    3  O   UNL     1      41.716 -14.315   1.349  1.00  0.00    -0.266 OA
HETATM    4  C   UNL     1      42.406 -16.370   2.284  1.00  0.00     0.054 A 
HETATM    5  C   UNL     1      42.007 -17.326   3.226  1.00  0.00     0.026 A 
HETATM    6  N   UNL     1      41.069 -17.029   4.252  1.00  0.00    -0.265 NA
HETATM    7  C   UNL     1      41.120 -15.610   4.687  1.00  0.00     0.219 C 
HETATM    8  C   UNL     1      43.271 -16.697   1.237  1.00  0.00     0.019 A 
HETATM    9  C   UNL     1      43.737 -18.005   1.118  1.00  0.00     0.001 A 
HETATM   10  C   UNL     1      43.312 -18.980   2.024  1.00  0.00     0.002 A 
HETATM   11  C   UNL     1      42.438 -18.645   3.062  1.00  0.00     0.024 A 
HETATM   12  H   UNL     1      40.133 -17.184   3.864  1.00  0.00     0.130 HD
ENDROOT
BRANCH   7  13
HETATM   13  C   UNL     1      42.346 -15.337   5.564  1.00  0.00     0.014 A 
HETATM   14  C   UNL     1      42.718 -16.163   6.640  1.00  0.00     0.075 A 
HETATM   15  C   UNL     1      43.804 -15.859   7.463  1.00  0.00     0.037 A 
HETATM   16  C   UNL     1      44.539 -14.698   7.248  1.00  0.00     0.003 A 
HETATM   17  C   UNL     1      44.179 -13.842   6.216  1.00  0.00     0.001 A 
HETATM   18  C   UNL     1      43.096 -14.156   5.388  1.00  0.00     0.013 A 
BRANCH  14  19
HETATM   19  O   UNL     1      42.046 -17.311   6.961  1.00  0.00    -0.360 OA
HETATM   20  H   UNL     1      41.898 -17.802   6.127  1.00  0.00     0.217 HD
ENDBRANCH  14  19
ENDBRANCH   7  13
BRANCH   1  21
HETATM   21  N   UNL     1      39.742 -14.071   3.236  1.00  0.00    -0.123 NA
HETATM   22  H   UNL     1      39.378 -14.244   2.287  1.00  0.00     0.165 HD
BRANCH  21  23
HETATM   23  S   UNL     1      39.592 -12.431   3.637  1.00  0.00     0.222 S 
HETATM   24  C   UNL     1      39.198 -12.541   5.371  1.00  0.00     0.181 C 
HETATM   25  O   UNL     1      38.454 -11.883   2.934  1.00  0.00    -0.210 OA
HETATM   26  O   UNL     1      40.911 -11.852   3.515  1.00  0.00    -0.210 OA
ENDBRANCH  21  23
ENDBRANCH   1  21
TORSDOF 4
ENDMDL
MODEL 7
REMARK VINA RESULT:      -6.7      2.570      4.716
REMARK  4 active torsions:
REMARK  status: ('A' for Active; 'I' for Inactive)
REMARK    1  A    between atoms: S_2  and  N_3 
REMARK    2  A    between atoms: N_3  and  N_4 
REMARK    3  A    between atoms: C_10  and  C_11 
REMARK    4  A    between atoms: C_12  and  O_13 
ROOT
HETATM    1  N   UNL     1      42.153 -15.159   4.978  1.00  0.00    -0.241 N 
HETATM    2  C   UNL     1      42.045 -16.532   4.848  1.00  0.00     0.272 C 
HETATM    3  O   UNL     1      41.671 -17.249   5.776  1.00  0.00    -0.266 OA
HETATM    4  C   UNL     1      42.555 -17.104   3.592  1.00  0.00     0.054 A 
HETATM    5  C   UNL     1      43.378 -16.291   2.802  1.00  0.00     0.026 A 
HETATM    6  N   UNL     1      43.644 -14.936   3.136  1.00  0.00    -0.265 NA
HETATM    7  C   UNL     1      42.518 -14.287   3.856  1.00  0.00     0.219 C 
HETATM    8  C   UNL     1      42.363 -18.454   3.292  1.00  0.00     0.019 A 
HETATM    9  C   UNL     1      43.013 -19.010   2.191  1.00  0.00     0.001 A 
HETATM   10  C   UNL     1      43.871 -18.223   1.420  1.00  0.00     0.002 A 
HETATM   11  C   UNL     1      44.065 -16.875   1.735  1.00  0.00     0.024 A 
HETATM   12  H   UNL     1      44.444 -14.931   3.776  1.00  0.00     0.130 HD
ENDROOT
BRANCH   7  13
HETATM   13  C   UNL     1      41.364 -13.951   2.905  1.00  0.00     0.014 A 
HETATM   14  C   UNL     1      41.476 -13.008   1.868  1.00  0.00     0.075 A 
HETATM   15  C   UNL     1      40.393 -12.675   1.054  1.00  0.00     0.037 A 
HETATM   16  C   UNL     1      39.149 -13.258   1.273  1.00  0.00     0.003 A 
HETATM   17  C   UNL     1      38.994 -14.168   2.310  1.00  0.00     0.001 A 
HETATM   18  C   UNL     1      40.086 -14.507   3.117  1.00  0.00     0.013 A 
BRANCH  14  19
HETATM   19  O   UNL     1      42.643 -12.350   1.586  1.00  0.00    -0.360 OA
HETATM   20  H   UNL     1      42.735 -12.328   0.611  1.00  0.00     0.217 HD
ENDBRANCH  14  19
ENDBRANCH   7  13
BRANCH   1  21
HETATM   21  N   UNL     1      42.548 -14.714   6.344  1.00  0.00    -0.123 NA
HETATM   22  H   UNL     1      42.005 -13.898   6.661  1.00  0.00     0.165 HD
BRANCH  21  23
HETATM   23  S   UNL     1      44.190 -14.517   6.720  1.00  0.00     0.222 S 
HETATM   24  C   UNL     1      44.767 -16.199   6.609  1.00  0.00     0.181 C 
HETATM   25  O   UNL     1      44.301 -14.075   8.092  1.00  0.00    -0.210 OA
HETATM   26  O   UNL     1      44.778 -13.770   5.631  1.00  0.00    -0.210 OA
ENDBRANCH  21  23
ENDBRANCH   1  21
TORSDOF 4
ENDMDL
MODEL 8
REMARK VINA RESULT:      -6.7      2.693      5.126
REMARK  4 active torsions:
REMARK  status: ('A' for Active; 'I' for Inactive)
REMARK    1  A    between atoms: S_2  and  N_3 
REMARK    2  A    between atoms: N_3  and  N_4 
REMARK    3  A    between atoms: C_10  and  C_11 
REMARK    4  A    between atoms: C_12  and  O_13 
ROOT
HETATM    1  N   UNL     1      42.018 -14.534   5.488  1.00  0.00    -0.241 N 
HETATM    2  C   UNL     1      42.465 -14.251   4.209  1.00  0.00     0.272 C 
HETATM    3  O   UNL     1      43.009 -13.185   3.928  1.00  0.00    -0.266 OA
HETATM    4  C   UNL     1      42.107 -15.230   3.170  1.00  0.00     0.054 A 
HETATM    5  C   UNL     1      41.104 -16.158   3.478  1.00  0.00     0.026 A 
HETATM    6  N   UNL     1      40.509 -16.228   4.766  1.00  0.00    -0.265 NA
HETATM    7  C   UNL     1      41.441 -15.832   5.854  1.00  0.00     0.219 C 
HETATM    8  C   UNL     1      42.628 -15.124   1.879  1.00  0.00     0.019 A 
HETATM    9  C   UNL     1      42.132 -15.948   0.871  1.00  0.00     0.001 A 
HETATM   10  C   UNL     1      41.101 -16.847   1.151  1.00  0.00     0.002 A 
HETATM   11  C   UNL     1      40.578 -16.939   2.445  1.00  0.00     0.024 A 
HETATM   12  H   UNL     1      39.737 -15.556   4.783  1.00  0.00     0.130 HD
ENDROOT
BRANCH   7  13
HETATM   13  C   UNL     1      42.470 -16.932   6.137  1.00  0.00     0.014 A 
HETATM   14  C   UNL     1      43.548 -16.762   7.024  1.00  0.00     0.075 A 
HETATM   15  C   UNL     1      44.507 -17.758   7.218  1.00  0.00     0.037 A 
HETATM   16  C   UNL     1      44.431 -18.949   6.505  1.00  0.00     0.003 A 
HETATM   17  C   UNL     1      43.398 -19.137   5.596  1.00  0.00     0.001 A 
HETATM   18  C   UNL     1      42.433 -18.140   5.412  1.00  0.00     0.013 A 
BRANCH  14  19
HETATM   19  O   UNL     1      43.738 -15.618   7.751  1.00  0.00    -0.360 OA
HETATM   20  H   UNL     1      44.191 -15.875   8.581  1.00  0.00     0.217 HD
ENDBRANCH  14  19
ENDBRANCH   7  13
BRANCH   1  21
HETATM   21  N   UNL     1      41.531 -13.338   6.231  1.00  0.00    -0.123 NA
HETATM   22  H   UNL     1      41.651 -13.435   7.250  1.00  0.00     0.165 HD
BRANCH  21  23
HETATM   23  S   UNL     1      40.004 -12.693   5.875  1.00  0.00     0.222 S 
HETATM   24  C   UNL     1      40.445 -11.047   5.355  1.00  0.00     0.181 C 
HETATM   25  O   UNL     1      39.239 -12.607   7.098  1.00  0.00    -0.210 OA
HETATM   26  O   UNL     1      39.511 -13.408   4.720  1.00  0.00    -0.210 OA
ENDBRANCH  21  23
ENDBRANCH   1  21
TORSDOF 4
ENDMDL
MODEL 9
REMARK VINA RESULT:      -6.5      5.799      7.874
REMARK  4 active torsions:
REMARK  status: ('A' for Active; 'I' for Inactive)
REMARK    1  A    between atoms: S_2  and  N_3 
REMARK    2  A    between atoms: N_3  and  N_4 
REMARK    3  A    between atoms: C_10  and  C_11 
REMARK    4  A    between atoms: C_12  and  O_13 
ROOT
HETATM    1  N   UNL     1      40.605 -13.340   0.033  1.00  0.00    -0.241 N 
HETATM    2  C   UNL     1      39.335 -13.516  -0.489  1.00  0.00     0.272 C 
HETATM    3  O   UNL     1      38.322 -13.238   0.150  1.00  0.00    -0.266 OA
HETATM    4  C   UNL     1      39.261 -14.206  -1.787  1.00  0.00     0.054 A 
HETATM    5  C   UNL     1      40.402 -14.896  -2.216  1.00  0.00     0.026 A 
HETATM    6  N   UNL     1      41.621 -14.866  -1.486  1.00  0.00    -0.265 NA
HETATM    7  C   UNL     1      41.821 -13.592  -0.748  1.00  0.00     0.219 C 
HETATM    8  C   UNL     1      38.050 -14.306  -2.475  1.00  0.00     0.019 A 
HETATM    9  C   UNL     1      37.969 -15.119  -3.604  1.00  0.00     0.001 A 
HETATM   10  C   UNL     1      39.085 -15.848  -4.018  1.00  0.00     0.002 A 
HETATM   11  C   UNL     1      40.291 -15.750  -3.316  1.00  0.00     0.024 A 
HETATM   12  H   UNL     1      41.573 -15.608  -0.782  1.00  0.00     0.130 HD
ENDROOT
BRANCH   7  13
HETATM   13  C   UNL     1      42.220 -12.454  -1.695  1.00  0.00     0.014 A 
HETATM   14  C   UNL     1      42.738 -11.227  -1.242  1.00  0.00     0.075 A 
HETATM   15  C   UNL     1      43.036 -10.184  -2.120  1.00  0.00     0.037 A 
HETATM   16  C   UNL     1      42.797 -10.328  -3.482  1.00  0.00     0.003 A 
HETATM   17  C   UNL     1      42.254 -11.514  -3.960  1.00  0.00     0.001 A 
HETATM   18  C   UNL     1      41.967 -12.561  -3.077  1.00  0.00     0.013 A 
BRANCH  14  19
HETATM   19  O   UNL     1      42.980 -10.966   0.080  1.00  0.00    -0.360 OA
HETATM   20  H   UNL     1      42.677 -11.746   0.589  1.00  0.00     0.217 HD
ENDBRANCH  14  19
ENDBRANCH   7  13
BRANCH   1  21
HETATM   21  N   UNL     1      40.684 -13.555   1.505  1.00  0.00    -0.123 NA
HETATM   22  H   UNL     1      41.151 -12.774   1.989  1.00  0.00     0.165 HD
BRANCH  21  23
HETATM   23  S   UNL     1      41.236 -15.041   2.108  1.00  0.00     0.222 S 
HETATM   24  C   UNL     1      40.457 -15.067   3.710  1.00  0.00     0.181 C 
HETATM   25  O   UNL     1      42.668 -14.965   2.287  1.00  0.00    -0.210 OA
HETATM   26  O   UNL     1      40.625 -16.070   1.297  1.00  0.00    -0.210 OA
ENDBRANCH  21  23
ENDBRANCH   1  21
TORSDOF 4
ENDMDL
MODEL 10
REMARK VINA RESULT:      -6.3      3.645      5.720
REMARK  4 active torsions:
REMARK  status: ('A' for Active; 'I' for Inactive)
REMARK    1  A    between atoms: S_2  and  N_3 
REMARK    2  A    between atoms: N_3  and  N_4 
REMARK    3  A    between atoms: C_10  and  C_11 
REMARK    4  A    between atoms: C_12  and  O_13 
ROOT
HETATM    1  N   UNL     1      40.901 -13.785   5.012  1.00  0.00    -0.241 N 
HETATM    2  C   UNL     1      40.810 -15.153   5.201  1.00  0.00     0.272 C 
HETATM    3  O   UNL     1      40.161 -15.644   6.124  1.00  0.00    -0.266 OA
HETATM    4  C   UNL     1      41.663 -15.982   4.334  1.00  0.00     0.054 A 
HETATM    5  C   UNL     1      42.700 -15.339   3.647  1.00  0.00     0.026 A 
HETATM    6  N   UNL     1      42.880 -13.931   3.698  1.00  0.00    -0.265 NA
HETATM    7  C   UNL     1      41.603 -13.191   3.869  1.00  0.00     0.219 C 
HETATM    8  C   UNL     1      41.544 -17.373   4.335  1.00  0.00     0.019 A 
HETATM    9  C   UNL     1      42.483 -18.141   3.650  1.00  0.00     0.001 A 
HETATM   10  C   UNL     1      43.548 -17.518   2.997  1.00  0.00     0.002 A 
HETATM   11  C   UNL     1      43.665 -16.124   3.011  1.00  0.00     0.024 A 
HETATM   12  H   UNL     1      43.451 -13.726   4.524  1.00  0.00     0.130 HD
ENDROOT
BRANCH   7  13
HETATM   13  C   UNL     1      40.795 -13.161   2.567  1.00  0.00     0.014 A 
HETATM   14  C   UNL     1      41.281 -12.593   1.376  1.00  0.00     0.075 A 
HETATM   15  C   UNL     1      40.503 -12.523   0.220  1.00  0.00     0.037 A 
HETATM   16  C   UNL     1      39.195 -12.998   0.230  1.00  0.00     0.003 A 
HETATM   17  C   UNL     1      38.671 -13.535   1.398  1.00  0.00     0.001 A 
HETATM   18  C   UNL     1      39.459 -13.612   2.552  1.00  0.00     0.013 A 
BRANCH  14  19
HETATM   19  O   UNL     1      42.540 -12.067   1.265  1.00  0.00    -0.360 OA
HETATM   20  H   UNL     1      42.905 -11.997   2.171  1.00  0.00     0.217 HD
ENDBRANCH  14  19
ENDBRANCH   7  13
BRANCH   1  21
HETATM   21  N   UNL     1      40.876 -13.001   6.279  1.00  0.00    -0.123 NA
HETATM   22  H   UNL     1      41.109 -13.579   7.100  1.00  0.00     0.165 HD
BRANCH  21  23
HETATM   23  S   UNL     1      39.554 -11.996   6.618  1.00  0.00     0.222 S 
HETATM   24  C   UNL     1      40.339 -10.397   6.634  1.00  0.00     0.181 C 
HETATM   25  O   UNL     1      39.075 -12.293   7.949  1.00  0.00    -0.210 OA
HETATM   26  O   UNL     1      38.682 -12.054   5.467  1.00  0.00    -0.210 OA
ENDBRANCH  21  23
ENDBRANCH   1  21
TORSDOF 4
ENDMDL
