MODEL 1
REMARK VINA RESULT:      -7.6      0.000      0.000
REMARK  6 active torsions:
REMARK  status: ('A' for Active; 'I' for Inactive)
REMARK    1  A    between atoms: C_2  and  C_3 
REMARK    2  A    between atoms: C_3  and  N_4 
REMARK    3  A    between atoms: C_3  and  C_15 
REMARK       I    between atoms: N_4  and  C_5 
REMARK    4  A    between atoms: C_5  and  C_6 
REMARK    5  A    between atoms: C_6  and  C_7 
REMARK    6  A    between atoms: C_16  and  O_17 
ROOT
HETATM    1  C   UNL     1      42.485 -18.154   2.612  1.00  0.00     0.128 C 
ENDROOT
BRANCH   1   2
HETATM    2  C   UNL     1      43.107 -17.063   1.657  1.00  0.00    -0.026 C 
HETATM    3  C   UNL     1      42.161 -16.644   0.515  1.00  0.00     0.016 C 
HETATM    4  C   UNL     1      44.404 -17.606   1.015  1.00  0.00     0.016 C 
HETATM    5  C   UNL     1      43.493 -15.799   2.457  1.00  0.00     0.016 C 
ENDBRANCH   1   2
BRANCH   1   6
HETATM    6  N   UNL     1      42.250 -17.646   3.970  1.00  0.00    -0.351 N 
HETATM    7  C   UNL     1      41.109 -16.959   4.335  1.00  0.00     0.222 C 
HETATM    8  O   UNL     1      40.226 -16.645   3.545  1.00  0.00    -0.273 OA
HETATM    9  H   UNL     1      42.948 -17.836   4.673  1.00  0.00     0.163 HD
BRANCH   7  10
HETATM   10  C   UNL     1      41.085 -16.599   5.813  1.00  0.00     0.142 C 
BRANCH  10  11
HETATM   11  C   UNL     1      42.203 -15.711   6.304  1.00  0.00    -0.032 A 
HETATM   12  C   UNL     1      43.163 -16.143   7.218  1.00  0.00     0.126 A 
HETATM   13  N   UNL     1      44.220 -15.400   7.620  1.00  0.00    -0.248 NA
HETATM   14  C   UNL     1      44.323 -14.167   7.090  1.00  0.00     0.125 A 
HETATM   15 CL   UNL     1      45.676 -13.263   7.631  1.00  0.00    -0.063 Cl
HETATM   16  C   UNL     1      43.439 -13.637   6.169  1.00  0.00     0.045 A 
HETATM   17  C   UNL     1      42.367 -14.428   5.766  1.00  0.00     0.012 A 
ENDBRANCH  10  11
ENDBRANCH   7  10
ENDBRANCH   1   6
BRANCH   1  18
HETATM   18  C   UNL     1      43.271 -19.471   2.692  1.00  0.00    -0.001 A 
HETATM   19  C   UNL     1      44.267 -19.660   3.677  1.00  0.00     0.076 A 
HETATM   20  C   UNL     1      44.976 -20.868   3.731  1.00  0.00     0.037 A 
HETATM   21  C   UNL     1      44.711 -21.890   2.820  1.00  0.00     0.003 A 
HETATM   22  C   UNL     1      43.734 -21.719   1.849  1.00  0.00     0.001 A 
HETATM   23  C   UNL     1      43.020 -20.522   1.786  1.00  0.00     0.012 A 
BRANCH  19  24
HETATM   24  O   UNL     1      44.459 -18.623   4.552  1.00  0.00    -0.355 OA
HETATM   25  C   UNL     1      45.053 -18.915   5.810  1.00  0.00     0.210 C 
ENDBRANCH  19  24
ENDBRANCH   1  18
TORSDOF 6
ENDMDL
MODEL 2
REMARK VINA RESULT:      -7.4      2.690      5.930
REMARK  6 active torsions:
REMARK  status: ('A' for Active; 'I' for Inactive)
REMARK    1  A    between atoms: C_2  and  C_3 
REMARK    2  A    between atoms: C_3  and  N_4 
REMARK    3  A    between atoms: C_3  and  C_15 
REMARK       I    between atoms: N_4  and  C_5 
REMARK    4  A    between atoms: C_5  and  C_6 
REMARK    5  A    between atoms: C_6  and  C_7 
REMARK    6  A    between atoms: C_16  and  O_17 
ROOT
HETATM    1  C   UNL     1      42.352 -14.932   3.319  1.00  0.00     0.128 C 
ENDROOT
BRANCH   1   2
HETATM    2  C   UNL     1      40.983 -14.149   3.265  1.00  0.00    -0.026 C 
HETATM    3  C   UNL     1      40.572 -13.547   4.622  1.00  0.00     0.016 C 
HETATM    4  C   UNL     1      39.852 -15.103   2.816  1.00  0.00     0.016 C 
HETATM    5  C   UNL     1      41.051 -13.008   2.227  1.00  0.00     0.016 C 
ENDBRANCH   1   2
BRANCH   1   6
HETATM    6  N   UNL     1      42.231 -16.312   2.833  1.00  0.00    -0.351 N 
HETATM    7  C   UNL     1      43.217 -16.948   2.105  1.00  0.00     0.222 C 
HETATM    8  O   UNL     1      44.247 -16.396   1.734  1.00  0.00    -0.273 OA
HETATM    9  H   UNL     1      41.395 -16.826   3.070  1.00  0.00     0.163 HD
BRANCH   7  10
HETATM   10  C   UNL     1      42.870 -18.392   1.777  1.00  0.00     0.142 C 
BRANCH  10  11
HETATM   11  C   UNL     1      43.571 -19.452   2.593  1.00  0.00    -0.032 A 
HETATM   12  C   UNL     1      43.928 -19.261   3.927  1.00  0.00     0.126 A 
HETATM   13  N   UNL     1      44.487 -20.215   4.709  1.00  0.00    -0.248 NA
HETATM   14  C   UNL     1      44.704 -21.412   4.132  1.00  0.00     0.125 A 
HETATM   15 CL   UNL     1      45.415 -22.586   5.160  1.00  0.00    -0.063 Cl
HETATM   16  C   UNL     1      44.380 -21.718   2.824  1.00  0.00     0.045 A 
HETATM   17  C   UNL     1      43.797 -20.721   2.047  1.00  0.00     0.012 A 
ENDBRANCH  10  11
ENDBRANCH   7  10
ENDBRANCH   1   6
BRANCH   1  18
HETATM   18  C   UNL     1      43.044 -14.936   4.690  1.00  0.00    -0.001 A 
HETATM   19  C   UNL     1      42.692 -15.887   5.675  1.00  0.00     0.076 A 
HETATM   20  C   UNL     1      43.332 -15.871   6.921  1.00  0.00     0.037 A 
HETATM   21  C   UNL     1      44.316 -14.924   7.205  1.00  0.00     0.003 A 
HETATM   22  C   UNL     1      44.673 -13.985   6.247  1.00  0.00     0.001 A 
HETATM   23  C   UNL     1      44.044 -13.992   5.001  1.00  0.00     0.012 A 
BRANCH  19  24
HETATM   24  O   UNL     1      41.733 -16.800   5.321  1.00  0.00    -0.355 OA
HETATM   25  C   UNL     1      40.636 -16.990   6.205  1.00  0.00     0.210 C 
ENDBRANCH  19  24
ENDBRANCH   1  18
TORSDOF 6
ENDMDL
MODEL 3
REMARK VINA RESULT:      -7.4      2.885      5.303
REMARK  6 active torsions:
REMARK  status: ('A' for Active; 'I' for Inactive)
REMARK    1  A    between atoms: C_2  and  C_3 
REMARK    2  A    between atoms: C_3  and  N_4 
REMARK    3  A    between atoms: C_3  and  C_15 
REMARK       I    between atoms: N_4  and  C_5 
REMARK    4  A    between atoms: C_5  and  C_6 
REMARK    5  A    between atoms: C_6  and  C_7 
REMARK    6  A    between atoms: C_16  and  O_17 
ROOT
HETATM    1  C   UNL     1      42.186 -15.447   4.659  1.00  0.00     0.128 C 
ENDROOT
BRANCH   1   2
HETATM    2  C   UNL     1      42.600 -13.928   4.761  1.00  0.00    -0.026 C 
HETATM    3  C   UNL     1      42.821 -13.265   3.388  1.00  0.00     0.016 C 
HETATM    4  C   UNL     1      43.917 -13.796   5.560  1.00  0.00     0.016 C 
HETATM    5  C   UNL     1      41.526 -13.122   5.522  1.00  0.00     0.016 C 
ENDBRANCH   1   2
BRANCH   1   6
HETATM    6  N   UNL     1      42.900 -16.291   5.626  1.00  0.00    -0.351 N 
HETATM    7  C   UNL     1      42.267 -16.989   6.635  1.00  0.00     0.222 C 
HETATM    8  O   UNL     1      41.065 -16.910   6.863  1.00  0.00    -0.273 OA
HETATM    9  H   UNL     1      43.900 -16.383   5.525  1.00  0.00     0.163 HD
BRANCH   7  10
HETATM   10  C   UNL     1      43.226 -17.836   7.458  1.00  0.00     0.142 C 
BRANCH  10  11
HETATM   11  C   UNL     1      43.763 -19.079   6.793  1.00  0.00    -0.032 A 
HETATM   12  C   UNL     1      43.494 -20.363   7.265  1.00  0.00     0.126 A 
HETATM   13  N   UNL     1      43.894 -21.500   6.650  1.00  0.00    -0.248 NA
HETATM   14  C   UNL     1      44.599 -21.351   5.513  1.00  0.00     0.125 A 
HETATM   15 CL   UNL     1      45.086 -22.818   4.771  1.00  0.00    -0.063 Cl
HETATM   16  C   UNL     1      44.915 -20.131   4.945  1.00  0.00     0.045 A 
HETATM   17  C   UNL     1      44.482 -18.979   5.594  1.00  0.00     0.012 A 
ENDBRANCH  10  11
ENDBRANCH   7  10
ENDBRANCH   1   6
BRANCH   1  18
HETATM   18  C   UNL     1      42.311 -16.063   3.258  1.00  0.00    -0.001 A 
HETATM   19  C   UNL     1      41.199 -16.112   2.388  1.00  0.00     0.076 A 
HETATM   20  C   UNL     1      41.333 -16.682   1.115  1.00  0.00     0.037 A 
HETATM   21  C   UNL     1      42.555 -17.206   0.694  1.00  0.00     0.003 A 
HETATM   22  C   UNL     1      43.656 -17.163   1.538  1.00  0.00     0.001 A 
HETATM   23  C   UNL     1      43.537 -16.596   2.807  1.00  0.00     0.012 A 
BRANCH  19  24
HETATM   24  O   UNL     1      40.036 -15.560   2.858  1.00  0.00    -0.355 OA
HETATM   25  C   UNL     1      39.137 -14.997   1.912  1.00  0.00     0.210 C 
ENDBRANCH  19  24
ENDBRANCH   1  18
TORSDOF 6
ENDMDL
MODEL 4
REMARK VINA RESULT:      -7.3      2.522      4.378
REMARK  6 active torsions:
REMARK  status: ('A' for Active; 'I' for Inactive)
REMARK    1  A    between atoms: C_2  and  C_3 
REMARK    2  A    between atoms: C_3  and  N_4 
REMARK    3  A    between atoms: C_3  and  C_15 
REMARK       I    between atoms: N_4  and  C_5 
REMARK    4  A    between atoms: C_5  and  C_6 
REMARK    5  A    between atoms: C_6  and  C_7 
REMARK    6  A    between atoms: C_16  and  O_17 
ROOT
HETATM    1  C   UNL     1      42.786 -16.144   5.393  1.00  0.00     0.128 C 
ENDROOT
BRANCH   1   2
HETATM    2  C   UNL     1      41.275 -15.692   5.372  1.00  0.00    -0.026 C 
HETATM    3  C   UNL     1      41.077 -14.211   5.750  1.00  0.00     0.016 C 
HETATM    4  C   UNL     1      40.459 -16.542   6.373  1.00  0.00     0.016 C 
HETATM    5  C   UNL     1      40.658 -15.923   3.975  1.00  0.00     0.016 C 
ENDBRANCH   1   2
BRANCH   1   6
HETATM    6  N   UNL     1      43.698 -15.045   5.736  1.00  0.00    -0.351 N 
HETATM    7  C   UNL     1      44.285 -14.907   6.978  1.00  0.00     0.222 C 
HETATM    8  O   UNL     1      44.042 -15.644   7.927  1.00  0.00    -0.273 OA
HETATM    9  H   UNL     1      43.924 -14.376   5.015  1.00  0.00     0.163 HD
BRANCH   7  10
HETATM   10  C   UNL     1      45.235 -13.721   7.053  1.00  0.00     0.142 C 
BRANCH  10  11
HETATM   11  C   UNL     1      44.901 -12.660   8.074  1.00  0.00    -0.032 A 
HETATM   12  C   UNL     1      43.673 -12.003   8.103  1.00  0.00     0.126 A 
HETATM   13  N   UNL     1      43.312 -11.104   9.049  1.00  0.00    -0.248 NA
HETATM   14  C   UNL     1      44.222 -10.845  10.007  1.00  0.00     0.125 A 
HETATM   15 CL   UNL     1      43.722  -9.699  11.181  1.00  0.00    -0.063 Cl
HETATM   16  C   UNL     1      45.465 -11.444  10.086  1.00  0.00     0.045 A 
HETATM   17  C   UNL     1      45.804 -12.371   9.105  1.00  0.00     0.012 A 
ENDBRANCH  10  11
ENDBRANCH   7  10
ENDBRANCH   1   6
BRANCH   1  18
HETATM   18  C   UNL     1      43.278 -16.828   4.109  1.00  0.00    -0.001 A 
HETATM   19  C   UNL     1      43.484 -18.226   4.068  1.00  0.00     0.076 A 
HETATM   20  C   UNL     1      43.937 -18.831   2.888  1.00  0.00     0.037 A 
HETATM   21  C   UNL     1      44.190 -18.068   1.748  1.00  0.00     0.003 A 
HETATM   22  C   UNL     1      43.989 -16.694   1.773  1.00  0.00     0.001 A 
HETATM   23  C   UNL     1      43.536 -16.080   2.941  1.00  0.00     0.012 A 
BRANCH  19  24
HETATM   24  O   UNL     1      43.197 -18.915   5.217  1.00  0.00    -0.355 OA
HETATM   25  C   UNL     1      44.131 -19.892   5.658  1.00  0.00     0.210 C 
ENDBRANCH  19  24
ENDBRANCH   1  18
TORSDOF 6
ENDMDL
MODEL 5
REMARK VINA RESULT:      -7.2      3.859      7.126
REMARK  6 active torsions:
REMARK  status: ('A' for Active; 'I' for Inactive)
REMARK    1  A    between atoms: C_2  and  C_3 
REMARK    2  A    between atoms: C_3  and  N_4 
REMARK    3  A    between atoms: C_3  and  C_15 
REMARK       I    between atoms: N_4  and  C_5 
REMARK    4  A    between atoms: C_5  and  C_6 
REMARK    5  A    between atoms: C_6  and  C_7 
REMARK    6  A    between atoms: C_16  and  O_17 
ROOT
HETATM    1  C   UNL     1      40.948 -14.828  -0.133  1.00  0.00     0.128 C 
ENDROOT
BRANCH   1   2
HETATM    2  C   UNL     1      40.327 -14.051   1.092  1.00  0.00    -0.026 C 
HETATM    3  C   UNL     1      41.352 -13.743   2.200  1.00  0.00     0.016 C 
HETATM    4  C   UNL     1      39.194 -14.891   1.725  1.00  0.00     0.016 C 
HETATM    5  C   UNL     1      39.698 -12.719   0.628  1.00  0.00     0.016 C 
ENDBRANCH   1   2
BRANCH   1   6
HETATM    6  N   UNL     1      42.158 -15.577   0.230  1.00  0.00    -0.351 N 
HETATM    7  C   UNL     1      42.138 -16.897   0.636  1.00  0.00     0.222 C 
HETATM    8  O   UNL     1      41.107 -17.539   0.803  1.00  0.00    -0.273 OA
HETATM    9  H   UNL     1      43.047 -15.107   0.150  1.00  0.00     0.163 HD
BRANCH   7  10
HETATM   10  C   UNL     1      43.530 -17.456   0.893  1.00  0.00     0.142 C 
BRANCH  10  11
HETATM   11  C   UNL     1      43.765 -18.070   2.251  1.00  0.00    -0.032 A 
HETATM   12  C   UNL     1      43.528 -17.383   3.441  1.00  0.00     0.126 A 
HETATM   13  N   UNL     1      43.654 -17.928   4.673  1.00  0.00    -0.248 NA
HETATM   14  C   UNL     1      44.038 -19.217   4.722  1.00  0.00     0.125 A 
HETATM   15 CL   UNL     1      44.186 -19.864   6.304  1.00  0.00    -0.063 Cl
HETATM   16  C   UNL     1      44.289 -20.000   3.610  1.00  0.00     0.045 A 
HETATM   17  C   UNL     1      44.142 -19.415   2.356  1.00  0.00     0.012 A 
ENDBRANCH  10  11
ENDBRANCH   7  10
ENDBRANCH   1   6
BRANCH   1  18
HETATM   18  C   UNL     1      41.238 -13.965  -1.370  1.00  0.00    -0.001 A 
HETATM   19  C   UNL     1      40.371 -13.987  -2.486  1.00  0.00     0.076 A 
HETATM   20  C   UNL     1      40.655 -13.196  -3.607  1.00  0.00     0.037 A 
HETATM   21  C   UNL     1      41.789 -12.384  -3.637  1.00  0.00     0.003 A 
HETATM   22  C   UNL     1      42.648 -12.351  -2.547  1.00  0.00     0.001 A 
HETATM   23  C   UNL     1      42.375 -13.133  -1.424  1.00  0.00     0.012 A 
BRANCH  19  24
HETATM   24  O   UNL     1      39.266 -14.791  -2.380  1.00  0.00    -0.355 OA
HETATM   25  C   UNL     1      37.987 -14.170  -2.402  1.00  0.00     0.210 C 
ENDBRANCH  19  24
ENDBRANCH   1  18
TORSDOF 6
ENDMDL
MODEL 6
REMARK VINA RESULT:      -7.0      3.509      6.221
REMARK  6 active torsions:
REMARK  status: ('A' for Active; 'I' for Inactive)
REMARK    1  A    between atoms: C_2  and  C_3 
REMARK    2  A    between atoms: C_3  and  N_4 
REMARK    3  A    between atoms: C_3  and  C_15 
REMARK       I    between atoms: N_4  and  C_5 
REMARK    4  A    between atoms: C_5  and  C_6 
REMARK    5  A    between atoms: C_6  and  C_7 
REMARK    6  A    between atoms: C_16  and  O_17 
ROOT
HETATM    1  C   UNL     1      42.204 -16.745   2.429  1.00  0.00     0.128 C 
ENDROOT
BRANCH   1   2
HETATM    2  C   UNL     1      43.277 -17.901   2.422  1.00  0.00    -0.026 C 
HETATM    3  C   UNL     1      43.948 -18.118   3.791  1.00  0.00     0.016 C 
HETATM    4  C   UNL     1      44.392 -17.574   1.402  1.00  0.00     0.016 C 
HETATM    5  C   UNL     1      42.635 -19.234   1.978  1.00  0.00     0.016 C 
ENDBRANCH   1   2
BRANCH   1   6
HETATM    6  N   UNL     1      41.980 -16.175   1.094  1.00  0.00    -0.351 N 
HETATM    7  C   UNL     1      40.818 -15.522   0.734  1.00  0.00     0.222 C 
HETATM    8  O   UNL     1      39.841 -15.423   1.468  1.00  0.00    -0.273 OA
HETATM    9  H   UNL     1      42.727 -16.244   0.420  1.00  0.00     0.163 HD
BRANCH   7  10
HETATM   10  C   UNL     1      40.866 -14.973  -0.684  1.00  0.00     0.142 C 
BRANCH  10  11
HETATM   11  C   UNL     1      41.586 -13.659  -0.871  1.00  0.00    -0.032 A 
HETATM   12  C   UNL     1      41.880 -12.804   0.190  1.00  0.00     0.126 A 
HETATM   13  N   UNL     1      42.590 -11.658   0.069  1.00  0.00    -0.248 NA
HETATM   14  C   UNL     1      43.024 -11.349  -1.167  1.00  0.00     0.125 A 
HETATM   15 CL   UNL     1      43.917  -9.889  -1.271  1.00  0.00    -0.063 Cl
HETATM   16  C   UNL     1      42.803 -12.126  -2.288  1.00  0.00     0.045 A 
HETATM   17  C   UNL     1      42.078 -13.304  -2.133  1.00  0.00     0.012 A 
ENDBRANCH  10  11
ENDBRANCH   7  10
ENDBRANCH   1   6
BRANCH   1  18
HETATM   18  C   UNL     1      42.479 -15.609   3.425  1.00  0.00    -0.001 A 
HETATM   19  C   UNL     1      41.736 -15.501   4.623  1.00  0.00     0.076 A 
HETATM   20  C   UNL     1      42.000 -14.455   5.517  1.00  0.00     0.037 A 
HETATM   21  C   UNL     1      42.990 -13.513   5.238  1.00  0.00     0.003 A 
HETATM   22  C   UNL     1      43.729 -13.608   4.067  1.00  0.00     0.001 A 
HETATM   23  C   UNL     1      43.477 -14.646   3.170  1.00  0.00     0.012 A 
BRANCH  19  24
HETATM   24  O   UNL     1      40.794 -16.472   4.841  1.00  0.00    -0.355 OA
HETATM   25  C   UNL     1      40.881 -17.224   6.045  1.00  0.00     0.210 C 
ENDBRANCH  19  24
ENDBRANCH   1  18
TORSDOF 6
ENDMDL
MODEL 7
REMARK VINA RESULT:      -7.0      3.450      6.880
REMARK  6 active torsions:
REMARK  status: ('A' for Active; 'I' for Inactive)
REMARK    1  A    between atoms: C_2  and  C_3 
REMARK    2  A    between atoms: C_3  and  N_4 
REMARK    3  A    between atoms: C_3  and  C_15 
REMARK       I    between atoms: N_4  and  C_5 
REMARK    4  A    between atoms: C_5  and  C_6 
REMARK    5  A    between atoms: C_6  and  C_7 
REMARK    6  A    between atoms: C_16  and  O_17 
ROOT
HETATM    1  C   UNL     1      41.340 -14.823   1.713  1.00  0.00     0.128 C 
ENDROOT
BRANCH   1   2
HETATM    2  C   UNL     1      41.653 -13.765   2.842  1.00  0.00    -0.026 C 
HETATM    3  C   UNL     1      43.137 -13.736   3.254  1.00  0.00     0.016 C 
HETATM    4  C   UNL     1      40.823 -14.087   4.106  1.00  0.00     0.016 C 
HETATM    5  C   UNL     1      41.247 -12.347   2.383  1.00  0.00     0.016 C 
ENDBRANCH   1   2
BRANCH   1   6
HETATM    6  N   UNL     1      42.442 -15.774   1.512  1.00  0.00    -0.351 N 
HETATM    7  C   UNL     1      42.246 -17.118   1.267  1.00  0.00     0.222 C 
HETATM    8  O   UNL     1      41.144 -17.654   1.270  1.00  0.00    -0.273 OA
HETATM    9  H   UNL     1      43.384 -15.415   1.527  1.00  0.00     0.163 HD
BRANCH   7  10
HETATM   10  C   UNL     1      43.548 -17.870   1.033  1.00  0.00     0.142 C 
BRANCH  10  11
HETATM   11  C   UNL     1      43.942 -18.872   2.091  1.00  0.00    -0.032 A 
HETATM   12  C   UNL     1      44.125 -18.524   3.428  1.00  0.00     0.126 A 
HETATM   13  N   UNL     1      44.402 -19.408   4.415  1.00  0.00    -0.248 NA
HETATM   14  C   UNL     1      44.507 -20.700   4.050  1.00  0.00     0.125 A 
HETATM   15 CL   UNL     1      44.861 -21.783   5.332  1.00  0.00    -0.063 Cl
HETATM   16  C   UNL     1      44.334 -21.163   2.759  1.00  0.00     0.045 A 
HETATM   17  C   UNL     1      44.040 -20.232   1.767  1.00  0.00     0.012 A 
ENDBRANCH  10  11
ENDBRANCH   7  10
ENDBRANCH   1   6
BRANCH   1  18
HETATM   18  C   UNL     1      40.932 -14.226   0.358  1.00  0.00    -0.001 A 
HETATM   19  C   UNL     1      39.569 -14.084   0.013  1.00  0.00     0.076 A 
HETATM   20  C   UNL     1      39.216 -13.542  -1.230  1.00  0.00     0.037 A 
HETATM   21  C   UNL     1      40.198 -13.139  -2.136  1.00  0.00     0.003 A 
HETATM   22  C   UNL     1      41.541 -13.272  -1.809  1.00  0.00     0.001 A 
HETATM   23  C   UNL     1      41.904 -13.809  -0.574  1.00  0.00     0.012 A 
BRANCH  19  24
HETATM   24  O   UNL     1      38.659 -14.480   0.958  1.00  0.00    -0.355 OA
HETATM   25  C   UNL     1      37.304 -14.089   0.781  1.00  0.00     0.210 C 
ENDBRANCH  19  24
ENDBRANCH   1  18
TORSDOF 6
ENDMDL
MODEL 8
REMARK VINA RESULT:      -6.9      4.326      7.318
REMARK  6 active torsions:
REMARK  status: ('A' for Active; 'I' for Inactive)
REMARK    1  A    between atoms: C_2  and  C_3 
REMARK    2  A    between atoms: C_3  and  N_4 
REMARK    3  A    between atoms: C_3  and  C_15 
REMARK       I    between atoms: N_4  and  C_5 
REMARK    4  A    between atoms: C_5  and  C_6 
REMARK    5  A    between atoms: C_6  and  C_7 
REMARK    6  A    between atoms: C_16  and  O_17 
ROOT
HETATM    1  C   UNL     1      40.598 -14.337  -1.030  1.00  0.00     0.128 C 
ENDROOT
BRANCH   1   2
HETATM    2  C   UNL     1      40.494 -14.395  -2.603  1.00  0.00    -0.026 C 
HETATM    3  C   UNL     1      39.222 -13.722  -3.154  1.00  0.00     0.016 C 
HETATM    4  C   UNL     1      40.484 -15.867  -3.074  1.00  0.00     0.016 C 
HETATM    5  C   UNL     1      41.721 -13.720  -3.253  1.00  0.00     0.016 C 
ENDBRANCH   1   2
BRANCH   1   6
HETATM    6  N   UNL     1      40.611 -15.671  -0.417  1.00  0.00    -0.351 N 
HETATM    7  C   UNL     1      41.400 -15.999   0.667  1.00  0.00     0.222 C 
HETATM    8  O   UNL     1      42.215 -15.233   1.169  1.00  0.00    -0.273 OA
HETATM    9  H   UNL     1      39.989 -16.371  -0.794  1.00  0.00     0.163 HD
BRANCH   7  10
HETATM   10  C   UNL     1      41.180 -17.426   1.147  1.00  0.00     0.142 C 
BRANCH  10  11
HETATM   11  C   UNL     1      42.202 -17.974   2.113  1.00  0.00    -0.032 A 
HETATM   12  C   UNL     1      42.074 -17.852   3.495  1.00  0.00     0.126 A 
HETATM   13  N   UNL     1      42.931 -18.397   4.390  1.00  0.00    -0.248 NA
HETATM   14  C   UNL     1      43.966 -19.093   3.883  1.00  0.00     0.125 A 
HETATM   15 CL   UNL     1      45.024 -19.762   5.054  1.00  0.00    -0.063 Cl
HETATM   16  C   UNL     1      44.186 -19.290   2.533  1.00  0.00     0.045 A 
HETATM   17  C   UNL     1      43.284 -18.726   1.636  1.00  0.00     0.012 A 
ENDBRANCH  10  11
ENDBRANCH   7  10
ENDBRANCH   1   6
BRANCH   1  18
HETATM   18  C   UNL     1      39.533 -13.472  -0.339  1.00  0.00    -0.001 A 
HETATM   19  C   UNL     1      39.764 -12.100  -0.093  1.00  0.00     0.076 A 
HETATM   20  C   UNL     1      38.782 -11.328   0.542  1.00  0.00     0.037 A 
HETATM   21  C   UNL     1      37.573 -11.901   0.938  1.00  0.00     0.003 A 
HETATM   22  C   UNL     1      37.331 -13.247   0.701  1.00  0.00     0.001 A 
HETATM   23  C   UNL     1      38.301 -14.025   0.067  1.00  0.00     0.012 A 
BRANCH  19  24
HETATM   24  O   UNL     1      40.964 -11.600  -0.527  1.00  0.00    -0.355 OA
HETATM   25  C   UNL     1      41.862 -11.085   0.448  1.00  0.00     0.210 C 
ENDBRANCH  19  24
ENDBRANCH   1  18
TORSDOF 6
ENDMDL
MODEL 9
REMARK VINA RESULT:      -6.9      3.489      5.579
REMARK  6 active torsions:
REMARK  status: ('A' for Active; 'I' for Inactive)
REMARK    1  A    between atoms: C_2  and  C_3 
REMARK    2  A    between atoms: C_3  and  N_4 
REMARK    3  A    between atoms: C_3  and  C_15 
REMARK       I    between atoms: N_4  and  C_5 
REMARK    4  A    between atoms: C_5  and  C_6 
REMARK    5  A    between atoms: C_6  and  C_7 
REMARK    6  A    between atoms: C_16  and  O_17 
ROOT
HETATM    1  C   UNL     1      42.602 -16.184   4.429  1.00  0.00     0.128 C 
ENDROOT
BRANCH   1   2
HETATM    2  C   UNL     1      41.670 -16.437   5.677  1.00  0.00    -0.026 C 
HETATM    3  C   UNL     1      40.904 -17.772   5.604  1.00  0.00     0.016 C 
HETATM    4  C   UNL     1      40.624 -15.304   5.789  1.00  0.00     0.016 C 
HETATM    5  C   UNL     1      42.496 -16.422   6.982  1.00  0.00     0.016 C 
ENDBRANCH   1   2
BRANCH   1   6
HETATM    6  N   UNL     1      42.097 -15.115   3.557  1.00  0.00    -0.351 N 
HETATM    7  C   UNL     1      42.905 -14.140   3.008  1.00  0.00     0.222 C 
HETATM    8  O   UNL     1      44.101 -14.032   3.258  1.00  0.00    -0.273 OA
HETATM    9  H   UNL     1      41.114 -15.116   3.329  1.00  0.00     0.163 HD
BRANCH   7  10
HETATM   10  C   UNL     1      42.146 -13.190   2.094  1.00  0.00     0.142 C 
BRANCH  10  11
HETATM   11  C   UNL     1      41.702 -13.751   0.764  1.00  0.00    -0.032 A 
HETATM   12  C   UNL     1      41.432 -12.946  -0.340  1.00  0.00     0.126 A 
HETATM   13  N   UNL     1      41.108 -13.419  -1.567  1.00  0.00    -0.248 NA
HETATM   14  C   UNL     1      41.046 -14.758  -1.695  1.00  0.00     0.125 A 
HETATM   15 CL   UNL     1      40.630 -15.310  -3.265  1.00  0.00    -0.063 Cl
HETATM   16  C   UNL     1      41.305 -15.653  -0.674  1.00  0.00     0.045 A 
HETATM   17  C   UNL     1      41.646 -15.138   0.572  1.00  0.00     0.012 A 
ENDBRANCH  10  11
ENDBRANCH   7  10
ENDBRANCH   1   6
BRANCH   1  18
HETATM   18  C   UNL     1      42.906 -17.428   3.582  1.00  0.00    -0.001 A 
HETATM   19  C   UNL     1      43.951 -18.309   3.940  1.00  0.00     0.076 A 
HETATM   20  C   UNL     1      44.216 -19.437   3.152  1.00  0.00     0.037 A 
HETATM   21  C   UNL     1      43.458 -19.702   2.011  1.00  0.00     0.003 A 
HETATM   22  C   UNL     1      42.426 -18.846   1.648  1.00  0.00     0.001 A 
HETATM   23  C   UNL     1      42.152 -17.721   2.426  1.00  0.00     0.012 A 
BRANCH  19  24
HETATM   24  O   UNL     1      44.640 -17.999   5.083  1.00  0.00    -0.355 OA
HETATM   25  C   UNL     1      44.737 -18.995   6.093  1.00  0.00     0.210 C 
ENDBRANCH  19  24
ENDBRANCH   1  18
TORSDOF 6
ENDMDL
MODEL 10
REMARK VINA RESULT:      -6.8      3.414      5.245
REMARK  6 active torsions:
REMARK  status: ('A' for Active; 'I' for Inactive)
REMARK    1  A    between atoms: C_2  and  C_3 
REMARK    2  A    between atoms: C_3  and  N_4 
REMARK    3  A    between atoms: C_3  and  C_15 
REMARK       I    between atoms: N_4  and  C_5 
REMARK    4  A    between atoms: C_5  and  C_6 
REMARK    5  A    between atoms: C_6  and  C_7 
REMARK    6  A    between atoms: C_16  and  O_17 
ROOT
HETATM    1  C   UNL     1      43.013 -16.455   4.679  1.00  0.00     0.128 C 
ENDROOT
BRANCH   1   2
HETATM    2  C   UNL     1      41.885 -16.638   5.767  1.00  0.00    -0.026 C 
HETATM    3  C   UNL     1      40.912 -17.789   5.447  1.00  0.00     0.016 C 
HETATM    4  C   UNL     1      41.052 -15.341   5.882  1.00  0.00     0.016 C 
HETATM    5  C   UNL     1      42.508 -16.900   7.155  1.00  0.00     0.016 C 
ENDBRANCH   1   2
BRANCH   1   6
HETATM    6  N   UNL     1      42.683 -15.416   3.695  1.00  0.00    -0.351 N 
HETATM    7  C   UNL     1      43.280 -14.171   3.679  1.00  0.00     0.222 C 
HETATM    8  O   UNL     1      44.082 -13.793   4.527  1.00  0.00    -0.273 OA
HETATM    9  H   UNL     1      42.006 -15.638   2.981  1.00  0.00     0.163 HD
BRANCH   7  10
HETATM   10  C   UNL     1      42.807 -13.304   2.522  1.00  0.00     0.142 C 
BRANCH  10  11
HETATM   11  C   UNL     1      41.392 -13.533   2.048  1.00  0.00    -0.032 A 
HETATM   12  C   UNL     1      40.278 -13.231   2.829  1.00  0.00     0.126 A 
HETATM   13  N   UNL     1      38.997 -13.351   2.407  1.00  0.00    -0.248 NA
HETATM   14  C   UNL     1      38.820 -13.798   1.150  1.00  0.00     0.125 A 
HETATM   15 CL   UNL     1      37.182 -13.936   0.661  1.00  0.00    -0.063 Cl
HETATM   16  C   UNL     1      39.848 -14.116   0.282  1.00  0.00     0.045 A 
HETATM   17  C   UNL     1      41.154 -13.973   0.740  1.00  0.00     0.012 A 
ENDBRANCH  10  11
ENDBRANCH   7  10
ENDBRANCH   1   6
BRANCH   1  18
HETATM   18  C   UNL     1      43.420 -17.740   3.942  1.00  0.00    -0.001 A 
HETATM   19  C   UNL     1      42.892 -18.040   2.666  1.00  0.00     0.076 A 
HETATM   20  C   UNL     1      43.272 -19.219   2.012  1.00  0.00     0.037 A 
HETATM   21  C   UNL     1      44.169 -20.107   2.607  1.00  0.00     0.003 A 
HETATM   22  C   UNL     1      44.697 -19.823   3.860  1.00  0.00     0.001 A 
HETATM   23  C   UNL     1      44.328 -18.651   4.520  1.00  0.00     0.012 A 
BRANCH  19  24
HETATM   24  O   UNL     1      42.033 -17.115   2.132  1.00  0.00    -0.355 OA
HETATM   25  C   UNL     1      40.991 -17.584   1.287  1.00  0.00     0.210 C 
ENDBRANCH  19  24
ENDBRANCH   1  18
TORSDOF 6
ENDMDL
