MODEL 1
REMARK VINA RESULT:      -9.7      0.000      0.000
REMARK  4 active torsions:
REMARK  status: ('A' for Active; 'I' for Inactive)
REMARK    1  A    between atoms: C_2  and  C_3 
REMARK    2  A    between atoms: C_6  and  N_7 
REMARK       I    between atoms: N_7  and  C_8 
REMARK       I    between atoms: C_8  and  N_9 
REMARK    3  A    between atoms: N_9  and  C_10 
REMARK       I    between atoms: N_19  and  C_20 
REMARK       I    between atoms: C_20  and  N_21 
REMARK    4  A    between atoms: N_21  and  C_22 
ROOT
HETATM    1  C   UNL     1      41.780 -14.951   5.331  1.00  0.00     0.105 A 
HETATM    2  C   UNL     1      42.188 -13.760   4.493  1.00  0.00     0.274 A 
HETATM    3  O   UNL     1      43.273 -13.795   3.906  1.00  0.00    -0.265 OA
HETATM    4  N   UNL     1      41.285 -12.691   4.417  1.00  0.00    -0.315 N 
HETATM    5  C   UNL     1      40.047 -12.721   5.055  1.00  0.00     0.020 A 
HETATM    6  C   UNL     1      39.068 -11.580   4.847  1.00  0.00     0.054 C 
HETATM    7  C   UNL     1      39.263 -10.940   3.478  1.00  0.00     0.020 C 
HETATM    8  C   UNL     1      40.687 -10.408   3.437  1.00  0.00     0.023 C 
HETATM    9  C   UNL     1      40.890  -9.341   4.521  1.00  0.00     0.134 C 
HETATM   10  N   UNL     1      40.434  -9.712   5.860  1.00  0.00    -0.333 N 
HETATM   11  C   UNL     1      40.914  -8.919   6.902  1.00  0.00     0.318 C 
HETATM   12  N   UNL     1      40.310  -9.113   8.119  1.00  0.00    -0.338 N 
HETATM   13  O   UNL     1      41.823  -8.106   6.750  1.00  0.00    -0.247 OA
HETATM   14  C   UNL     1      39.214 -10.521   5.951  1.00  0.00     0.138 C 
HETATM   15  C   UNL     1      41.681 -11.572   3.560  1.00  0.00     0.138 C 
HETATM   16  C   UNL     1      39.717 -13.776   5.818  1.00  0.00     0.028 A 
HETATM   17  C   UNL     1      40.607 -14.895   5.976  1.00  0.00     0.037 A 
HETATM   18  H   UNL     1      39.374  -9.473   8.109  1.00  0.00     0.164 HD
ENDROOT
BRANCH   1  19
HETATM   19  N   UNL     1      42.660 -16.020   5.315  1.00  0.00    -0.304 N 
HETATM   20  C   UNL     1      43.757 -16.223   6.096  1.00  0.00     0.325 C 
HETATM   21  N   UNL     1      44.381 -17.432   6.024  1.00  0.00    -0.309 N 
HETATM   22  O   UNL     1      44.180 -15.428   6.936  1.00  0.00    -0.247 OA
HETATM   23  H   UNL     1      44.990 -17.548   6.827  1.00  0.00     0.170 HD
HETATM   24  H   UNL     1      42.325 -16.798   4.761  1.00  0.00     0.171 HD
BRANCH  21  25
HETATM   25  C   UNL     1      44.339 -18.507   5.125  1.00  0.00     0.036 A 
HETATM   26  C   UNL     1      44.024 -18.400   3.769  1.00  0.00     0.030 A 
HETATM   27  C   UNL     1      44.036 -19.538   2.945  1.00  0.00     0.017 A 
HETATM   28  C   UNL     1      44.379 -20.790   3.468  1.00  0.00     0.009 A 
HETATM   29  C   UNL     1      44.714 -20.893   4.821  1.00  0.00     0.017 A 
HETATM   30  C   UNL     1      44.708 -19.758   5.635  1.00  0.00     0.030 A 
BRANCH  28  31
HETATM   31  C   UNL     1      44.414 -22.030   2.637  1.00  0.00     0.155 C 
HETATM   32  C   UNL     1      43.996 -21.953   1.192  1.00  0.00     0.096 C 
HETATM   33  O   UNL     1      44.781 -23.091   3.138  1.00  0.00    -0.293 OA
ENDBRANCH  28  31
ENDBRANCH  21  25
ENDBRANCH   1  19
BRANCH  12  34
HETATM   34  C   UNL     1      40.659  -8.304   9.284  1.00  0.00     0.086 C 
HETATM   35  C   UNL     1      39.399  -7.846  10.033  1.00  0.00     0.025 C 
HETATM   36  C   UNL     1      38.704  -8.991  10.772  1.00  0.00     0.002 C 
HETATM   37  C   UNL     1      39.665  -9.732  11.698  1.00  0.00     0.000 C 
HETATM   38  C   UNL     1      40.905 -10.218  10.956  1.00  0.00     0.002 C 
HETATM   39  C   UNL     1      41.603  -9.080  10.212  1.00  0.00     0.025 C 
ENDBRANCH  12  34
TORSDOF 4
ENDMDL
MODEL 2
REMARK VINA RESULT:      -9.4      4.701      7.597
REMARK  4 active torsions:
REMARK  status: ('A' for Active; 'I' for Inactive)
REMARK    1  A    between atoms: C_2  and  C_3 
REMARK    2  A    between atoms: C_6  and  N_7 
REMARK       I    between atoms: N_7  and  C_8 
REMARK       I    between atoms: C_8  and  N_9 
REMARK    3  A    between atoms: N_9  and  C_10 
REMARK       I    between atoms: N_19  and  C_20 
REMARK       I    between atoms: C_20  and  N_21 
REMARK    4  A    between atoms: N_21  and  C_22 
ROOT
HETATM    1  C   UNL     1      41.909 -14.694   2.928  1.00  0.00     0.105 A 
HETATM    2  C   UNL     1      40.549 -15.076   2.390  1.00  0.00     0.274 A 
HETATM    3  O   UNL     1      40.191 -16.254   2.473  1.00  0.00    -0.265 OA
HETATM    4  N   UNL     1      39.763 -14.050   1.847  1.00  0.00    -0.315 N 
HETATM    5  C   UNL     1      40.190 -12.724   1.826  1.00  0.00     0.020 A 
HETATM    6  C   UNL     1      39.251 -11.642   1.325  1.00  0.00     0.054 C 
HETATM    7  C   UNL     1      37.798 -12.025   1.574  1.00  0.00     0.020 C 
HETATM    8  C   UNL     1      37.544 -13.317   0.814  1.00  0.00     0.023 C 
HETATM    9  C   UNL     1      37.752 -13.101  -0.691  1.00  0.00     0.134 C 
HETATM   10  N   UNL     1      38.997 -12.429  -1.062  1.00  0.00    -0.333 N 
HETATM   11  C   UNL     1      39.361 -12.533  -2.405  1.00  0.00     0.318 C 
HETATM   12  N   UNL     1      40.390 -11.717  -2.803  1.00  0.00    -0.338 N 
HETATM   13  O   UNL     1      38.809 -13.309  -3.182  1.00  0.00    -0.247 OA
HETATM   14  C   UNL     1      39.475 -11.367  -0.171  1.00  0.00     0.138 C 
HETATM   15  C   UNL     1      38.431 -14.436   1.378  1.00  0.00     0.138 C 
HETATM   16  C   UNL     1      41.413 -12.410   2.282  1.00  0.00     0.028 A 
HETATM   17  C   UNL     1      42.293 -13.415   2.819  1.00  0.00     0.037 A 
HETATM   18  H   UNL     1      40.534 -10.877  -2.273  1.00  0.00     0.164 HD
ENDROOT
BRANCH   1  19
HETATM   19  N   UNL     1      42.621 -15.718   3.530  1.00  0.00    -0.304 N 
HETATM   20  C   UNL     1      43.282 -15.701   4.720  1.00  0.00     0.325 C 
HETATM   21  N   UNL     1      43.772 -16.879   5.199  1.00  0.00    -0.309 N 
HETATM   22  O   UNL     1      43.394 -14.715   5.449  1.00  0.00    -0.247 OA
HETATM   23  H   UNL     1      43.987 -16.781   6.185  1.00  0.00     0.170 HD
HETATM   24  H   UNL     1      42.474 -16.615   3.085  1.00  0.00     0.171 HD
BRANCH  21  25
HETATM   25  C   UNL     1      44.004 -18.145   4.642  1.00  0.00     0.036 A 
HETATM   26  C   UNL     1      44.732 -19.165   5.256  1.00  0.00     0.030 A 
HETATM   27  C   UNL     1      44.885 -20.410   4.624  1.00  0.00     0.017 A 
HETATM   28  C   UNL     1      44.297 -20.649   3.376  1.00  0.00     0.009 A 
HETATM   29  C   UNL     1      43.551 -19.634   2.770  1.00  0.00     0.017 A 
HETATM   30  C   UNL     1      43.396 -18.401   3.407  1.00  0.00     0.030 A 
BRANCH  28  31
HETATM   31  C   UNL     1      44.422 -21.954   2.661  1.00  0.00     0.155 C 
HETATM   32  C   UNL     1      44.100 -22.015   1.191  1.00  0.00     0.096 C 
HETATM   33  O   UNL     1      44.781 -22.955   3.277  1.00  0.00    -0.293 OA
ENDBRANCH  28  31
ENDBRANCH  21  25
ENDBRANCH   1  19
BRANCH  12  34
HETATM   34  C   UNL     1      40.832 -11.665  -4.194  1.00  0.00     0.086 C 
HETATM   35  C   UNL     1      40.023 -10.629  -4.990  1.00  0.00     0.025 C 
HETATM   36  C   UNL     1      40.370  -9.190  -4.604  1.00  0.00     0.002 C 
HETATM   37  C   UNL     1      41.870  -8.924  -4.704  1.00  0.00     0.000 C 
HETATM   38  C   UNL     1      42.679  -9.929  -3.892  1.00  0.00     0.002 C 
HETATM   39  C   UNL     1      42.335 -11.370  -4.269  1.00  0.00     0.025 C 
ENDBRANCH  12  34
TORSDOF 4
ENDMDL
MODEL 3
REMARK VINA RESULT:      -8.9      4.874      9.301
REMARK  4 active torsions:
REMARK  status: ('A' for Active; 'I' for Inactive)
REMARK    1  A    between atoms: C_2  and  C_3 
REMARK    2  A    between atoms: C_6  and  N_7 
REMARK       I    between atoms: N_7  and  C_8 
REMARK       I    between atoms: C_8  and  N_9 
REMARK    3  A    between atoms: N_9  and  C_10 
REMARK       I    between atoms: N_19  and  C_20 
REMARK       I    between atoms: C_20  and  N_21 
REMARK    4  A    between atoms: N_21  and  C_22 
ROOT
HETATM    1  C   UNL     1      40.758 -14.249   0.878  1.00  0.00     0.105 A 
HETATM    2  C   UNL     1      41.365 -13.218   1.803  1.00  0.00     0.274 A 
HETATM    3  O   UNL     1      41.954 -12.253   1.307  1.00  0.00    -0.265 OA
HETATM    4  N   UNL     1      41.196 -13.414   3.181  1.00  0.00    -0.315 N 
HETATM    5  C   UNL     1      40.475 -14.491   3.691  1.00  0.00     0.020 A 
HETATM    6  C   UNL     1      40.235 -14.591   5.186  1.00  0.00     0.054 C 
HETATM    7  C   UNL     1      40.192 -13.208   5.823  1.00  0.00     0.020 C 
HETATM    8  C   UNL     1      41.541 -12.558   5.563  1.00  0.00     0.023 C 
HETATM    9  C   UNL     1      42.663 -13.376   6.220  1.00  0.00     0.134 C 
HETATM   10  N   UNL     1      42.633 -14.812   5.948  1.00  0.00    -0.333 N 
HETATM   11  C   UNL     1      43.809 -15.505   6.237  1.00  0.00     0.318 C 
HETATM   12  N   UNL     1      43.711 -16.874   6.207  1.00  0.00    -0.338 N 
HETATM   13  O   UNL     1      44.867 -14.934   6.492  1.00  0.00    -0.247 OA
HETATM   14  C   UNL     1      41.315 -15.450   5.862  1.00  0.00     0.138 C 
HETATM   15  C   UNL     1      41.750 -12.377   4.053  1.00  0.00     0.138 C 
HETATM   16  C   UNL     1      39.970 -15.411   2.854  1.00  0.00     0.028 A 
HETATM   17  C   UNL     1      40.135 -15.299   1.429  1.00  0.00     0.037 A 
HETATM   18  H   UNL     1      42.804 -17.267   6.375  1.00  0.00     0.164 HD
ENDROOT
BRANCH   1  19
HETATM   19  N   UNL     1      40.875 -13.978  -0.475  1.00  0.00    -0.304 N 
HETATM   20  C   UNL     1      41.070 -14.854  -1.498  1.00  0.00     0.325 C 
HETATM   21  N   UNL     1      40.982 -14.381  -2.774  1.00  0.00    -0.309 N 
HETATM   22  O   UNL     1      41.230 -16.067  -1.365  1.00  0.00    -0.247 OA
HETATM   23  H   UNL     1      40.875 -15.158  -3.416  1.00  0.00     0.170 HD
HETATM   24  H   UNL     1      40.616 -13.027  -0.710  1.00  0.00     0.171 HD
BRANCH  21  25
HETATM   25  C   UNL     1      40.986 -13.103  -3.349  1.00  0.00     0.036 A 
HETATM   26  C   UNL     1      39.843 -12.394  -3.725  1.00  0.00     0.030 A 
HETATM   27  C   UNL     1      39.954 -11.105  -4.270  1.00  0.00     0.017 A 
HETATM   28  C   UNL     1      41.210 -10.506  -4.430  1.00  0.00     0.009 A 
HETATM   29  C   UNL     1      42.352 -11.208  -4.034  1.00  0.00     0.017 A 
HETATM   30  C   UNL     1      42.237 -12.487  -3.485  1.00  0.00     0.030 A 
BRANCH  28  31
HETATM   31  C   UNL     1      41.385  -9.137  -4.997  1.00  0.00     0.155 C 
HETATM   32  C   UNL     1      42.273  -8.156  -4.276  1.00  0.00     0.096 C 
HETATM   33  O   UNL     1      40.808  -8.827  -6.037  1.00  0.00    -0.293 OA
ENDBRANCH  28  31
ENDBRANCH  21  25
ENDBRANCH   1  19
BRANCH  12  34
HETATM   34  C   UNL     1      44.841 -17.729   6.559  1.00  0.00     0.086 C 
HETATM   35  C   UNL     1      44.546 -18.535   7.834  1.00  0.00     0.025 C 
HETATM   36  C   UNL     1      43.510 -19.637   7.606  1.00  0.00     0.002 C 
HETATM   37  C   UNL     1      43.900 -20.549   6.447  1.00  0.00     0.000 C 
HETATM   38  C   UNL     1      44.164 -19.761   5.169  1.00  0.00     0.002 C 
HETATM   39  C   UNL     1      45.197 -18.656   5.390  1.00  0.00     0.025 C 
ENDBRANCH  12  34
TORSDOF 4
ENDMDL
MODEL 4
REMARK VINA RESULT:      -8.9      5.304      7.023
REMARK  4 active torsions:
REMARK  status: ('A' for Active; 'I' for Inactive)
REMARK    1  A    between atoms: C_2  and  C_3 
REMARK    2  A    between atoms: C_6  and  N_7 
REMARK       I    between atoms: N_7  and  C_8 
REMARK       I    between atoms: C_8  and  N_9 
REMARK    3  A    between atoms: N_9  and  C_10 
REMARK       I    between atoms: N_19  and  C_20 
REMARK       I    between atoms: C_20  and  N_21 
REMARK    4  A    between atoms: N_21  and  C_22 
ROOT
HETATM    1  C   UNL     1      41.246 -15.142   1.715  1.00  0.00     0.105 A 
HETATM    2  C   UNL     1      41.273 -15.440   0.233  1.00  0.00     0.274 A 
HETATM    3  O   UNL     1      42.038 -16.317  -0.179  1.00  0.00    -0.265 OA
HETATM    4  N   UNL     1      40.399 -14.710  -0.584  1.00  0.00    -0.315 N 
HETATM    5  C   UNL     1      39.515 -13.768  -0.064  1.00  0.00     0.020 A 
HETATM    6  C   UNL     1      38.518 -13.087  -0.984  1.00  0.00     0.054 C 
HETATM    7  C   UNL     1      38.147 -13.995  -2.150  1.00  0.00     0.020 C 
HETATM    8  C   UNL     1      39.431 -14.286  -2.911  1.00  0.00     0.023 C 
HETATM    9  C   UNL     1      40.033 -12.985  -3.462  1.00  0.00     0.134 C 
HETATM   10  N   UNL     1      40.148 -11.890  -2.499  1.00  0.00    -0.333 N 
HETATM   11  C   UNL     1      40.990 -10.843  -2.873  1.00  0.00     0.318 C 
HETATM   12  N   UNL     1      40.919  -9.718  -2.091  1.00  0.00    -0.338 N 
HETATM   13  O   UNL     1      41.754 -10.921  -3.833  1.00  0.00    -0.247 OA
HETATM   14  C   UNL     1      39.074 -11.754  -1.509  1.00  0.00     0.138 C 
HETATM   15  C   UNL     1      40.409 -15.051  -2.007  1.00  0.00     0.138 C 
HETATM   16  C   UNL     1      39.528 -13.497   1.251  1.00  0.00     0.028 A 
HETATM   17  C   UNL     1      40.423 -14.178   2.148  1.00  0.00     0.037 A 
HETATM   18  H   UNL     1      40.060  -9.563  -1.597  1.00  0.00     0.164 HD
ENDROOT
BRANCH   1  19
HETATM   19  N   UNL     1      42.063 -15.940   2.498  1.00  0.00    -0.304 N 
HETATM   20  C   UNL     1      42.796 -15.586   3.589  1.00  0.00     0.325 C 
HETATM   21  N   UNL     1      43.394 -16.575   4.310  1.00  0.00    -0.309 N 
HETATM   22  O   UNL     1      42.887 -14.441   4.034  1.00  0.00    -0.247 OA
HETATM   23  H   UNL     1      43.664 -16.216   5.219  1.00  0.00     0.170 HD
HETATM   24  H   UNL     1      41.948 -16.929   2.308  1.00  0.00     0.171 HD
BRANCH  21  25
HETATM   25  C   UNL     1      43.676 -17.929   4.075  1.00  0.00     0.036 A 
HETATM   26  C   UNL     1      43.637 -18.545   2.823  1.00  0.00     0.030 A 
HETATM   27  C   UNL     1      43.964 -19.905   2.690  1.00  0.00     0.017 A 
HETATM   28  C   UNL     1      44.347 -20.656   3.808  1.00  0.00     0.009 A 
HETATM   29  C   UNL     1      44.406 -20.033   5.057  1.00  0.00     0.017 A 
HETATM   30  C   UNL     1      44.088 -18.679   5.184  1.00  0.00     0.030 A 
BRANCH  28  31
HETATM   31  C   UNL     1      44.712 -22.101   3.723  1.00  0.00     0.155 C 
HETATM   32  C   UNL     1      45.141 -22.820   4.975  1.00  0.00     0.096 C 
HETATM   33  O   UNL     1      44.658 -22.682   2.641  1.00  0.00    -0.293 OA
ENDBRANCH  28  31
ENDBRANCH  21  25
ENDBRANCH   1  19
BRANCH  12  34
HETATM   34  C   UNL     1      41.689  -8.518  -2.406  1.00  0.00     0.086 C 
HETATM   35  C   UNL     1      41.138  -7.297  -1.653  1.00  0.00     0.025 C 
HETATM   36  C   UNL     1      41.433  -7.350  -0.153  1.00  0.00     0.002 C 
HETATM   37  C   UNL     1      42.920  -7.553   0.125  1.00  0.00     0.000 C 
HETATM   38  C   UNL     1      43.468  -8.780  -0.594  1.00  0.00     0.002 C 
HETATM   39  C   UNL     1      43.174  -8.736  -2.093  1.00  0.00     0.025 C 
ENDBRANCH  12  34
TORSDOF 4
ENDMDL
MODEL 5
REMARK VINA RESULT:      -8.8      3.567      9.742
REMARK  4 active torsions:
REMARK  status: ('A' for Active; 'I' for Inactive)
REMARK    1  A    between atoms: C_2  and  C_3 
REMARK    2  A    between atoms: C_6  and  N_7 
REMARK       I    between atoms: N_7  and  C_8 
REMARK       I    between atoms: C_8  and  N_9 
REMARK    3  A    between atoms: N_9  and  C_10 
REMARK       I    between atoms: N_19  and  C_20 
REMARK       I    between atoms: C_20  and  N_21 
REMARK    4  A    between atoms: N_21  and  C_22 
ROOT
HETATM    1  C   UNL     1      41.176 -13.064   5.846  1.00  0.00     0.105 A 
HETATM    2  C   UNL     1      42.362 -13.634   5.101  1.00  0.00     0.274 A 
HETATM    3  O   UNL     1      43.472 -13.126   5.282  1.00  0.00    -0.265 OA
HETATM    4  N   UNL     1      42.125 -14.731   4.261  1.00  0.00    -0.315 N 
HETATM    5  C   UNL     1      40.862 -15.303   4.132  1.00  0.00     0.020 A 
HETATM    6  C   UNL     1      40.689 -16.556   3.292  1.00  0.00     0.054 C 
HETATM    7  C   UNL     1      41.964 -17.389   3.290  1.00  0.00     0.020 C 
HETATM    8  C   UNL     1      43.060 -16.519   2.694  1.00  0.00     0.023 C 
HETATM    9  C   UNL     1      42.711 -16.136   1.249  1.00  0.00     0.134 C 
HETATM   10  N   UNL     1      41.361 -15.610   1.048  1.00  0.00    -0.333 N 
HETATM   11  C   UNL     1      41.147 -14.945  -0.159  1.00  0.00     0.318 C 
HETATM   12  N   UNL     1      39.836 -14.661  -0.452  1.00  0.00    -0.338 N 
HETATM   13  O   UNL     1      42.065 -14.624  -0.909  1.00  0.00    -0.247 OA
HETATM   14  C   UNL     1      40.286 -16.202   1.851  1.00  0.00     0.138 C 
HETATM   15  C   UNL     1      43.297 -15.294   3.589  1.00  0.00     0.138 C 
HETATM   16  C   UNL     1      39.816 -14.764   4.780  1.00  0.00     0.028 A 
HETATM   17  C   UNL     1      39.973 -13.615   5.630  1.00  0.00     0.037 A 
HETATM   18  H   UNL     1      39.140 -15.250  -0.035  1.00  0.00     0.164 HD
ENDROOT
BRANCH   1  19
HETATM   19  N   UNL     1      41.463 -12.036   6.727  1.00  0.00    -0.304 N 
HETATM   20  C   UNL     1      41.615 -10.710   6.458  1.00  0.00     0.325 C 
HETATM   21  N   UNL     1      41.727  -9.850   7.509  1.00  0.00    -0.309 N 
HETATM   22  O   UNL     1      41.565 -10.210   5.334  1.00  0.00    -0.247 OA
HETATM   23  H   UNL     1      41.559  -8.902   7.191  1.00  0.00     0.170 HD
HETATM   24  H   UNL     1      41.383 -12.314   7.698  1.00  0.00     0.171 HD
BRANCH  21  25
HETATM   25  C   UNL     1      41.989 -10.001   8.878  1.00  0.00     0.036 A 
HETATM   26  C   UNL     1      43.100 -10.661   9.409  1.00  0.00     0.030 A 
HETATM   27  C   UNL     1      43.285 -10.734  10.799  1.00  0.00     0.017 A 
HETATM   28  C   UNL     1      42.368 -10.135  11.671  1.00  0.00     0.009 A 
HETATM   29  C   UNL     1      41.268  -9.457  11.138  1.00  0.00     0.017 A 
HETATM   30  C   UNL     1      41.092  -9.380   9.755  1.00  0.00     0.030 A 
BRANCH  28  31
HETATM   31  C   UNL     1      42.520 -10.176  13.155  1.00  0.00     0.155 C 
HETATM   32  C   UNL     1      43.440  -9.188  13.823  1.00  0.00     0.096 C 
HETATM   33  O   UNL     1      41.897 -11.009  13.810  1.00  0.00    -0.293 OA
ENDBRANCH  28  31
ENDBRANCH  21  25
ENDBRANCH   1  19
BRANCH  12  34
HETATM   34  C   UNL     1      39.454 -14.033  -1.714  1.00  0.00     0.086 C 
HETATM   35  C   UNL     1      37.931 -13.854  -1.801  1.00  0.00     0.025 C 
HETATM   36  C   UNL     1      37.412 -12.767  -0.858  1.00  0.00     0.002 C 
HETATM   37  C   UNL     1      38.141 -11.443  -1.066  1.00  0.00     0.000 C 
HETATM   38  C   UNL     1      39.653 -11.605  -0.950  1.00  0.00     0.002 C 
HETATM   39  C   UNL     1      40.179 -12.692  -1.887  1.00  0.00     0.025 C 
ENDBRANCH  12  34
TORSDOF 4
ENDMDL
MODEL 6
REMARK VINA RESULT:      -8.7      4.112      6.894
REMARK  4 active torsions:
REMARK  status: ('A' for Active; 'I' for Inactive)
REMARK    1  A    between atoms: C_2  and  C_3 
REMARK    2  A    between atoms: C_6  and  N_7 
REMARK       I    between atoms: N_7  and  C_8 
REMARK       I    between atoms: C_8  and  N_9 
REMARK    3  A    between atoms: N_9  and  C_10 
REMARK       I    between atoms: N_19  and  C_20 
REMARK       I    between atoms: C_20  and  N_21 
REMARK    4  A    between atoms: N_21  and  C_22 
ROOT
HETATM    1  C   UNL     1      40.177 -13.873   3.606  1.00  0.00     0.105 A 
HETATM    2  C   UNL     1      39.325 -14.312   2.435  1.00  0.00     0.274 A 
HETATM    3  O   UNL     1      39.247 -15.518   2.182  1.00  0.00    -0.265 OA
HETATM    4  N   UNL     1      38.653 -13.312   1.721  1.00  0.00    -0.315 N 
HETATM    5  C   UNL     1      38.730 -11.968   2.080  1.00  0.00     0.020 A 
HETATM    6  C   UNL     1      37.894 -10.944   1.334  1.00  0.00     0.054 C 
HETATM    7  C   UNL     1      36.611 -11.572   0.803  1.00  0.00     0.020 C 
HETATM    8  C   UNL     1      37.024 -12.686  -0.146  1.00  0.00     0.023 C 
HETATM    9  C   UNL     1      37.825 -12.114  -1.324  1.00  0.00     0.134 C 
HETATM   10  N   UNL     1      38.916 -11.210  -0.961  1.00  0.00    -0.333 N 
HETATM   11  C   UNL     1      39.853 -10.961  -1.964  1.00  0.00     0.318 C 
HETATM   12  N   UNL     1      40.735  -9.941  -1.709  1.00  0.00    -0.338 N 
HETATM   13  O   UNL     1      39.897 -11.614  -3.004  1.00  0.00    -0.247 OA
HETATM   14  C   UNL     1      38.691 -10.316   0.180  1.00  0.00     0.138 C 
HETATM   15  C   UNL     1      37.797 -13.767   0.624  1.00  0.00     0.138 C 
HETATM   16  C   UNL     1      39.515 -11.596   3.103  1.00  0.00     0.028 A 
HETATM   17  C   UNL     1      40.266 -12.561   3.861  1.00  0.00     0.037 A 
HETATM   18  H   UNL     1      40.432  -9.228  -1.071  1.00  0.00     0.164 HD
ENDROOT
BRANCH   1  19
HETATM   19  N   UNL     1      40.758 -14.895   4.336  1.00  0.00    -0.304 N 
HETATM   20  C   UNL     1      40.627 -15.165   5.664  1.00  0.00     0.325 C 
HETATM   21  N   UNL     1      41.156 -16.328   6.138  1.00  0.00    -0.309 N 
HETATM   22  O   UNL     1      39.983 -14.482   6.461  1.00  0.00    -0.247 OA
HETATM   23  H   UNL     1      40.761 -16.533   7.049  1.00  0.00     0.170 HD
HETATM   24  H   UNL     1      41.193 -15.600   3.752  1.00  0.00     0.171 HD
BRANCH  21  25
HETATM   25  C   UNL     1      42.071 -17.266   5.639  1.00  0.00     0.036 A 
HETATM   26  C   UNL     1      43.114 -17.833   6.375  1.00  0.00     0.030 A 
HETATM   27  C   UNL     1      43.961 -18.787   5.787  1.00  0.00     0.017 A 
HETATM   28  C   UNL     1      43.762 -19.193   4.463  1.00  0.00     0.009 A 
HETATM   29  C   UNL     1      42.706 -18.641   3.733  1.00  0.00     0.017 A 
HETATM   30  C   UNL     1      41.861 -17.699   4.323  1.00  0.00     0.030 A 
BRANCH  28  31
HETATM   31  C   UNL     1      44.628 -20.208   3.791  1.00  0.00     0.155 C 
HETATM   32  C   UNL     1      44.375 -20.539   2.343  1.00  0.00     0.096 C 
HETATM   33  O   UNL     1      45.528 -20.756   4.422  1.00  0.00    -0.293 OA
ENDBRANCH  28  31
ENDBRANCH  21  25
ENDBRANCH   1  19
BRANCH  12  34
HETATM   34  C   UNL     1      41.725  -9.521  -2.697  1.00  0.00     0.086 C 
HETATM   35  C   UNL     1      41.979  -8.008  -2.612  1.00  0.00     0.025 C 
HETATM   36  C   UNL     1      42.755  -7.612  -1.355  1.00  0.00     0.002 C 
HETATM   37  C   UNL     1      44.052  -8.405  -1.218  1.00  0.00     0.000 C 
HETATM   38  C   UNL     1      43.805  -9.908  -1.269  1.00  0.00     0.002 C 
HETATM   39  C   UNL     1      43.027 -10.312  -2.521  1.00  0.00     0.025 C 
ENDBRANCH  12  34
TORSDOF 4
ENDMDL
MODEL 7
REMARK VINA RESULT:      -8.7      6.350      9.200
REMARK  4 active torsions:
REMARK  status: ('A' for Active; 'I' for Inactive)
REMARK    1  A    between atoms: C_2  and  C_3 
REMARK    2  A    between atoms: C_6  and  N_7 
REMARK       I    between atoms: N_7  and  C_8 
REMARK       I    between atoms: C_8  and  N_9 
REMARK    3  A    between atoms: N_9  and  C_10 
REMARK       I    between atoms: N_19  and  C_20 
REMARK       I    between atoms: C_20  and  N_21 
REMARK    4  A    between atoms: N_21  and  C_22 
ROOT
HETATM    1  C   UNL     1      41.113 -14.848  -0.322  1.00  0.00     0.105 A 
HETATM    2  C   UNL     1      41.403 -13.380  -0.105  1.00  0.00     0.274 A 
HETATM    3  O   UNL     1      41.562 -12.974   1.050  1.00  0.00    -0.265 OA
HETATM    4  N   UNL     1      41.498 -12.569  -1.244  1.00  0.00    -0.315 N 
HETATM    5  C   UNL     1      41.365 -13.085  -2.531  1.00  0.00     0.020 A 
HETATM    6  C   UNL     1      41.586 -12.178  -3.729  1.00  0.00     0.054 C 
HETATM    7  C   UNL     1      42.574 -11.068  -3.395  1.00  0.00     0.020 C 
HETATM    8  C   UNL     1      41.972 -10.269  -2.250  1.00  0.00     0.023 C 
HETATM    9  C   UNL     1      40.640  -9.639  -2.681  1.00  0.00     0.134 C 
HETATM   10  N   UNL     1      39.697 -10.549  -3.330  1.00  0.00    -0.333 N 
HETATM   11  C   UNL     1      38.380 -10.096  -3.412  1.00  0.00     0.318 C 
HETATM   12  N   UNL     1      37.550 -10.832  -4.220  1.00  0.00    -0.338 N 
HETATM   13  O   UNL     1      37.981  -9.109  -2.797  1.00  0.00    -0.247 OA
HETATM   14  C   UNL     1      40.258 -11.575  -4.215  1.00  0.00     0.138 C 
HETATM   15  C   UNL     1      41.828 -11.163  -1.010  1.00  0.00     0.138 C 
HETATM   16  C   UNL     1      41.079 -14.386  -2.702  1.00  0.00     0.028 A 
HETATM   17  C   UNL     1      40.929 -15.273  -1.579  1.00  0.00     0.037 A 
HETATM   18  H   UNL     1      37.983 -11.353  -4.959  1.00  0.00     0.164 HD
ENDROOT
BRANCH   1  19
HETATM   19  N   UNL     1      41.109 -15.630   0.820  1.00  0.00    -0.304 N 
HETATM   20  C   UNL     1      40.089 -15.838   1.698  1.00  0.00     0.325 C 
HETATM   21  N   UNL     1      40.255 -16.786   2.662  1.00  0.00    -0.309 N 
HETATM   22  O   UNL     1      38.984 -15.299   1.633  1.00  0.00    -0.247 OA
HETATM   23  H   UNL     1      39.354 -17.028   3.058  1.00  0.00     0.170 HD
HETATM   24  H   UNL     1      41.921 -16.231   0.890  1.00  0.00     0.171 HD
BRANCH  21  25
HETATM   25  C   UNL     1      41.360 -17.479   3.178  1.00  0.00     0.036 A 
HETATM   26  C   UNL     1      42.329 -18.123   2.406  1.00  0.00     0.030 A 
HETATM   27  C   UNL     1      43.414 -18.768   3.020  1.00  0.00     0.017 A 
HETATM   28  C   UNL     1      43.548 -18.762   4.414  1.00  0.00     0.009 A 
HETATM   29  C   UNL     1      42.589 -18.099   5.185  1.00  0.00     0.017 A 
HETATM   30  C   UNL     1      41.515 -17.452   4.569  1.00  0.00     0.030 A 
BRANCH  28  31
HETATM   31  C   UNL     1      44.684 -19.425   5.119  1.00  0.00     0.155 C 
HETATM   32  C   UNL     1      45.022 -20.853   4.778  1.00  0.00     0.096 C 
HETATM   33  O   UNL     1      45.325 -18.803   5.964  1.00  0.00    -0.293 OA
ENDBRANCH  28  31
ENDBRANCH  21  25
ENDBRANCH   1  19
BRANCH  12  34
HETATM   34  C   UNL     1      36.165 -10.435  -4.458  1.00  0.00     0.086 C 
HETATM   35  C   UNL     1      35.908 -10.206  -5.955  1.00  0.00     0.025 C 
HETATM   36  C   UNL     1      35.895 -11.509  -6.756  1.00  0.00     0.002 C 
HETATM   37  C   UNL     1      34.917 -12.523  -6.170  1.00  0.00     0.000 C 
HETATM   38  C   UNL     1      35.184 -12.781  -4.692  1.00  0.00     0.002 C 
HETATM   39  C   UNL     1      35.202 -11.482  -3.886  1.00  0.00     0.025 C 
ENDBRANCH  12  34
TORSDOF 4
ENDMDL
MODEL 8
REMARK VINA RESULT:      -8.6      4.477      5.881
REMARK  4 active torsions:
REMARK  status: ('A' for Active; 'I' for Inactive)
REMARK    1  A    between atoms: C_2  and  C_3 
REMARK    2  A    between atoms: C_6  and  N_7 
REMARK       I    between atoms: N_7  and  C_8 
REMARK       I    between atoms: C_8  and  N_9 
REMARK    3  A    between atoms: N_9  and  C_10 
REMARK       I    between atoms: N_19  and  C_20 
REMARK       I    between atoms: C_20  and  N_21 
REMARK    4  A    between atoms: N_21  and  C_22 
ROOT
HETATM    1  C   UNL     1      40.735 -15.307   1.601  1.00  0.00     0.105 A 
HETATM    2  C   UNL     1      41.002 -14.893   0.171  1.00  0.00     0.274 A 
HETATM    3  O   UNL     1      42.103 -15.152  -0.323  1.00  0.00    -0.265 OA
HETATM    4  N   UNL     1      39.959 -14.258  -0.518  1.00  0.00    -0.315 N 
HETATM    5  C   UNL     1      38.715 -14.036   0.067  1.00  0.00     0.020 A 
HETATM    6  C   UNL     1      37.592 -13.441  -0.764  1.00  0.00     0.054 C 
HETATM    7  C   UNL     1      37.747 -13.813  -2.233  1.00  0.00     0.020 C 
HETATM    8  C   UNL     1      39.081 -13.248  -2.694  1.00  0.00     0.023 C 
HETATM    9  C   UNL     1      39.088 -11.718  -2.563  1.00  0.00     0.134 C 
HETATM   10  N   UNL     1      38.637 -11.198  -1.272  1.00  0.00    -0.333 N 
HETATM   11  C   UNL     1      38.958  -9.865  -1.014  1.00  0.00     0.318 C 
HETATM   12  N   UNL     1      38.340  -9.310   0.079  1.00  0.00    -0.338 N 
HETATM   13  O   UNL     1      39.747  -9.229  -1.708  1.00  0.00    -0.247 OA
HETATM   14  C   UNL     1      37.542 -11.913  -0.608  1.00  0.00     0.138 C 
HETATM   15  C   UNL     1      40.225 -13.912  -1.915  1.00  0.00     0.138 C 
HETATM   16  C   UNL     1      38.508 -14.384   1.347  1.00  0.00     0.028 A 
HETATM   17  C   UNL     1      39.542 -15.007   2.130  1.00  0.00     0.037 A 
HETATM   18  H   UNL     1      37.466  -9.713   0.359  1.00  0.00     0.164 HD
ENDROOT
BRANCH   1  19
HETATM   19  N   UNL     1      41.758 -16.004   2.220  1.00  0.00    -0.304 N 
HETATM   20  C   UNL     1      42.768 -15.516   2.992  1.00  0.00     0.325 C 
HETATM   21  N   UNL     1      43.567 -16.407   3.643  1.00  0.00    -0.309 N 
HETATM   22  O   UNL     1      42.960 -14.323   3.227  1.00  0.00    -0.247 OA
HETATM   23  H   UNL     1      44.081 -15.930   4.375  1.00  0.00     0.170 HD
HETATM   24  H   UNL     1      41.614 -17.007   2.210  1.00  0.00     0.171 HD
BRANCH  21  25
HETATM   25  C   UNL     1      43.797 -17.786   3.528  1.00  0.00     0.036 A 
HETATM   26  C   UNL     1      43.895 -18.481   2.321  1.00  0.00     0.030 A 
HETATM   27  C   UNL     1      44.154 -19.861   2.315  1.00  0.00     0.017 A 
HETATM   28  C   UNL     1      44.333 -20.556   3.516  1.00  0.00     0.009 A 
HETATM   29  C   UNL     1      44.256 -19.856   4.724  1.00  0.00     0.017 A 
HETATM   30  C   UNL     1      44.005 -18.482   4.725  1.00  0.00     0.030 A 
BRANCH  28  31
HETATM   31  C   UNL     1      44.618 -22.020   3.568  1.00  0.00     0.155 C 
HETATM   32  C   UNL     1      44.909 -22.661   4.900  1.00  0.00     0.096 C 
HETATM   33  O   UNL     1      44.611 -22.681   2.531  1.00  0.00    -0.293 OA
ENDBRANCH  28  31
ENDBRANCH  21  25
ENDBRANCH   1  19
BRANCH  12  34
HETATM   34  C   UNL     1      38.524  -7.904   0.429  1.00  0.00     0.086 C 
HETATM   35  C   UNL     1      37.217  -7.291   0.953  1.00  0.00     0.025 C 
HETATM   36  C   UNL     1      36.842  -7.808   2.344  1.00  0.00     0.002 C 
HETATM   37  C   UNL     1      37.983  -7.626   3.341  1.00  0.00     0.000 C 
HETATM   38  C   UNL     1      39.278  -8.258   2.842  1.00  0.00     0.002 C 
HETATM   39  C   UNL     1      39.657  -7.750   1.452  1.00  0.00     0.025 C 
ENDBRANCH  12  34
TORSDOF 4
ENDMDL
MODEL 9
REMARK VINA RESULT:      -8.4      5.986      8.142
REMARK  4 active torsions:
REMARK  status: ('A' for Active; 'I' for Inactive)
REMARK    1  A    between atoms: C_2  and  C_3 
REMARK    2  A    between atoms: C_6  and  N_7 
REMARK       I    between atoms: N_7  and  C_8 
REMARK       I    between atoms: C_8  and  N_9 
REMARK    3  A    between atoms: N_9  and  C_10 
REMARK       I    between atoms: N_19  and  C_20 
REMARK       I    between atoms: C_20  and  N_21 
REMARK    4  A    between atoms: N_21  and  C_22 
ROOT
HETATM    1  C   UNL     1      41.054 -14.601  -0.180  1.00  0.00     0.105 A 
HETATM    2  C   UNL     1      41.777 -13.274  -0.103  1.00  0.00     0.274 A 
HETATM    3  O   UNL     1      42.384 -12.992   0.934  1.00  0.00    -0.265 OA
HETATM    4  N   UNL     1      41.731 -12.453  -1.237  1.00  0.00    -0.315 N 
HETATM    5  C   UNL     1      41.078 -12.840  -2.405  1.00  0.00     0.020 A 
HETATM    6  C   UNL     1      41.155 -11.955  -3.636  1.00  0.00     0.054 C 
HETATM    7  C   UNL     1      42.456 -11.163  -3.656  1.00  0.00     0.020 C 
HETATM    8  C   UNL     1      42.470 -10.302  -2.403  1.00  0.00     0.023 C 
HETATM    9  C   UNL     1      41.288  -9.322  -2.416  1.00  0.00     0.134 C 
HETATM   10  N   UNL     1      39.985  -9.914  -2.715  1.00  0.00    -0.333 N 
HETATM   11  C   UNL     1      38.878  -9.128  -2.397  1.00  0.00     0.318 C 
HETATM   12  N   UNL     1      37.676  -9.574  -2.887  1.00  0.00    -0.338 N 
HETATM   13  O   UNL     1      38.964  -8.109  -1.715  1.00  0.00    -0.247 OA
HETATM   14  C   UNL     1      39.954 -10.999  -3.702  1.00  0.00     0.138 C 
HETATM   15  C   UNL     1      42.479 -11.197  -1.155  1.00  0.00     0.138 C 
HETATM   16  C   UNL     1      40.417 -14.009  -2.443  1.00  0.00     0.028 A 
HETATM   17  C   UNL     1      40.387 -14.889  -1.305  1.00  0.00     0.037 A 
HETATM   18  H   UNL     1      37.706 -10.146  -3.710  1.00  0.00     0.164 HD
ENDROOT
BRANCH   1  19
HETATM   19  N   UNL     1      41.191 -15.419   0.929  1.00  0.00    -0.304 N 
HETATM   20  C   UNL     1      40.454 -15.421   2.073  1.00  0.00     0.325 C 
HETATM   21  N   UNL     1      40.656 -16.432   2.965  1.00  0.00    -0.309 N 
HETATM   22  O   UNL     1      39.547 -14.629   2.328  1.00  0.00    -0.247 OA
HETATM   23  H   UNL     1      39.880 -16.470   3.615  1.00  0.00     0.170 HD
HETATM   24  H   UNL     1      41.815 -16.201   0.767  1.00  0.00     0.171 HD
BRANCH  21  25
HETATM   25  C   UNL     1      41.657 -17.398   3.144  1.00  0.00     0.036 A 
HETATM   26  C   UNL     1      42.287 -17.678   4.358  1.00  0.00     0.030 A 
HETATM   27  C   UNL     1      43.261 -18.687   4.437  1.00  0.00     0.017 A 
HETATM   28  C   UNL     1      43.602 -19.435   3.304  1.00  0.00     0.009 A 
HETATM   29  C   UNL     1      42.956 -19.168   2.094  1.00  0.00     0.017 A 
HETATM   30  C   UNL     1      41.983 -18.170   2.021  1.00  0.00     0.030 A 
BRANCH  28  31
HETATM   31  C   UNL     1      44.624 -20.523   3.332  1.00  0.00     0.155 C 
HETATM   32  C   UNL     1      44.576 -21.597   2.277  1.00  0.00     0.096 C 
HETATM   33  O   UNL     1      45.486 -20.529   4.208  1.00  0.00    -0.293 OA
ENDBRANCH  28  31
ENDBRANCH  21  25
ENDBRANCH   1  19
BRANCH  12  34
HETATM   34  C   UNL     1      36.442  -8.815  -2.694  1.00  0.00     0.086 C 
HETATM   35  C   UNL     1      35.531  -8.925  -3.926  1.00  0.00     0.025 C 
HETATM   36  C   UNL     1      34.904 -10.312  -4.072  1.00  0.00     0.002 C 
HETATM   37  C   UNL     1      34.179 -10.742  -2.801  1.00  0.00     0.000 C 
HETATM   38  C   UNL     1      35.085 -10.667  -1.577  1.00  0.00     0.002 C 
HETATM   39  C   UNL     1      35.718  -9.284  -1.426  1.00  0.00     0.025 C 
ENDBRANCH  12  34
TORSDOF 4
ENDMDL
MODEL 10
REMARK VINA RESULT:      -8.2      4.913      9.754
REMARK  4 active torsions:
REMARK  status: ('A' for Active; 'I' for Inactive)
REMARK    1  A    between atoms: C_2  and  C_3 
REMARK    2  A    between atoms: C_6  and  N_7 
REMARK       I    between atoms: N_7  and  C_8 
REMARK       I    between atoms: C_8  and  N_9 
REMARK    3  A    between atoms: N_9  and  C_10 
REMARK       I    between atoms: N_19  and  C_20 
REMARK       I    between atoms: C_20  and  N_21 
REMARK    4  A    between atoms: N_21  and  C_22 
ROOT
HETATM    1  C   UNL     1      39.270 -10.920   4.653  1.00  0.00     0.105 A 
HETATM    2  C   UNL     1      39.514 -12.376   4.327  1.00  0.00     0.274 A 
HETATM    3  O   UNL     1      40.028 -13.096   5.189  1.00  0.00    -0.265 OA
HETATM    4  N   UNL     1      39.114 -12.827   3.062  1.00  0.00    -0.315 N 
HETATM    5  C   UNL     1      38.488 -11.988   2.143  1.00  0.00     0.020 A 
HETATM    6  C   UNL     1      37.981 -12.559   0.831  1.00  0.00     0.054 C 
HETATM    7  C   UNL     1      37.596 -14.024   0.989  1.00  0.00     0.020 C 
HETATM    8  C   UNL     1      38.850 -14.767   1.421  1.00  0.00     0.023 C 
HETATM    9  C   UNL     1      39.938 -14.650   0.344  1.00  0.00     0.134 C 
HETATM   10  N   UNL     1      40.190 -13.296  -0.148  1.00  0.00    -0.333 N 
HETATM   11  C   UNL     1      41.382 -13.122  -0.851  1.00  0.00     0.318 C 
HETATM   12  N   UNL     1      41.510 -11.925  -1.510  1.00  0.00    -0.338 N 
HETATM   13  O   UNL     1      42.266 -13.975  -0.875  1.00  0.00    -0.247 OA
HETATM   14  C   UNL     1      39.032 -12.406  -0.280  1.00  0.00     0.138 C 
HETATM   15  C   UNL     1      39.316 -14.250   2.789  1.00  0.00     0.138 C 
HETATM   16  C   UNL     1      38.308 -10.690   2.439  1.00  0.00     0.028 A 
HETATM   17  C   UNL     1      38.726 -10.146   3.704  1.00  0.00     0.037 A 
HETATM   18  H   UNL     1      40.662 -11.459  -1.773  1.00  0.00     0.164 HD
ENDROOT
BRANCH   1  19
HETATM   19  N   UNL     1      39.602 -10.533   5.940  1.00  0.00    -0.304 N 
HETATM   20  C   UNL     1      39.040  -9.552   6.699  1.00  0.00     0.325 C 
HETATM   21  N   UNL     1      39.414  -9.459   8.006  1.00  0.00    -0.309 N 
HETATM   22  O   UNL     1      38.146  -8.795   6.321  1.00  0.00    -0.247 OA
HETATM   23  H   UNL     1      38.742  -8.891   8.510  1.00  0.00     0.170 HD
HETATM   24  H   UNL     1      40.229 -11.184   6.398  1.00  0.00     0.171 HD
BRANCH  21  25
HETATM   25  C   UNL     1      40.471  -9.981   8.765  1.00  0.00     0.036 A 
HETATM   26  C   UNL     1      41.813  -9.962   8.382  1.00  0.00     0.030 A 
HETATM   27  C   UNL     1      42.802 -10.489   9.229  1.00  0.00     0.017 A 
HETATM   28  C   UNL     1      42.457 -11.026  10.475  1.00  0.00     0.009 A 
HETATM   29  C   UNL     1      41.115 -11.026  10.867  1.00  0.00     0.017 A 
HETATM   30  C   UNL     1      40.137 -10.494  10.025  1.00  0.00     0.030 A 
BRANCH  28  31
HETATM   31  C   UNL     1      43.466 -11.593  11.417  1.00  0.00     0.155 C 
HETATM   32  C   UNL     1      44.773 -12.102  10.868  1.00  0.00     0.096 C 
HETATM   33  O   UNL     1      43.221 -11.636  12.621  1.00  0.00    -0.293 OA
ENDBRANCH  28  31
ENDBRANCH  21  25
ENDBRANCH   1  19
BRANCH  12  34
HETATM   34  C   UNL     1      42.672 -11.633  -2.346  1.00  0.00     0.086 C 
HETATM   35  C   UNL     1      42.326 -11.767  -3.837  1.00  0.00     0.025 C 
HETATM   36  C   UNL     1      41.419 -10.640  -4.334  1.00  0.00     0.002 C 
HETATM   37  C   UNL     1      42.000  -9.265  -4.017  1.00  0.00     0.000 C 
HETATM   38  C   UNL     1      42.318  -9.111  -2.534  1.00  0.00     0.002 C 
HETATM   39  C   UNL     1      43.221 -10.236  -2.030  1.00  0.00     0.025 C 
ENDBRANCH  12  34
TORSDOF 4
ENDMDL
