MODEL 1
REMARK VINA RESULT:      -8.8      0.000      0.000
REMARK  4 active torsions:
REMARK  status: ('A' for Active; 'I' for Inactive)
REMARK    1  A    between atoms: C_5  and  C_6 
REMARK    2  A    between atoms: C_6  and  N_7 
REMARK    3  A    between atoms: C_6  and  C_18 
REMARK    4  A    between atoms: N_7  and  C_8 
ROOT
HETATM    1  C   UNL     1      44.098 -18.590   3.831  1.00  0.00     0.290 C 
ENDROOT
BRANCH   1   2
HETATM    2  C   UNL     1      43.664 -18.115   5.207  1.00  0.00     0.021 A 
HETATM    3  C   UNL     1      42.326 -17.858   5.551  1.00  0.00     0.055 A 
HETATM    4  C   UNL     1      42.001 -17.445   6.842  1.00  0.00     0.117 A 
HETATM    5  C   UNL     1      42.977 -17.286   7.817  1.00  0.00     0.045 A 
HETATM    6  F   UNL     1      40.720 -17.194   7.142  1.00  0.00    -0.206 F 
HETATM    7  C   UNL     1      44.307 -17.546   7.497  1.00  0.00     0.046 A 
HETATM    8  C   UNL     1      44.637 -17.957   6.207  1.00  0.00     0.125 A 
HETATM    9  F   UNL     1      45.927 -18.186   5.918  1.00  0.00    -0.205 F 
ENDBRANCH   1   2
BRANCH   1  10
HETATM   10  N   UNL     1      43.210 -18.196   2.713  1.00  0.00     0.101 N 
HETATM   11  H   UNL     1      42.280 -18.039   3.106  1.00  0.00     0.317 HD
BRANCH  10  12
HETATM   12  C   UNL     1      43.626 -17.041   1.905  1.00  0.00     0.225 C 
HETATM   13  C   UNL     1      43.275 -15.764   2.706  1.00  0.00     0.069 C 
HETATM   14  C   UNL     1      41.768 -15.568   2.765  1.00  0.00     0.190 C 
HETATM   15  N   UNL     1      41.244 -15.455   1.355  1.00  0.00    -0.067 N 
HETATM   16  C   UNL     1      41.259 -14.274   3.366  1.00  0.00     0.035 C 
HETATM   17  H   UNL     1      41.756 -14.698   0.880  1.00  0.00     0.280 HD
HETATM   18  C   UNL     1      41.461 -16.711   0.571  1.00  0.00     0.237 C 
HETATM   19  C   UNL     1      39.826 -14.973   1.503  1.00  0.00     0.235 C 
HETATM   20  C   UNL     1      42.966 -16.968   0.510  1.00  0.00     0.063 C 
HETATM   21  C   UNL     1      39.839 -14.170   2.805  1.00  0.00     0.030 C 
ENDBRANCH  10  12
ENDBRANCH   1  10
BRANCH   1  22
HETATM   22  C   UNL     1      44.339 -20.096   3.761  1.00  0.00    -0.018 A 
HETATM   23  C   UNL     1      44.213 -20.766   2.534  1.00  0.00     0.029 A 
HETATM   24  C   UNL     1      44.405 -22.138   2.493  1.00  0.00     0.116 A 
HETATM   25  N   UNL     1      44.702 -22.884   3.573  1.00  0.00    -0.273 NA
HETATM   26  C   UNL     1      44.827 -22.233   4.747  1.00  0.00     0.116 A 
HETATM   27  C   UNL     1      44.651 -20.864   4.891  1.00  0.00     0.029 A 
ENDBRANCH   1  22
TORSDOF 4
ENDMDL
MODEL 2
REMARK VINA RESULT:      -8.2      2.618      4.511
REMARK  4 active torsions:
REMARK  status: ('A' for Active; 'I' for Inactive)
REMARK    1  A    between atoms: C_5  and  C_6 
REMARK    2  A    between atoms: C_6  and  N_7 
REMARK    3  A    between atoms: C_6  and  C_18 
REMARK    4  A    between atoms: N_7  and  C_8 
ROOT
HETATM    1  C   UNL     1      42.669 -17.645   3.925  1.00  0.00     0.290 C 
ENDROOT
BRANCH   1   2
HETATM    2  C   UNL     1      41.962 -16.878   2.820  1.00  0.00     0.021 A 
HETATM    3  C   UNL     1      40.577 -16.647   2.802  1.00  0.00     0.055 A 
HETATM    4  C   UNL     1      40.001 -15.916   1.765  1.00  0.00     0.117 A 
HETATM    5  C   UNL     1      40.772 -15.392   0.735  1.00  0.00     0.045 A 
HETATM    6  F   UNL     1      38.676 -15.719   1.764  1.00  0.00    -0.206 F 
HETATM    7  C   UNL     1      42.148 -15.603   0.741  1.00  0.00     0.046 A 
HETATM    8  C   UNL     1      42.728 -16.336   1.775  1.00  0.00     0.125 A 
HETATM    9  F   UNL     1      44.054 -16.539   1.751  1.00  0.00    -0.205 F 
ENDBRANCH   1   2
BRANCH   1  10
HETATM   10  N   UNL     1      43.656 -16.865   4.708  1.00  0.00     0.101 N 
HETATM   11  H   UNL     1      43.782 -15.970   4.232  1.00  0.00     0.317 HD
BRANCH  10  12
HETATM   12  C   UNL     1      43.360 -16.651   6.131  1.00  0.00     0.225 C 
HETATM   13  C   UNL     1      41.872 -16.237   6.239  1.00  0.00     0.069 C 
HETATM   14  C   UNL     1      41.665 -14.841   5.670  1.00  0.00     0.190 C 
HETATM   15  N   UNL     1      42.528 -13.876   6.444  1.00  0.00    -0.067 N 
HETATM   16  C   UNL     1      40.298 -14.214   5.850  1.00  0.00     0.035 C 
HETATM   17  H   UNL     1      42.301 -13.970   7.444  1.00  0.00     0.280 HD
HETATM   18  C   UNL     1      43.986 -14.170   6.281  1.00  0.00     0.237 C 
HETATM   19  C   UNL     1      42.051 -12.509   6.031  1.00  0.00     0.235 C 
HETATM   20  C   UNL     1      44.240 -15.579   6.811  1.00  0.00     0.063 C 
HETATM   21  C   UNL     1      40.579 -12.721   5.673  1.00  0.00     0.030 C 
ENDBRANCH  10  12
ENDBRANCH   1  10
BRANCH   1  22
HETATM   22  C   UNL     1      43.332 -18.931   3.439  1.00  0.00    -0.018 A 
HETATM   23  C   UNL     1      44.380 -19.498   4.179  1.00  0.00     0.029 A 
HETATM   24  C   UNL     1      44.992 -20.649   3.708  1.00  0.00     0.116 A 
HETATM   25  N   UNL     1      44.644 -21.265   2.562  1.00  0.00    -0.273 NA
HETATM   26  C   UNL     1      43.632 -20.718   1.860  1.00  0.00     0.116 A 
HETATM   27  C   UNL     1      42.960 -19.567   2.246  1.00  0.00     0.029 A 
ENDBRANCH   1  22
TORSDOF 4
ENDMDL
MODEL 3
REMARK VINA RESULT:      -8.1      2.372      4.825
REMARK  4 active torsions:
REMARK  status: ('A' for Active; 'I' for Inactive)
REMARK    1  A    between atoms: C_5  and  C_6 
REMARK    2  A    between atoms: C_6  and  N_7 
REMARK    3  A    between atoms: C_6  and  C_18 
REMARK    4  A    between atoms: N_7  and  C_8 
ROOT
HETATM    1  C   UNL     1      42.463 -17.583   4.109  1.00  0.00     0.290 C 
ENDROOT
BRANCH   1   2
HETATM    2  C   UNL     1      43.234 -18.795   3.614  1.00  0.00     0.021 A 
HETATM    3  C   UNL     1      44.209 -19.458   4.379  1.00  0.00     0.055 A 
HETATM    4  C   UNL     1      44.860 -20.578   3.867  1.00  0.00     0.117 A 
HETATM    5  C   UNL     1      44.562 -21.073   2.604  1.00  0.00     0.045 A 
HETATM    6  F   UNL     1      45.794 -21.185   4.611  1.00  0.00    -0.206 F 
HETATM    7  C   UNL     1      43.592 -20.435   1.835  1.00  0.00     0.046 A 
HETATM    8  C   UNL     1      42.940 -19.313   2.343  1.00  0.00     0.125 A 
HETATM    9  F   UNL     1      42.020 -18.706   1.577  1.00  0.00    -0.205 F 
ENDBRANCH   1   2
BRANCH   1  10
HETATM   10  N   UNL     1      42.377 -16.452   3.155  1.00  0.00     0.101 N 
HETATM   11  H   UNL     1      42.641 -16.810   2.236  1.00  0.00     0.317 HD
BRANCH  10  12
HETATM   12  C   UNL     1      41.093 -15.741   3.078  1.00  0.00     0.225 C 
HETATM   13  C   UNL     1      40.566 -15.892   1.630  1.00  0.00     0.069 C 
HETATM   14  C   UNL     1      41.421 -15.084   0.665  1.00  0.00     0.190 C 
HETATM   15  N   UNL     1      41.378 -13.636   1.084  1.00  0.00    -0.067 N 
HETATM   16  C   UNL     1      40.942 -14.984  -0.770  1.00  0.00     0.035 C 
HETATM   17  H   UNL     1      40.392 -13.342   1.131  1.00  0.00     0.280 HD
HETATM   18  C   UNL     1      41.980 -13.423   2.437  1.00  0.00     0.237 C 
HETATM   19  C   UNL     1      41.986 -12.879  -0.067  1.00  0.00     0.235 C 
HETATM   20  C   UNL     1      41.172 -14.242   3.441  1.00  0.00     0.063 C 
HETATM   21  C   UNL     1      41.673 -13.745  -1.289  1.00  0.00     0.030 C 
ENDBRANCH  10  12
ENDBRANCH   1  10
BRANCH   1  22
HETATM   22  C   UNL     1      42.963 -17.057   5.451  1.00  0.00    -0.018 A 
HETATM   23  C   UNL     1      42.541 -17.670   6.641  1.00  0.00     0.029 A 
HETATM   24  C   UNL     1      42.979 -17.161   7.854  1.00  0.00     0.116 A 
HETATM   25  N   UNL     1      43.792 -16.093   7.966  1.00  0.00    -0.273 NA
HETATM   26  C   UNL     1      44.198 -15.514   6.819  1.00  0.00     0.116 A 
HETATM   27  C   UNL     1      43.812 -15.946   5.558  1.00  0.00     0.029 A 
ENDBRANCH   1  22
TORSDOF 4
ENDMDL
MODEL 4
REMARK VINA RESULT:      -8.0      1.027      2.134
REMARK  4 active torsions:
REMARK  status: ('A' for Active; 'I' for Inactive)
REMARK    1  A    between atoms: C_5  and  C_6 
REMARK    2  A    between atoms: C_6  and  N_7 
REMARK    3  A    between atoms: C_6  and  C_18 
REMARK    4  A    between atoms: N_7  and  C_8 
ROOT
HETATM    1  C   UNL     1      43.784 -18.575   3.425  1.00  0.00     0.290 C 
ENDROOT
BRANCH   1   2
HETATM    2  C   UNL     1      43.684 -18.335   4.922  1.00  0.00     0.021 A 
HETATM    3  C   UNL     1      44.795 -18.339   5.782  1.00  0.00     0.055 A 
HETATM    4  C   UNL     1      44.629 -18.089   7.143  1.00  0.00     0.117 A 
HETATM    5  C   UNL     1      43.376 -17.822   7.681  1.00  0.00     0.045 A 
HETATM    6  F   UNL     1      45.701 -18.110   7.945  1.00  0.00    -0.206 F 
HETATM    7  C   UNL     1      42.265 -17.804   6.842  1.00  0.00     0.046 A 
HETATM    8  C   UNL     1      42.427 -18.056   5.481  1.00  0.00     0.125 A 
HETATM    9  F   UNL     1      41.339 -18.049   4.695  1.00  0.00    -0.205 F 
ENDBRANCH   1   2
BRANCH   1  10
HETATM   10  N   UNL     1      42.653 -18.055   2.621  1.00  0.00     0.101 N 
HETATM   11  H   UNL     1      41.913 -17.793   3.274  1.00  0.00     0.317 HD
BRANCH  10  12
HETATM   12  C   UNL     1      42.943 -16.944   1.703  1.00  0.00     0.225 C 
HETATM   13  C   UNL     1      43.251 -15.696   2.566  1.00  0.00     0.069 C 
HETATM   14  C   UNL     1      41.989 -15.201   3.257  1.00  0.00     0.190 C 
HETATM   15  N   UNL     1      40.967 -14.861   2.201  1.00  0.00    -0.067 N 
HETATM   16  C   UNL     1      42.078 -13.887   4.007  1.00  0.00     0.035 C 
HETATM   17  H   UNL     1      41.391 -14.187   1.547  1.00  0.00     0.280 HD
HETATM   18  C   UNL     1      40.554 -16.061   1.409  1.00  0.00     0.237 C 
HETATM   19  C   UNL     1      39.885 -14.112   2.932  1.00  0.00     0.235 C 
HETATM   20  C   UNL     1      41.798 -16.616   0.719  1.00  0.00     0.063 C 
HETATM   21  C   UNL     1      40.616 -13.445   4.099  1.00  0.00     0.030 C 
ENDBRANCH  10  12
ENDBRANCH   1  10
BRANCH   1  22
HETATM   22  C   UNL     1      44.012 -20.040   3.063  1.00  0.00    -0.018 A 
HETATM   23  C   UNL     1      44.576 -20.912   4.006  1.00  0.00     0.029 A 
HETATM   24  C   UNL     1      44.805 -22.232   3.652  1.00  0.00     0.116 A 
HETATM   25  N   UNL     1      44.523 -22.739   2.436  1.00  0.00    -0.273 NA
HETATM   26  C   UNL     1      43.976 -21.897   1.537  1.00  0.00     0.116 A 
HETATM   27  C   UNL     1      43.713 -20.559   1.795  1.00  0.00     0.029 A 
ENDBRANCH   1  22
TORSDOF 4
ENDMDL
MODEL 5
REMARK VINA RESULT:      -8.0      2.183      4.912
REMARK  4 active torsions:
REMARK  status: ('A' for Active; 'I' for Inactive)
REMARK    1  A    between atoms: C_5  and  C_6 
REMARK    2  A    between atoms: C_6  and  N_7 
REMARK    3  A    between atoms: C_6  and  C_18 
REMARK    4  A    between atoms: N_7  and  C_8 
ROOT
HETATM    1  C   UNL     1      43.196 -18.369   3.847  1.00  0.00     0.290 C 
ENDROOT
BRANCH   1   2
HETATM    2  C   UNL     1      43.729 -19.767   3.583  1.00  0.00     0.021 A 
HETATM    3  C   UNL     1      43.548 -20.448   2.368  1.00  0.00     0.055 A 
HETATM    4  C   UNL     1      44.085 -21.722   2.191  1.00  0.00     0.117 A 
HETATM    5  C   UNL     1      44.815 -22.344   3.196  1.00  0.00     0.045 A 
HETATM    6  F   UNL     1      43.889 -22.356   1.028  1.00  0.00    -0.206 F 
HETATM    7  C   UNL     1      45.012 -21.681   4.404  1.00  0.00     0.046 A 
HETATM    8  C   UNL     1      44.474 -20.408   4.586  1.00  0.00     0.125 A 
HETATM    9  F   UNL     1      44.665 -19.794   5.764  1.00  0.00    -0.205 F 
ENDBRANCH   1   2
BRANCH   1  10
HETATM   10  N   UNL     1      42.189 -18.265   4.928  1.00  0.00     0.101 N 
HETATM   11  H   UNL     1      41.921 -19.217   5.185  1.00  0.00     0.317 HD
BRANCH  10  12
HETATM   12  C   UNL     1      42.570 -17.501   6.124  1.00  0.00     0.225 C 
HETATM   13  C   UNL     1      41.331 -16.687   6.570  1.00  0.00     0.069 C 
HETATM   14  C   UNL     1      41.038 -15.574   5.575  1.00  0.00     0.190 C 
HETATM   15  N   UNL     1      42.246 -14.674   5.495  1.00  0.00    -0.067 N 
HETATM   16  C   UNL     1      39.960 -14.576   5.948  1.00  0.00     0.035 C 
HETATM   17  H   UNL     1      42.472 -14.351   6.446  1.00  0.00     0.280 HD
HETATM   18  C   UNL     1      43.446 -15.390   4.962  1.00  0.00     0.237 C 
HETATM   19  C   UNL     1      41.777 -13.459   4.739  1.00  0.00     0.235 C 
HETATM   20  C   UNL     1      43.763 -16.542   5.914  1.00  0.00     0.063 C 
HETATM   21  C   UNL     1      40.284 -13.373   5.061  1.00  0.00     0.030 C 
ENDBRANCH  10  12
ENDBRANCH   1  10
BRANCH   1  22
HETATM   22  C   UNL     1      42.646 -17.687   2.596  1.00  0.00    -0.018 A 
HETATM   23  C   UNL     1      41.273 -17.417   2.495  1.00  0.00     0.029 A 
HETATM   24  C   UNL     1      40.785 -16.826   1.341  1.00  0.00     0.116 A 
HETATM   25  N   UNL     1      41.557 -16.494   0.288  1.00  0.00    -0.273 NA
HETATM   26  C   UNL     1      42.876 -16.750   0.395  1.00  0.00     0.116 A 
HETATM   27  C   UNL     1      43.458 -17.342   1.506  1.00  0.00     0.029 A 
ENDBRANCH   1  22
TORSDOF 4
ENDMDL
MODEL 6
REMARK VINA RESULT:      -7.8      2.671      6.386
REMARK  4 active torsions:
REMARK  status: ('A' for Active; 'I' for Inactive)
REMARK    1  A    between atoms: C_5  and  C_6 
REMARK    2  A    between atoms: C_6  and  N_7 
REMARK    3  A    between atoms: C_6  and  C_18 
REMARK    4  A    between atoms: N_7  and  C_8 
ROOT
HETATM    1  C   UNL     1      40.633 -14.712   4.802  1.00  0.00     0.290 C 
ENDROOT
BRANCH   1   2
HETATM    2  C   UNL     1      41.725 -15.276   5.693  1.00  0.00     0.021 A 
HETATM    3  C   UNL     1      42.989 -14.680   5.841  1.00  0.00     0.055 A 
HETATM    4  C   UNL     1      43.936 -15.244   6.695  1.00  0.00     0.117 A 
HETATM    5  C   UNL     1      43.657 -16.393   7.424  1.00  0.00     0.045 A 
HETATM    6  F   UNL     1      45.137 -14.664   6.809  1.00  0.00    -0.206 F 
HETATM    7  C   UNL     1      42.406 -16.993   7.297  1.00  0.00     0.046 A 
HETATM    8  C   UNL     1      41.458 -16.433   6.443  1.00  0.00     0.125 A 
HETATM    9  F   UNL     1      40.266 -17.037   6.326  1.00  0.00    -0.205 F 
ENDBRANCH   1   2
BRANCH   1  10
HETATM   10  N   UNL     1      40.959 -14.649   3.358  1.00  0.00     0.101 N 
HETATM   11  H   UNL     1      41.975 -14.712   3.274  1.00  0.00     0.317 HD
BRANCH  10  12
HETATM   12  C   UNL     1      40.310 -15.636   2.484  1.00  0.00     0.225 C 
HETATM   13  C   UNL     1      40.746 -17.041   2.967  1.00  0.00     0.069 C 
HETATM   14  C   UNL     1      42.217 -17.278   2.657  1.00  0.00     0.190 C 
HETATM   15  N   UNL     1      42.418 -17.157   1.167  1.00  0.00    -0.067 N 
HETATM   16  C   UNL     1      42.764 -18.668   2.910  1.00  0.00     0.035 C 
HETATM   17  H   UNL     1      41.771 -17.807   0.700  1.00  0.00     0.280 HD
HETATM   18  C   UNL     1      42.114 -15.779   0.669  1.00  0.00     0.237 C 
HETATM   19  C   UNL     1      43.804 -17.689   0.917  1.00  0.00     0.235 C 
HETATM   20  C   UNL     1      40.650 -15.481   0.986  1.00  0.00     0.063 C 
HETATM   21  C   UNL     1      44.021 -18.706   2.039  1.00  0.00     0.030 C 
ENDBRANCH  10  12
ENDBRANCH   1  10
BRANCH   1  22
HETATM   22  C   UNL     1      40.134 -13.342   5.254  1.00  0.00    -0.018 A 
HETATM   23  C   UNL     1      39.870 -13.108   6.612  1.00  0.00     0.029 A 
HETATM   24  C   UNL     1      39.388 -11.868   7.002  1.00  0.00     0.116 A 
HETATM   25  N   UNL     1      39.145 -10.858   6.145  1.00  0.00    -0.273 NA
HETATM   26  C   UNL     1      39.406 -11.088   4.843  1.00  0.00     0.116 A 
HETATM   27  C   UNL     1      39.886 -12.295   4.355  1.00  0.00     0.029 A 
ENDBRANCH   1  22
TORSDOF 4
ENDMDL
MODEL 7
REMARK VINA RESULT:      -7.7      2.238      4.865
REMARK  4 active torsions:
REMARK  status: ('A' for Active; 'I' for Inactive)
REMARK    1  A    between atoms: C_5  and  C_6 
REMARK    2  A    between atoms: C_6  and  N_7 
REMARK    3  A    between atoms: C_6  and  C_18 
REMARK    4  A    between atoms: N_7  and  C_8 
ROOT
HETATM    1  C   UNL     1      42.149 -16.838   3.968  1.00  0.00     0.290 C 
ENDROOT
BRANCH   1   2
HETATM    2  C   UNL     1      42.962 -18.006   4.500  1.00  0.00     0.021 A 
HETATM    3  C   UNL     1      43.874 -18.735   3.718  1.00  0.00     0.055 A 
HETATM    4  C   UNL     1      44.601 -19.781   4.281  1.00  0.00     0.117 A 
HETATM    5  C   UNL     1      44.456 -20.125   5.619  1.00  0.00     0.045 A 
HETATM    6  F   UNL     1      45.455 -20.469   3.511  1.00  0.00    -0.206 F 
HETATM    7  C   UNL     1      43.564 -19.407   6.412  1.00  0.00     0.046 A 
HETATM    8  C   UNL     1      42.832 -18.361   5.852  1.00  0.00     0.125 A 
HETATM    9  F   UNL     1      41.968 -17.695   6.632  1.00  0.00    -0.205 F 
ENDBRANCH   1   2
BRANCH   1  10
HETATM   10  N   UNL     1      42.303 -16.563   2.520  1.00  0.00     0.101 N 
HETATM   11  H   UNL     1      43.240 -16.870   2.252  1.00  0.00     0.317 HD
BRANCH  10  12
HETATM   12  C   UNL     1      41.296 -17.143   1.620  1.00  0.00     0.225 C 
HETATM   13  C   UNL     1      41.570 -16.590   0.200  1.00  0.00     0.069 C 
HETATM   14  C   UNL     1      41.227 -15.110   0.129  1.00  0.00     0.190 C 
HETATM   15  N   UNL     1      39.770 -14.938   0.479  1.00  0.00    -0.067 N 
HETATM   16  C   UNL     1      41.276 -14.451  -1.235  1.00  0.00     0.035 C 
HETATM   17  H   UNL     1      39.215 -15.538  -0.147  1.00  0.00     0.280 HD
HETATM   18  C   UNL     1      39.477 -15.357   1.885  1.00  0.00     0.237 C 
HETATM   19  C   UNL     1      39.443 -13.518   0.101  1.00  0.00     0.235 C 
HETATM   20  C   UNL     1      39.836 -16.835   2.016  1.00  0.00     0.063 C 
HETATM   21  C   UNL     1      40.407 -13.207  -1.046  1.00  0.00     0.030 C 
ENDBRANCH  10  12
ENDBRANCH   1  10
BRANCH   1  22
HETATM   22  C   UNL     1      42.377 -15.542   4.741  1.00  0.00    -0.018 A 
HETATM   23  C   UNL     1      41.294 -14.693   5.014  1.00  0.00     0.029 A 
HETATM   24  C   UNL     1      41.522 -13.505   5.691  1.00  0.00     0.116 A 
HETATM   25  N   UNL     1      42.739 -13.102   6.104  1.00  0.00    -0.273 NA
HETATM   26  C   UNL     1      43.774 -13.926   5.844  1.00  0.00     0.116 A 
HETATM   27  C   UNL     1      43.648 -15.133   5.171  1.00  0.00     0.029 A 
ENDBRANCH   1  22
TORSDOF 4
ENDMDL
MODEL 8
REMARK VINA RESULT:      -7.7      1.758      2.488
REMARK  4 active torsions:
REMARK  status: ('A' for Active; 'I' for Inactive)
REMARK    1  A    between atoms: C_5  and  C_6 
REMARK    2  A    between atoms: C_6  and  N_7 
REMARK    3  A    between atoms: C_6  and  C_18 
REMARK    4  A    between atoms: N_7  and  C_8 
ROOT
HETATM    1  C   UNL     1      44.110 -18.374   3.998  1.00  0.00     0.290 C 
ENDROOT
BRANCH   1   2
HETATM    2  C   UNL     1      44.017 -18.433   5.513  1.00  0.00     0.021 A 
HETATM    3  C   UNL     1      43.812 -19.623   6.231  1.00  0.00     0.055 A 
HETATM    4  C   UNL     1      43.759 -19.603   7.624  1.00  0.00     0.117 A 
HETATM    5  C   UNL     1      43.917 -18.420   8.335  1.00  0.00     0.045 A 
HETATM    6  F   UNL     1      43.550 -20.749   8.285  1.00  0.00    -0.206 F 
HETATM    7  C   UNL     1      44.131 -17.232   7.641  1.00  0.00     0.046 A 
HETATM    8  C   UNL     1      44.181 -17.248   6.249  1.00  0.00     0.125 A 
HETATM    9  F   UNL     1      44.374 -16.089   5.602  1.00  0.00    -0.205 F 
ENDBRANCH   1   2
BRANCH   1  10
HETATM   10  N   UNL     1      43.089 -17.534   3.331  1.00  0.00     0.101 N 
HETATM   11  H   UNL     1      43.303 -17.532   2.332  1.00  0.00     0.317 HD
BRANCH  10  12
HETATM   12  C   UNL     1      41.681 -17.894   3.551  1.00  0.00     0.225 C 
HETATM   13  C   UNL     1      40.866 -17.331   2.361  1.00  0.00     0.069 C 
HETATM   14  C   UNL     1      40.807 -15.812   2.426  1.00  0.00     0.190 C 
HETATM   15  N   UNL     1      40.162 -15.413   3.730  1.00  0.00    -0.067 N 
HETATM   16  C   UNL     1      39.906 -15.109   1.432  1.00  0.00     0.035 C 
HETATM   17  H   UNL     1      39.247 -15.881   3.794  1.00  0.00     0.280 HD
HETATM   18  C   UNL     1      40.972 -15.841   4.913  1.00  0.00     0.237 C 
HETATM   19  C   UNL     1      39.873 -13.943   3.588  1.00  0.00     0.235 C 
HETATM   20  C   UNL     1      41.087 -17.363   4.874  1.00  0.00     0.063 C 
HETATM   21  C   UNL     1      39.672 -13.746   2.085  1.00  0.00     0.030 C 
ENDBRANCH  10  12
ENDBRANCH   1  10
BRANCH   1  22
HETATM   22  C   UNL     1      44.120 -19.752   3.341  1.00  0.00    -0.018 A 
HETATM   23  C   UNL     1      44.751 -20.827   3.984  1.00  0.00     0.029 A 
HETATM   24  C   UNL     1      44.778 -22.064   3.359  1.00  0.00     0.116 A 
HETATM   25  N   UNL     1      44.234 -22.304   2.151  1.00  0.00    -0.273 NA
HETATM   26  C   UNL     1      43.623 -21.267   1.542  1.00  0.00     0.116 A 
HETATM   27  C   UNL     1      43.547 -19.992   2.083  1.00  0.00     0.029 A 
ENDBRANCH   1  22
TORSDOF 4
ENDMDL
MODEL 9
REMARK VINA RESULT:      -7.5      2.361      4.913
REMARK  4 active torsions:
REMARK  status: ('A' for Active; 'I' for Inactive)
REMARK    1  A    between atoms: C_5  and  C_6 
REMARK    2  A    between atoms: C_6  and  N_7 
REMARK    3  A    between atoms: C_6  and  C_18 
REMARK    4  A    between atoms: N_7  and  C_8 
ROOT
HETATM    1  C   UNL     1      42.225 -16.920   3.609  1.00  0.00     0.290 C 
ENDROOT
BRANCH   1   2
HETATM    2  C   UNL     1      43.273 -17.849   4.198  1.00  0.00     0.021 A 
HETATM    3  C   UNL     1      44.041 -17.531   5.331  1.00  0.00     0.055 A 
HETATM    4  C   UNL     1      44.970 -18.443   5.828  1.00  0.00     0.117 A 
HETATM    5  C   UNL     1      45.156 -19.683   5.229  1.00  0.00     0.045 A 
HETATM    6  F   UNL     1      45.698 -18.112   6.902  1.00  0.00    -0.206 F 
HETATM    7  C   UNL     1      44.398 -20.019   4.111  1.00  0.00     0.046 A 
HETATM    8  C   UNL     1      43.469 -19.109   3.610  1.00  0.00     0.125 A 
HETATM    9  F   UNL     1      42.761 -19.449   2.522  1.00  0.00    -0.205 F 
ENDBRANCH   1   2
BRANCH   1  10
HETATM   10  N   UNL     1      42.369 -16.635   2.163  1.00  0.00     0.101 N 
HETATM   11  H   UNL     1      43.261 -17.030   1.863  1.00  0.00     0.317 HD
BRANCH  10  12
HETATM   12  C   UNL     1      41.285 -17.091   1.281  1.00  0.00     0.225 C 
HETATM   13  C   UNL     1      41.519 -16.457  -0.111  1.00  0.00     0.069 C 
HETATM   14  C   UNL     1      41.264 -14.958  -0.063  1.00  0.00     0.190 C 
HETATM   15  N   UNL     1      39.839 -14.729   0.377  1.00  0.00    -0.067 N 
HETATM   16  C   UNL     1      41.283 -14.208  -1.380  1.00  0.00     0.035 C 
HETATM   17  H   UNL     1      39.217 -15.250  -0.258  1.00  0.00     0.280 HD
HETATM   18  C   UNL     1      39.592 -15.228   1.765  1.00  0.00     0.237 C 
HETATM   19  C   UNL     1      39.580 -13.269   0.114  1.00  0.00     0.235 C 
HETATM   20  C   UNL     1      39.867 -16.731   1.776  1.00  0.00     0.063 C 
HETATM   21  C   UNL     1      40.501 -12.933  -1.060  1.00  0.00     0.030 C 
ENDBRANCH  10  12
ENDBRANCH   1  10
BRANCH   1  22
HETATM   22  C   UNL     1      42.100 -15.598   4.361  1.00  0.00    -0.018 A 
HETATM   23  C   UNL     1      41.047 -15.409   5.270  1.00  0.00     0.029 A 
HETATM   24  C   UNL     1      40.929 -14.192   5.922  1.00  0.00     0.116 A 
HETATM   25  N   UNL     1      41.771 -13.158   5.731  1.00  0.00    -0.273 NA
HETATM   26  C   UNL     1      42.783 -13.349   4.862  1.00  0.00     0.116 A 
HETATM   27  C   UNL     1      42.983 -14.528   4.159  1.00  0.00     0.029 A 
ENDBRANCH   1  22
TORSDOF 4
ENDMDL
MODEL 10
REMARK VINA RESULT:      -7.5      1.156      2.141
REMARK  4 active torsions:
REMARK  status: ('A' for Active; 'I' for Inactive)
REMARK    1  A    between atoms: C_5  and  C_6 
REMARK    2  A    between atoms: C_6  and  N_7 
REMARK    3  A    between atoms: C_6  and  C_18 
REMARK    4  A    between atoms: N_7  and  C_8 
ROOT
HETATM    1  C   UNL     1      44.165 -18.109   3.699  1.00  0.00     0.290 C 
ENDROOT
BRANCH   1   2
HETATM    2  C   UNL     1      43.633 -17.854   5.099  1.00  0.00     0.021 A 
HETATM    3  C   UNL     1      42.269 -17.683   5.390  1.00  0.00     0.055 A 
HETATM    4  C   UNL     1      41.852 -17.475   6.703  1.00  0.00     0.117 A 
HETATM    5  C   UNL     1      42.762 -17.440   7.753  1.00  0.00     0.045 A 
HETATM    6  F   UNL     1      40.548 -17.302   6.953  1.00  0.00    -0.206 F 
HETATM    7  C   UNL     1      44.117 -17.617   7.485  1.00  0.00     0.046 A 
HETATM    8  C   UNL     1      44.537 -17.824   6.172  1.00  0.00     0.125 A 
HETATM    9  F   UNL     1      45.849 -17.977   5.937  1.00  0.00    -0.205 F 
ENDBRANCH   1   2
BRANCH   1  10
HETATM   10  N   UNL     1      43.528 -17.314   2.623  1.00  0.00     0.101 N 
HETATM   11  H   UNL     1      43.581 -17.868   1.766  1.00  0.00     0.317 HD
BRANCH  10  12
HETATM   12  C   UNL     1      42.149 -16.861   2.854  1.00  0.00     0.225 C 
HETATM   13  C   UNL     1      41.366 -17.064   1.534  1.00  0.00     0.069 C 
HETATM   14  C   UNL     1      41.839 -16.077   0.477  1.00  0.00     0.190 C 
HETATM   15  N   UNL     1      41.623 -14.678   0.997  1.00  0.00    -0.067 N 
HETATM   16  C   UNL     1      41.059 -16.025  -0.822  1.00  0.00     0.035 C 
HETATM   17  H   UNL     1      40.632 -14.581   1.262  1.00  0.00     0.280 HD
HETATM   18  C   UNL     1      42.447 -14.396   2.214  1.00  0.00     0.237 C 
HETATM   19  C   UNL     1      41.828 -13.783  -0.196  1.00  0.00     0.235 C 
HETATM   20  C   UNL     1      42.030 -15.387   3.299  1.00  0.00     0.063 C 
HETATM   21  C   UNL     1      41.428 -14.653  -1.388  1.00  0.00     0.030 C 
ENDBRANCH  10  12
ENDBRANCH   1  10
BRANCH   1  22
HETATM   22  C   UNL     1      44.139 -19.583   3.302  1.00  0.00    -0.018 A 
HETATM   23  C   UNL     1      44.688 -20.546   4.163  1.00  0.00     0.029 A 
HETATM   24  C   UNL     1      44.685 -21.877   3.774  1.00  0.00     0.116 A 
HETATM   25  N   UNL     1      44.187 -22.312   2.601  1.00  0.00    -0.273 NA
HETATM   26  C   UNL     1      43.656 -21.381   1.783  1.00  0.00     0.116 A 
HETATM   27  C   UNL     1      43.616 -20.026   2.080  1.00  0.00     0.029 A 
ENDBRANCH   1  22
TORSDOF 4
ENDMDL
