MODEL 1
REMARK VINA RESULT:      -8.3      0.000      0.000
REMARK  6 active torsions:
REMARK  status: ('A' for Active; 'I' for Inactive)
REMARK    1  A    between atoms: C_2  and  C_3 
REMARK    2  A    between atoms: C_3  and  N_4 
REMARK    3  A    between atoms: C_3  and  C_11 
REMARK    4  A    between atoms: N_4  and  C_5 
REMARK       I    between atoms: C_11  and  N_12 
REMARK    5  A    between atoms: N_12  and  N_13 
REMARK    6  A    between atoms: C_14  and  C_15 
ROOT
HETATM    1  C   UNL     1      42.074 -14.608   0.625  1.00  0.00     0.255 C 
HETATM    2  N   UNL     1      42.520 -15.901   0.368  1.00  0.00    -0.246 N 
HETATM    3  O   UNL     1      42.236 -13.974   1.665  1.00  0.00    -0.270 OA
HETATM    4  H   UNL     1      42.374 -16.253  -0.578  1.00  0.00     0.192 HD
ENDROOT
BRANCH   2   5
HETATM    5  N   UNL     1      43.174 -16.763   1.206  1.00  0.00    -0.184 NA
HETATM    6  C   UNL     1      42.575 -17.231   2.252  1.00  0.00     0.152 C 
BRANCH   6   7
HETATM    7  C   UNL     1      43.287 -18.148   3.123  1.00  0.00     0.011 A 
HETATM    8  C   UNL     1      43.604 -19.519   2.855  1.00  0.00     0.004 A 
HETATM    9  C   UNL     1      44.309 -20.009   3.955  1.00  0.00     0.043 A 
HETATM   10  C   UNL     1      43.361 -20.391   1.771  1.00  0.00     0.014 A 
HETATM   11  C   UNL     1      44.786 -21.324   4.026  1.00  0.00     0.030 A 
HETATM   12  N   UNL     1      44.411 -18.980   4.862  1.00  0.00    -0.364 N 
HETATM   13  C   UNL     1      44.533 -22.165   2.939  1.00  0.00     0.002 A 
HETATM   14  C   UNL     1      43.830 -21.709   1.828  1.00  0.00     0.001 A 
HETATM   15  H   UNL     1      44.874 -19.049   5.757  1.00  0.00     0.165 HD
HETATM   16  C   UNL     1      43.801 -17.857   4.373  1.00  0.00     0.102 A 
ENDBRANCH   6   7
ENDBRANCH   2   5
BRANCH   1  17
HETATM   17  C   UNL     1      41.341 -13.992  -0.591  1.00  0.00     0.154 C 
BRANCH  17  18
HETATM   18  C   UNL     1      42.021 -12.677  -1.007  1.00  0.00     0.025 C 
HETATM   19  C   UNL     1      42.780 -12.799  -2.321  1.00  0.00     0.007 C 
ENDBRANCH  17  18
BRANCH  17  20
HETATM   20  N   UNL     1      41.394 -14.967  -1.722  1.00  0.00    -0.280 NA
HETATM   21  H   UNL     1      41.643 -15.890  -1.353  1.00  0.00     0.128 HD
BRANCH  20  22
HETATM   22  C   UNL     1      40.184 -15.151  -2.422  1.00  0.00     0.009 A 
HETATM   23  C   UNL     1      39.110 -14.306  -2.124  1.00  0.00     0.023 A 
HETATM   24  C   UNL     1      37.912 -14.392  -2.836  1.00  0.00     0.002 A 
HETATM   25  C   UNL     1      37.784 -15.310  -3.875  1.00  0.00     0.000 A 
HETATM   26  C   UNL     1      38.858 -16.136  -4.204  1.00  0.00     0.002 A 
HETATM   27  C   UNL     1      40.054 -16.050  -3.487  1.00  0.00     0.023 A 
ENDBRANCH  20  22
ENDBRANCH  17  20
ENDBRANCH   1  17
TORSDOF 6
ENDMDL
MODEL 2
REMARK VINA RESULT:      -7.9      1.783      2.367
REMARK  6 active torsions:
REMARK  status: ('A' for Active; 'I' for Inactive)
REMARK    1  A    between atoms: C_2  and  C_3 
REMARK    2  A    between atoms: C_3  and  N_4 
REMARK    3  A    between atoms: C_3  and  C_11 
REMARK    4  A    between atoms: N_4  and  C_5 
REMARK       I    between atoms: C_11  and  N_12 
REMARK    5  A    between atoms: N_12  and  N_13 
REMARK    6  A    between atoms: C_14  and  C_15 
ROOT
HETATM    1  C   UNL     1      39.827 -14.882   2.271  1.00  0.00     0.255 C 
HETATM    2  N   UNL     1      40.728 -15.874   1.893  1.00  0.00    -0.246 N 
HETATM    3  O   UNL     1      39.555 -14.543   3.420  1.00  0.00    -0.270 OA
HETATM    4  H   UNL     1      40.899 -15.975   0.893  1.00  0.00     0.192 HD
ENDROOT
BRANCH   2   5
HETATM    5  N   UNL     1      41.458 -16.714   2.689  1.00  0.00    -0.184 NA
HETATM    6  C   UNL     1      42.498 -17.317   2.213  1.00  0.00     0.152 C 
BRANCH   6   7
HETATM    7  C   UNL     1      43.261 -18.199   3.078  1.00  0.00     0.011 A 
HETATM    8  C   UNL     1      43.600 -19.568   2.827  1.00  0.00     0.004 A 
HETATM    9  C   UNL     1      44.355 -20.018   3.911  1.00  0.00     0.043 A 
HETATM   10  C   UNL     1      43.339 -20.469   1.771  1.00  0.00     0.014 A 
HETATM   11  C   UNL     1      44.864 -21.320   3.993  1.00  0.00     0.030 A 
HETATM   12  N   UNL     1      44.465 -18.967   4.792  1.00  0.00    -0.364 N 
HETATM   13  C   UNL     1      44.591 -22.190   2.934  1.00  0.00     0.002 A 
HETATM   14  C   UNL     1      43.840 -21.774   1.839  1.00  0.00     0.001 A 
HETATM   15  H   UNL     1      44.961 -19.006   5.672  1.00  0.00     0.165 HD
HETATM   16  C   UNL     1      43.813 -17.869   4.301  1.00  0.00     0.102 A 
ENDBRANCH   6   7
ENDBRANCH   2   5
BRANCH   1  17
HETATM   17  C   UNL     1      39.182 -14.185   1.049  1.00  0.00     0.154 C 
BRANCH  17  18
HETATM   18  C   UNL     1      38.460 -12.902   1.493  1.00  0.00     0.025 C 
HETATM   19  C   UNL     1      37.134 -12.695   0.773  1.00  0.00     0.007 C 
ENDBRANCH  17  18
BRANCH  17  20
HETATM   20  N   UNL     1      40.260 -13.844   0.072  1.00  0.00    -0.280 NA
HETATM   21  H   UNL     1      41.142 -14.255   0.395  1.00  0.00     0.128 HD
BRANCH  20  22
HETATM   22  C   UNL     1      40.070 -14.333  -1.237  1.00  0.00     0.009 A 
HETATM   23  C   UNL     1      40.965 -15.289  -1.725  1.00  0.00     0.023 A 
HETATM   24  C   UNL     1      40.784 -15.864  -2.985  1.00  0.00     0.002 A 
HETATM   25  C   UNL     1      39.685 -15.504  -3.761  1.00  0.00     0.000 A 
HETATM   26  C   UNL     1      38.767 -14.576  -3.274  1.00  0.00     0.002 A 
HETATM   27  C   UNL     1      38.954 -14.001  -2.014  1.00  0.00     0.023 A 
ENDBRANCH  20  22
ENDBRANCH  17  20
ENDBRANCH   1  17
TORSDOF 6
ENDMDL
MODEL 3
REMARK VINA RESULT:      -7.9      1.747      2.612
REMARK  6 active torsions:
REMARK  status: ('A' for Active; 'I' for Inactive)
REMARK    1  A    between atoms: C_2  and  C_3 
REMARK    2  A    between atoms: C_3  and  N_4 
REMARK    3  A    between atoms: C_3  and  C_11 
REMARK    4  A    between atoms: N_4  and  C_5 
REMARK       I    between atoms: C_11  and  N_12 
REMARK    5  A    between atoms: N_12  and  N_13 
REMARK    6  A    between atoms: C_14  and  C_15 
ROOT
HETATM    1  C   UNL     1      41.587 -14.919  -0.023  1.00  0.00     0.255 C 
HETATM    2  N   UNL     1      42.006 -16.247  -0.043  1.00  0.00    -0.246 N 
HETATM    3  O   UNL     1      41.885 -14.073   0.815  1.00  0.00    -0.270 OA
HETATM    4  H   UNL     1      41.734 -16.797  -0.857  1.00  0.00     0.192 HD
ENDROOT
BRANCH   2   5
HETATM    5  N   UNL     1      42.779 -16.913   0.869  1.00  0.00    -0.184 NA
HETATM    6  C   UNL     1      42.225 -17.531   1.860  1.00  0.00     0.152 C 
BRANCH   6   7
HETATM    7  C   UNL     1      43.065 -18.236   2.812  1.00  0.00     0.011 A 
HETATM    8  C   UNL     1      43.512 -19.594   2.724  1.00  0.00     0.004 A 
HETATM    9  C   UNL     1      44.310 -19.846   3.841  1.00  0.00     0.043 A 
HETATM   10  C   UNL     1      43.315 -20.637   1.792  1.00  0.00     0.014 A 
HETATM   11  C   UNL     1      44.924 -21.083   4.072  1.00  0.00     0.030 A 
HETATM   12  N   UNL     1      44.343 -18.689   4.584  1.00  0.00    -0.364 N 
HETATM   13  C   UNL     1      44.713 -22.097   3.133  1.00  0.00     0.002 A 
HETATM   14  C   UNL     1      43.920 -21.880   2.010  1.00  0.00     0.001 A 
HETATM   15  H   UNL     1      44.848 -18.579   5.453  1.00  0.00     0.165 HD
HETATM   16  C   UNL     1      43.599 -17.715   3.976  1.00  0.00     0.102 A 
ENDBRANCH   6   7
ENDBRANCH   2   5
BRANCH   1  17
HETATM   17  C   UNL     1      40.686 -14.575  -1.234  1.00  0.00     0.154 C 
BRANCH  17  18
HETATM   18  C   UNL     1      41.000 -15.514  -2.410  1.00  0.00     0.025 C 
HETATM   19  C   UNL     1      39.919 -15.494  -3.482  1.00  0.00     0.007 C 
ENDBRANCH  17  18
BRANCH  17  20
HETATM   20  N   UNL     1      39.258 -14.739  -0.825  1.00  0.00    -0.280 NA
HETATM   21  H   UNL     1      39.223 -15.266   0.054  1.00  0.00     0.128 HD
BRANCH  20  22
HETATM   22  C   UNL     1      38.557 -13.540  -0.578  1.00  0.00     0.009 A 
HETATM   23  C   UNL     1      38.745 -12.468  -1.456  1.00  0.00     0.023 A 
HETATM   24  C   UNL     1      38.022 -11.283  -1.305  1.00  0.00     0.002 A 
HETATM   25  C   UNL     1      37.082 -11.167  -0.285  1.00  0.00     0.000 A 
HETATM   26  C   UNL     1      36.860 -12.240   0.578  1.00  0.00     0.002 A 
HETATM   27  C   UNL     1      37.588 -13.423   0.425  1.00  0.00     0.023 A 
ENDBRANCH  20  22
ENDBRANCH  17  20
ENDBRANCH   1  17
TORSDOF 6
ENDMDL
MODEL 4
REMARK VINA RESULT:      -7.8      1.381      3.152
REMARK  6 active torsions:
REMARK  status: ('A' for Active; 'I' for Inactive)
REMARK    1  A    between atoms: C_2  and  C_3 
REMARK    2  A    between atoms: C_3  and  N_4 
REMARK    3  A    between atoms: C_3  and  C_11 
REMARK    4  A    between atoms: N_4  and  C_5 
REMARK       I    between atoms: C_11  and  N_12 
REMARK    5  A    between atoms: N_12  and  N_13 
REMARK    6  A    between atoms: C_14  and  C_15 
ROOT
HETATM    1  C   UNL     1      41.271 -15.424  -0.251  1.00  0.00     0.255 C 
HETATM    2  N   UNL     1      42.262 -16.383  -0.065  1.00  0.00    -0.246 N 
HETATM    3  O   UNL     1      40.429 -15.076   0.573  1.00  0.00    -0.270 OA
HETATM    4  H   UNL     1      42.935 -16.495  -0.823  1.00  0.00     0.192 HD
ENDROOT
BRANCH   2   5
HETATM    5  N   UNL     1      42.490 -17.177   1.027  1.00  0.00    -0.184 NA
HETATM    6  C   UNL     1      43.698 -17.384   1.438  1.00  0.00     0.152 C 
BRANCH   6   7
HETATM    7  C   UNL     1      43.915 -18.224   2.602  1.00  0.00     0.011 A 
HETATM    8  C   UNL     1      44.098 -19.645   2.615  1.00  0.00     0.004 A 
HETATM    9  C   UNL     1      44.293 -20.030   3.942  1.00  0.00     0.043 A 
HETATM   10  C   UNL     1      44.122 -20.644   1.616  1.00  0.00     0.014 A 
HETATM   11  C   UNL     1      44.513 -21.360   4.322  1.00  0.00     0.030 A 
HETATM   12  N   UNL     1      44.223 -18.890   4.708  1.00  0.00    -0.364 N 
HETATM   13  C   UNL     1      44.532 -22.327   3.313  1.00  0.00     0.002 A 
HETATM   14  C   UNL     1      44.339 -21.978   1.980  1.00  0.00     0.001 A 
HETATM   15  H   UNL     1      44.328 -18.868   5.713  1.00  0.00     0.165 HD
HETATM   16  C   UNL     1      43.998 -17.799   3.914  1.00  0.00     0.102 A 
ENDBRANCH   6   7
ENDBRANCH   2   5
BRANCH   1  17
HETATM   17  C   UNL     1      41.343 -14.777  -1.655  1.00  0.00     0.154 C 
BRANCH  17  18
HETATM   18  C   UNL     1      40.742 -15.726  -2.705  1.00  0.00     0.025 C 
HETATM   19  C   UNL     1      39.549 -15.118  -3.431  1.00  0.00     0.007 C 
ENDBRANCH  17  18
BRANCH  17  20
HETATM   20  N   UNL     1      40.570 -13.499  -1.629  1.00  0.00    -0.280 NA
HETATM   21  H   UNL     1      40.175 -13.369  -0.692  1.00  0.00     0.128 HD
BRANCH  20  22
HETATM   22  C   UNL     1      41.318 -12.332  -1.893  1.00  0.00     0.009 A 
HETATM   23  C   UNL     1      42.400 -12.036  -1.059  1.00  0.00     0.023 A 
HETATM   24  C   UNL     1      43.222 -10.936  -1.315  1.00  0.00     0.002 A 
HETATM   25  C   UNL     1      42.982 -10.133  -2.427  1.00  0.00     0.000 A 
HETATM   26  C   UNL     1      41.926 -10.436  -3.285  1.00  0.00     0.002 A 
HETATM   27  C   UNL     1      41.104 -11.536  -3.024  1.00  0.00     0.023 A 
ENDBRANCH  20  22
ENDBRANCH  17  20
ENDBRANCH   1  17
TORSDOF 6
ENDMDL
MODEL 5
REMARK VINA RESULT:      -7.7      1.050      1.995
REMARK  6 active torsions:
REMARK  status: ('A' for Active; 'I' for Inactive)
REMARK    1  A    between atoms: C_2  and  C_3 
REMARK    2  A    between atoms: C_3  and  N_4 
REMARK    3  A    between atoms: C_3  and  C_11 
REMARK    4  A    between atoms: N_4  and  C_5 
REMARK       I    between atoms: C_11  and  N_12 
REMARK    5  A    between atoms: N_12  and  N_13 
REMARK    6  A    between atoms: C_14  and  C_15 
ROOT
HETATM    1  C   UNL     1      41.582 -14.832   0.571  1.00  0.00     0.255 C 
HETATM    2  N   UNL     1      41.974 -16.123   0.232  1.00  0.00    -0.246 N 
HETATM    3  O   UNL     1      41.487 -14.373   1.707  1.00  0.00    -0.270 OA
HETATM    4  H   UNL     1      42.081 -16.319  -0.763  1.00  0.00     0.192 HD
ENDROOT
BRANCH   2   5
HETATM    5  N   UNL     1      42.282 -17.169   1.059  1.00  0.00    -0.184 NA
HETATM    6  C   UNL     1      43.507 -17.564   1.177  1.00  0.00     0.152 C 
BRANCH   6   7
HETATM    7  C   UNL     1      43.811 -18.671   2.066  1.00  0.00     0.011 A 
HETATM    8  C   UNL     1      43.986 -18.611   3.486  1.00  0.00     0.004 A 
HETATM    9  C   UNL     1      44.244 -19.908   3.932  1.00  0.00     0.043 A 
HETATM   10  C   UNL     1      43.943 -17.570   4.441  1.00  0.00     0.014 A 
HETATM   11  C   UNL     1      44.457 -20.219   5.281  1.00  0.00     0.030 A 
HETATM   12  N   UNL     1      44.235 -20.725   2.826  1.00  0.00    -0.364 N 
HETATM   13  C   UNL     1      44.408 -19.170   6.203  1.00  0.00     0.002 A 
HETATM   14  C   UNL     1      44.156 -17.864   5.792  1.00  0.00     0.001 A 
HETATM   15  H   UNL     1      44.394 -21.723   2.849  1.00  0.00     0.165 HD
HETATM   16  C   UNL     1      43.975 -19.993   1.699  1.00  0.00     0.102 A 
ENDBRANCH   6   7
ENDBRANCH   2   5
BRANCH   1  17
HETATM   17  C   UNL     1      41.289 -13.965  -0.677  1.00  0.00     0.154 C 
BRANCH  17  18
HETATM   18  C   UNL     1      42.324 -12.834  -0.789  1.00  0.00     0.025 C 
HETATM   19  C   UNL     1      42.803 -12.616  -2.218  1.00  0.00     0.007 C 
ENDBRANCH  17  18
BRANCH  17  20
HETATM   20  N   UNL     1      41.361 -14.836  -1.889  1.00  0.00    -0.280 NA
HETATM   21  H   UNL     1      41.695 -15.765  -1.610  1.00  0.00     0.128 HD
BRANCH  20  22
HETATM   22  C   UNL     1      40.136 -15.056  -2.552  1.00  0.00     0.009 A 
HETATM   23  C   UNL     1      39.079 -14.174  -2.302  1.00  0.00     0.023 A 
HETATM   24  C   UNL     1      37.868 -14.296  -2.986  1.00  0.00     0.002 A 
HETATM   25  C   UNL     1      37.709 -15.291  -3.948  1.00  0.00     0.000 A 
HETATM   26  C   UNL     1      38.765 -16.155  -4.230  1.00  0.00     0.002 A 
HETATM   27  C   UNL     1      39.975 -16.032  -3.542  1.00  0.00     0.023 A 
ENDBRANCH  20  22
ENDBRANCH  17  20
ENDBRANCH   1  17
TORSDOF 6
ENDMDL
MODEL 6
REMARK VINA RESULT:      -7.7      1.975      2.927
REMARK  6 active torsions:
REMARK  status: ('A' for Active; 'I' for Inactive)
REMARK    1  A    between atoms: C_2  and  C_3 
REMARK    2  A    between atoms: C_3  and  N_4 
REMARK    3  A    between atoms: C_3  and  C_11 
REMARK    4  A    between atoms: N_4  and  C_5 
REMARK       I    between atoms: C_11  and  N_12 
REMARK    5  A    between atoms: N_12  and  N_13 
REMARK    6  A    between atoms: C_14  and  C_15 
ROOT
HETATM    1  C   UNL     1      42.497 -14.044   2.629  1.00  0.00     0.255 C 
HETATM    2  N   UNL     1      41.895 -15.294   2.737  1.00  0.00    -0.246 N 
HETATM    3  O   UNL     1      43.606 -13.730   3.054  1.00  0.00    -0.270 OA
HETATM    4  H   UNL     1      41.003 -15.412   2.256  1.00  0.00     0.192 HD
ENDROOT
BRANCH   2   5
HETATM    5  N   UNL     1      42.359 -16.415   3.370  1.00  0.00    -0.184 NA
HETATM    6  C   UNL     1      43.466 -16.964   2.990  1.00  0.00     0.152 C 
BRANCH   6   7
HETATM    7  C   UNL     1      43.942 -18.149   3.680  1.00  0.00     0.011 A 
HETATM    8  C   UNL     1      43.995 -19.483   3.163  1.00  0.00     0.004 A 
HETATM    9  C   UNL     1      44.538 -20.298   4.158  1.00  0.00     0.043 A 
HETATM   10  C   UNL     1      43.634 -20.077   1.933  1.00  0.00     0.014 A 
HETATM   11  C   UNL     1      44.742 -21.673   3.986  1.00  0.00     0.030 A 
HETATM   12  N   UNL     1      44.798 -19.493   5.242  1.00  0.00    -0.364 N 
HETATM   13  C   UNL     1      44.377 -22.234   2.759  1.00  0.00     0.002 A 
HETATM   14  C   UNL     1      43.831 -21.451   1.746  1.00  0.00     0.001 A 
HETATM   15  H   UNL     1      45.197 -19.815   6.113  1.00  0.00     0.165 HD
HETATM   16  C   UNL     1      44.446 -18.200   4.967  1.00  0.00     0.102 A 
ENDBRANCH   6   7
ENDBRANCH   2   5
BRANCH   1  17
HETATM   17  C   UNL     1      41.612 -13.036   1.858  1.00  0.00     0.154 C 
BRANCH  17  18
HETATM   18  C   UNL     1      41.016 -12.005   2.830  1.00  0.00     0.025 C 
HETATM   19  C   UNL     1      39.605 -11.581   2.445  1.00  0.00     0.007 C 
ENDBRANCH  17  18
BRANCH  17  20
HETATM   20  N   UNL     1      42.459 -12.340   0.842  1.00  0.00    -0.280 NA
HETATM   21  H   UNL     1      43.438 -12.603   0.991  1.00  0.00     0.128 HD
BRANCH  20  22
HETATM   22  C   UNL     1      42.179 -12.662  -0.503  1.00  0.00     0.009 A 
HETATM   23  C   UNL     1      42.817 -11.926  -1.507  1.00  0.00     0.023 A 
HETATM   24  C   UNL     1      42.637 -12.247  -2.854  1.00  0.00     0.002 A 
HETATM   25  C   UNL     1      41.834 -13.328  -3.210  1.00  0.00     0.000 A 
HETATM   26  C   UNL     1      41.219 -14.090  -2.219  1.00  0.00     0.002 A 
HETATM   27  C   UNL     1      41.398 -13.763  -0.872  1.00  0.00     0.023 A 
ENDBRANCH  20  22
ENDBRANCH  17  20
ENDBRANCH   1  17
TORSDOF 6
ENDMDL
MODEL 7
REMARK VINA RESULT:      -7.3      6.338      9.521
REMARK  6 active torsions:
REMARK  status: ('A' for Active; 'I' for Inactive)
REMARK    1  A    between atoms: C_2  and  C_3 
REMARK    2  A    between atoms: C_3  and  N_4 
REMARK    3  A    between atoms: C_3  and  C_11 
REMARK    4  A    between atoms: N_4  and  C_5 
REMARK       I    between atoms: C_11  and  N_12 
REMARK    5  A    between atoms: N_12  and  N_13 
REMARK    6  A    between atoms: C_14  and  C_15 
ROOT
HETATM    1  C   UNL     1      43.638 -13.036   7.329  1.00  0.00     0.255 C 
HETATM    2  N   UNL     1      44.095 -14.266   6.865  1.00  0.00    -0.246 N 
HETATM    3  O   UNL     1      42.754 -12.349   6.823  1.00  0.00    -0.270 OA
HETATM    4  H   UNL     1      44.780 -14.746   7.449  1.00  0.00     0.192 HD
ENDROOT
BRANCH   2   5
HETATM    5  N   UNL     1      43.716 -14.951   5.742  1.00  0.00    -0.184 NA
HETATM    6  C   UNL     1      43.486 -16.222   5.805  1.00  0.00     0.152 C 
BRANCH   6   7
HETATM    7  C   UNL     1      43.080 -16.926   4.602  1.00  0.00     0.011 A 
HETATM    8  C   UNL     1      43.585 -18.180   4.127  1.00  0.00     0.004 A 
HETATM    9  C   UNL     1      42.901 -18.489   2.951  1.00  0.00     0.043 A 
HETATM   10  C   UNL     1      44.562 -19.088   4.593  1.00  0.00     0.014 A 
HETATM   11  C   UNL     1      43.139 -19.659   2.219  1.00  0.00     0.030 A 
HETATM   12  N   UNL     1      42.019 -17.461   2.714  1.00  0.00    -0.364 N 
HETATM   13  C   UNL     1      44.110 -20.540   2.703  1.00  0.00     0.002 A 
HETATM   14  C   UNL     1      44.813 -20.261   3.872  1.00  0.00     0.001 A 
HETATM   15  H   UNL     1      41.388 -17.417   1.925  1.00  0.00     0.165 HD
HETATM   16  C   UNL     1      42.117 -16.517   3.699  1.00  0.00     0.102 A 
ENDBRANCH   6   7
ENDBRANCH   2   5
BRANCH   1  17
HETATM   17  C   UNL     1      44.360 -12.597   8.626  1.00  0.00     0.154 C 
BRANCH  17  18
HETATM   18  C   UNL     1      45.879 -12.545   8.392  1.00  0.00     0.025 C 
HETATM   19  C   UNL     1      46.504 -11.246   8.884  1.00  0.00     0.007 C 
ENDBRANCH  17  18
BRANCH  17  20
HETATM   20  N   UNL     1      43.862 -11.242   9.012  1.00  0.00    -0.280 NA
HETATM   21  H   UNL     1      43.251 -10.889   8.268  1.00  0.00     0.128 HD
BRANCH  20  22
HETATM   22  C   UNL     1      43.092 -11.193  10.193  1.00  0.00     0.009 A 
HETATM   23  C   UNL     1      43.731 -11.438  11.412  1.00  0.00     0.023 A 
HETATM   24  C   UNL     1      43.037 -11.329  12.619  1.00  0.00     0.002 A 
HETATM   25  C   UNL     1      41.698 -10.948  12.619  1.00  0.00     0.000 A 
HETATM   26  C   UNL     1      41.057 -10.669  11.413  1.00  0.00     0.002 A 
HETATM   27  C   UNL     1      41.754 -10.782  10.207  1.00  0.00     0.023 A 
ENDBRANCH  20  22
ENDBRANCH  17  20
ENDBRANCH   1  17
TORSDOF 6
ENDMDL
MODEL 8
REMARK VINA RESULT:      -7.3      1.924      8.153
REMARK  6 active torsions:
REMARK  status: ('A' for Active; 'I' for Inactive)
REMARK    1  A    between atoms: C_2  and  C_3 
REMARK    2  A    between atoms: C_3  and  N_4 
REMARK    3  A    between atoms: C_3  and  C_11 
REMARK    4  A    between atoms: N_4  and  C_5 
REMARK       I    between atoms: C_11  and  N_12 
REMARK    5  A    between atoms: N_12  and  N_13 
REMARK    6  A    between atoms: C_14  and  C_15 
ROOT
HETATM    1  C   UNL     1      42.486 -15.730   4.490  1.00  0.00     0.255 C 
HETATM    2  N   UNL     1      43.151 -15.251   3.365  1.00  0.00    -0.246 N 
HETATM    3  O   UNL     1      41.303 -15.550   4.769  1.00  0.00    -0.270 OA
HETATM    4  H   UNL     1      44.114 -15.560   3.240  1.00  0.00     0.192 HD
ENDROOT
BRANCH   2   5
HETATM    5  N   UNL     1      42.672 -14.446   2.367  1.00  0.00    -0.184 NA
HETATM    6  C   UNL     1      42.041 -14.963   1.364  1.00  0.00     0.152 C 
BRANCH   6   7
HETATM    7  C   UNL     1      41.536 -14.089   0.320  1.00  0.00     0.011 A 
HETATM    8  C   UNL     1      41.118 -14.472  -0.995  1.00  0.00     0.004 A 
HETATM    9  C   UNL     1      40.691 -13.318  -1.653  1.00  0.00     0.043 A 
HETATM   10  C   UNL     1      41.057 -15.701  -1.690  1.00  0.00     0.014 A 
HETATM   11  C   UNL     1      40.204 -13.328  -2.966  1.00  0.00     0.030 A 
HETATM   12  N   UNL     1      40.850 -12.271  -0.775  1.00  0.00    -0.364 N 
HETATM   13  C   UNL     1      40.154 -14.557  -3.629  1.00  0.00     0.002 A 
HETATM   14  C   UNL     1      40.575 -15.727  -3.004  1.00  0.00     0.001 A 
HETATM   15  H   UNL     1      40.621 -11.308  -0.984  1.00  0.00     0.165 HD
HETATM   16  C   UNL     1      41.356 -12.722   0.413  1.00  0.00     0.102 A 
ENDBRANCH   6   7
ENDBRANCH   2   5
BRANCH   1  17
HETATM   17  C   UNL     1      43.409 -16.582   5.394  1.00  0.00     0.154 C 
BRANCH  17  18
HETATM   18  C   UNL     1      43.403 -16.027   6.827  1.00  0.00     0.025 C 
HETATM   19  C   UNL     1      43.115 -17.099   7.870  1.00  0.00     0.007 C 
ENDBRANCH  17  18
BRANCH  17  20
HETATM   20  N   UNL     1      42.906 -17.989   5.395  1.00  0.00    -0.280 NA
HETATM   21  H   UNL     1      41.904 -17.983   5.177  1.00  0.00     0.128 HD
BRANCH  20  22
HETATM   22  C   UNL     1      43.498 -18.846   4.443  1.00  0.00     0.009 A 
HETATM   23  C   UNL     1      44.450 -19.770   4.885  1.00  0.00     0.023 A 
HETATM   24  C   UNL     1      45.015 -20.694   4.002  1.00  0.00     0.002 A 
HETATM   25  C   UNL     1      44.611 -20.718   2.670  1.00  0.00     0.000 A 
HETATM   26  C   UNL     1      43.639 -19.824   2.224  1.00  0.00     0.002 A 
HETATM   27  C   UNL     1      43.079 -18.900   3.109  1.00  0.00     0.023 A 
ENDBRANCH  20  22
ENDBRANCH  17  20
ENDBRANCH   1  17
TORSDOF 6
ENDMDL
MODEL 9
REMARK VINA RESULT:      -7.3      1.892      8.331
REMARK  6 active torsions:
REMARK  status: ('A' for Active; 'I' for Inactive)
REMARK    1  A    between atoms: C_2  and  C_3 
REMARK    2  A    between atoms: C_3  and  N_4 
REMARK    3  A    between atoms: C_3  and  C_11 
REMARK    4  A    between atoms: N_4  and  C_5 
REMARK       I    between atoms: C_11  and  N_12 
REMARK    5  A    between atoms: N_12  and  N_13 
REMARK    6  A    between atoms: C_14  and  C_15 
ROOT
HETATM    1  C   UNL     1      42.789 -14.892   2.981  1.00  0.00     0.255 C 
HETATM    2  N   UNL     1      41.748 -15.177   2.102  1.00  0.00    -0.246 N 
HETATM    3  O   UNL     1      43.591 -13.965   2.885  1.00  0.00    -0.270 OA
HETATM    4  H   UNL     1      41.121 -15.935   2.371  1.00  0.00     0.192 HD
ENDROOT
BRANCH   2   5
HETATM    5  N   UNL     1      41.418 -14.545   0.934  1.00  0.00    -0.184 NA
HETATM    6  C   UNL     1      41.680 -15.104  -0.202  1.00  0.00     0.152 C 
BRANCH   6   7
HETATM    7  C   UNL     1      41.315 -14.418  -1.428  1.00  0.00     0.011 A 
HETATM    8  C   UNL     1      41.799 -13.148  -1.880  1.00  0.00     0.004 A 
HETATM    9  C   UNL     1      41.199 -12.885  -3.113  1.00  0.00     0.043 A 
HETATM   10  C   UNL     1      42.699 -12.194  -1.356  1.00  0.00     0.014 A 
HETATM   11  C   UNL     1      41.455 -11.722  -3.850  1.00  0.00     0.030 A 
HETATM   12  N   UNL     1      40.376 -13.950  -3.397  1.00  0.00    -0.364 N 
HETATM   13  C   UNL     1      42.351 -10.796  -3.308  1.00  0.00     0.002 A 
HETATM   14  C   UNL     1      42.964 -11.026  -2.080  1.00  0.00     0.001 A 
HETATM   15  H   UNL     1      39.811 -14.031  -4.232  1.00  0.00     0.165 HD
HETATM   16  C   UNL     1      40.438 -14.877  -2.393  1.00  0.00     0.102 A 
ENDBRANCH   6   7
ENDBRANCH   2   5
BRANCH   1  17
HETATM   17  C   UNL     1      42.834 -15.880   4.171  1.00  0.00     0.154 C 
BRANCH  17  18
HETATM   18  C   UNL     1      42.215 -15.232   5.419  1.00  0.00     0.025 C 
HETATM   19  C   UNL     1      40.792 -15.706   5.682  1.00  0.00     0.007 C 
ENDBRANCH  17  18
BRANCH  17  20
HETATM   20  N   UNL     1      42.061 -17.104   3.802  1.00  0.00    -0.280 NA
HETATM   21  H   UNL     1      41.542 -16.920   2.937  1.00  0.00     0.128 HD
BRANCH  20  22
HETATM   22  C   UNL     1      42.835 -18.256   3.545  1.00  0.00     0.009 A 
HETATM   23  C   UNL     1      42.792 -18.810   2.262  1.00  0.00     0.023 A 
HETATM   24  C   UNL     1      43.592 -19.905   1.927  1.00  0.00     0.002 A 
HETATM   25  C   UNL     1      44.466 -20.441   2.870  1.00  0.00     0.000 A 
HETATM   26  C   UNL     1      44.542 -19.877   4.143  1.00  0.00     0.002 A 
HETATM   27  C   UNL     1      43.737 -18.784   4.474  1.00  0.00     0.023 A 
ENDBRANCH  20  22
ENDBRANCH  17  20
ENDBRANCH   1  17
TORSDOF 6
ENDMDL
MODEL 10
REMARK VINA RESULT:      -7.2      2.794      4.336
REMARK  6 active torsions:
REMARK  status: ('A' for Active; 'I' for Inactive)
REMARK    1  A    between atoms: C_2  and  C_3 
REMARK    2  A    between atoms: C_3  and  N_4 
REMARK    3  A    between atoms: C_3  and  C_11 
REMARK    4  A    between atoms: N_4  and  C_5 
REMARK       I    between atoms: C_11  and  N_12 
REMARK    5  A    between atoms: N_12  and  N_13 
REMARK    6  A    between atoms: C_14  and  C_15 
ROOT
HETATM    1  C   UNL     1      42.386 -14.006   2.015  1.00  0.00     0.255 C 
HETATM    2  N   UNL     1      42.265 -15.368   1.754  1.00  0.00    -0.246 N 
HETATM    3  O   UNL     1      43.240 -13.472   2.720  1.00  0.00    -0.270 OA
HETATM    4  H   UNL     1      41.549 -15.639   1.080  1.00  0.00     0.192 HD
ENDROOT
BRANCH   2   5
HETATM    5  N   UNL     1      43.010 -16.403   2.250  1.00  0.00    -0.184 NA
HETATM    6  C   UNL     1      42.657 -16.989   3.348  1.00  0.00     0.152 C 
BRANCH   6   7
HETATM    7  C   UNL     1      43.459 -18.089   3.851  1.00  0.00     0.011 A 
HETATM    8  C   UNL     1      43.648 -19.368   3.235  1.00  0.00     0.004 A 
HETATM    9  C   UNL     1      44.507 -20.105   4.053  1.00  0.00     0.043 A 
HETATM   10  C   UNL     1      43.170 -19.971   2.051  1.00  0.00     0.014 A 
HETATM   11  C   UNL     1      44.916 -21.408   3.746  1.00  0.00     0.030 A 
HETATM   12  N   UNL     1      44.823 -19.308   5.129  1.00  0.00    -0.364 N 
HETATM   13  C   UNL     1      44.429 -21.979   2.567  1.00  0.00     0.002 A 
HETATM   14  C   UNL     1      43.568 -21.274   1.731  1.00  0.00     0.001 A 
HETATM   15  H   UNL     1      45.432 -19.583   5.887  1.00  0.00     0.165 HD
HETATM   16  C   UNL     1      44.200 -18.095   5.018  1.00  0.00     0.102 A 
ENDBRANCH   6   7
ENDBRANCH   2   5
BRANCH   1  17
HETATM   17  C   UNL     1      41.312 -13.173   1.276  1.00  0.00     0.154 C 
BRANCH  17  18
HETATM   18  C   UNL     1      41.417 -13.403  -0.241  1.00  0.00     0.025 C 
HETATM   19  C   UNL     1      42.297 -12.370  -0.931  1.00  0.00     0.007 C 
ENDBRANCH  17  18
BRANCH  17  20
HETATM   20  N   UNL     1      39.964 -13.601   1.758  1.00  0.00    -0.280 NA
HETATM   21  H   UNL     1      39.912 -14.624   1.733  1.00  0.00     0.128 HD
BRANCH  20  22
HETATM   22  C   UNL     1      39.651 -13.236   3.085  1.00  0.00     0.009 A 
HETATM   23  C   UNL     1      39.870 -14.174   4.099  1.00  0.00     0.023 A 
HETATM   24  C   UNL     1      39.650 -13.845   5.438  1.00  0.00     0.002 A 
HETATM   25  C   UNL     1      39.230 -12.561   5.779  1.00  0.00     0.000 A 
HETATM   26  C   UNL     1      39.039 -11.607   4.781  1.00  0.00     0.002 A 
HETATM   27  C   UNL     1      39.258 -11.941   3.442  1.00  0.00     0.023 A 
ENDBRANCH  20  22
ENDBRANCH  17  20
ENDBRANCH   1  17
TORSDOF 6
ENDMDL
