MODEL 1
REMARK VINA RESULT:      -7.8      0.000      0.000
REMARK  8 active torsions:
REMARK  status: ('A' for Active; 'I' for Inactive)
REMARK    1  A    between atoms: C_2  and  S_3 
REMARK    2  A    between atoms: S_3  and  C_4 
REMARK    3  A    between atoms: C_7  and  N_8 
REMARK    4  A    between atoms: N_8  and  C_9 
REMARK    5  A    between atoms: C_9  and  N_10 
REMARK       I    between atoms: N_10  and  C_11 
REMARK    6  A    between atoms: C_11  and  C_12 
REMARK    7  A    between atoms: C_21  and  C_22 
REMARK       I    between atoms: C_22  and  N_23 
REMARK    8  A    between atoms: C_25  and  C_26 
REMARK       I    between atoms: C_26  and  N_27 
ROOT
HETATM    1  C   UNL     1      39.358 -13.603   1.717  1.00  0.00     0.088 A 
HETATM    2  N   UNL     1      39.568 -14.190   2.924  1.00  0.00    -0.335 N 
HETATM    3  H   UNL     1      39.282 -13.792   3.808  1.00  0.00     0.168 HD
HETATM    4  C   UNL     1      40.253 -15.360   2.778  1.00  0.00     0.125 A 
HETATM    5  C   UNL     1      40.435 -15.565   1.409  1.00  0.00     0.094 A 
HETATM    6  C   UNL     1      39.885 -14.405   0.716  1.00  0.00     0.084 A 
ENDROOT
BRANCH   4   7
HETATM    7  N   UNL     1      40.668 -16.147   3.844  1.00  0.00    -0.318 N 
HETATM    8  H   UNL     1      39.938 -16.692   4.312  1.00  0.00     0.170 HD
BRANCH   7   9
HETATM    9  C   UNL     1      41.946 -16.376   4.305  1.00  0.00     0.180 C 
HETATM   10  S   UNL     1      42.949 -15.364   5.184  1.00  0.00    -0.040 SA
BRANCH   9  11
HETATM   11  N   UNL     1      42.464 -17.622   3.990  1.00  0.00    -0.299 N 
HETATM   12  C   UNL     1      43.495 -17.934   3.113  1.00  0.00     0.259 C 
HETATM   13  O   UNL     1      44.085 -17.106   2.428  1.00  0.00    -0.267 OA
HETATM   14  H   UNL     1      42.013 -18.379   4.489  1.00  0.00     0.171 HD
BRANCH  12  15
HETATM   15  C   UNL     1      43.823 -19.374   3.024  1.00  0.00     0.054 A 
HETATM   16  C   UNL     1      44.527 -20.024   4.045  1.00  0.00     0.049 A 
HETATM   17 CL   UNL     1      45.004 -19.235   5.503  1.00  0.00    -0.083 Cl
HETATM   18  C   UNL     1      44.822 -21.386   3.920  1.00  0.00     0.025 A 
HETATM   19  C   UNL     1      44.420 -22.094   2.785  1.00  0.00     0.002 A 
HETATM   20  C   UNL     1      43.724 -21.446   1.767  1.00  0.00     0.001 A 
HETATM   21  C   UNL     1      43.427 -20.087   1.881  1.00  0.00     0.019 A 
ENDBRANCH  12  15
ENDBRANCH   9  11
ENDBRANCH   7   9
ENDBRANCH   4   7
BRANCH   5  22
HETATM   22  C   UNL     1      41.099 -16.723   0.820  1.00  0.00     0.254 C 
HETATM   23  N   UNL     1      42.127 -16.453  -0.034  1.00  0.00    -0.366 N 
HETATM   24  H   UNL     1      42.506 -15.525  -0.163  1.00  0.00     0.159 HD
HETATM   25  H   UNL     1      42.629 -17.233  -0.436  1.00  0.00     0.159 HD
HETATM   26  O   UNL     1      40.796 -17.883   1.079  1.00  0.00    -0.268 OA
ENDBRANCH   5  22
BRANCH   1  27
HETATM   27  S   UNL     1      38.509 -12.091   1.753  1.00  0.00    -0.112 SA
BRANCH  27  28
HETATM   28  C   UNL     1      39.433 -11.222   3.054  1.00  0.00     0.076 C 
HETATM   29  C   UNL     1      38.526 -10.953   4.242  1.00  0.00     0.016 C 
ENDBRANCH  27  28
ENDBRANCH   1  27
BRANCH   6  30
HETATM   30  C   UNL     1      39.815 -14.085  -0.715  1.00  0.00     0.253 C 
HETATM   31  N   UNL     1      38.615 -14.231  -1.344  1.00  0.00    -0.366 N 
HETATM   32  H   UNL     1      37.829 -14.720  -0.923  1.00  0.00     0.159 HD
HETATM   33  H   UNL     1      38.606 -14.107  -2.344  1.00  0.00     0.159 HD
HETATM   34  O   UNL     1      40.774 -13.712  -1.384  1.00  0.00    -0.268 OA
ENDBRANCH   6  30
TORSDOF 8
ENDMDL
MODEL 2
REMARK VINA RESULT:      -7.8      3.212      4.618
REMARK  8 active torsions:
REMARK  status: ('A' for Active; 'I' for Inactive)
REMARK    1  A    between atoms: C_2  and  S_3 
REMARK    2  A    between atoms: S_3  and  C_4 
REMARK    3  A    between atoms: C_7  and  N_8 
REMARK    4  A    between atoms: N_8  and  C_9 
REMARK    5  A    between atoms: C_9  and  N_10 
REMARK       I    between atoms: N_10  and  C_11 
REMARK    6  A    between atoms: C_11  and  C_12 
REMARK    7  A    between atoms: C_21  and  C_22 
REMARK       I    between atoms: C_22  and  N_23 
REMARK    8  A    between atoms: C_25  and  C_26 
REMARK       I    between atoms: C_26  and  N_27 
ROOT
HETATM    1  C   UNL     1      41.455 -15.489   4.130  1.00  0.00     0.088 A 
HETATM    2  N   UNL     1      41.476 -16.526   5.009  1.00  0.00    -0.335 N 
HETATM    3  H   UNL     1      40.908 -17.358   4.920  1.00  0.00     0.168 HD
HETATM    4  C   UNL     1      42.329 -16.266   6.040  1.00  0.00     0.125 A 
HETATM    5  C   UNL     1      42.932 -15.034   5.779  1.00  0.00     0.094 A 
HETATM    6  C   UNL     1      42.340 -14.508   4.554  1.00  0.00     0.084 A 
ENDROOT
BRANCH   4   7
HETATM    7  N   UNL     1      42.508 -17.116   7.123  1.00  0.00    -0.318 N 
HETATM    8  H   UNL     1      41.933 -16.923   7.948  1.00  0.00     0.170 HD
BRANCH   7   9
HETATM    9  C   UNL     1      43.286 -18.250   7.214  1.00  0.00     0.180 C 
HETATM   10  S   UNL     1      44.111 -18.863   8.536  1.00  0.00    -0.040 SA
BRANCH   9  11
HETATM   11  N   UNL     1      43.396 -18.976   6.039  1.00  0.00    -0.299 N 
HETATM   12  C   UNL     1      44.517 -19.169   5.242  1.00  0.00     0.259 C 
HETATM   13  O   UNL     1      45.608 -18.656   5.460  1.00  0.00    -0.267 OA
HETATM   14  H   UNL     1      42.527 -19.416   5.759  1.00  0.00     0.171 HD
BRANCH  12  15
HETATM   15  C   UNL     1      44.298 -20.029   4.057  1.00  0.00     0.054 A 
HETATM   16  C   UNL     1      44.613 -21.392   4.079  1.00  0.00     0.049 A 
HETATM   17 CL   UNL     1      45.206 -22.194   5.488  1.00  0.00    -0.083 Cl
HETATM   18  C   UNL     1      44.396 -22.169   2.936  1.00  0.00     0.025 A 
HETATM   19  C   UNL     1      43.871 -21.590   1.778  1.00  0.00     0.002 A 
HETATM   20  C   UNL     1      43.563 -20.231   1.755  1.00  0.00     0.001 A 
HETATM   21  C   UNL     1      43.778 -19.447   2.890  1.00  0.00     0.019 A 
ENDBRANCH  12  15
ENDBRANCH   9  11
ENDBRANCH   7   9
ENDBRANCH   4   7
BRANCH   5  22
HETATM   22  C   UNL     1      43.938 -14.402   6.626  1.00  0.00     0.254 C 
HETATM   23  N   UNL     1      43.553 -13.256   7.258  1.00  0.00    -0.366 N 
HETATM   24  H   UNL     1      42.600 -12.922   7.259  1.00  0.00     0.159 HD
HETATM   25  H   UNL     1      44.215 -12.809   7.876  1.00  0.00     0.159 HD
HETATM   26  O   UNL     1      45.061 -14.861   6.804  1.00  0.00    -0.268 OA
ENDBRANCH   5  22
BRANCH   1  27
HETATM   27  S   UNL     1      40.395 -15.675   2.770  1.00  0.00    -0.112 SA
BRANCH  27  28
HETATM   28  C   UNL     1      41.553 -16.333   1.534  1.00  0.00     0.076 C 
HETATM   29  C   UNL     1      41.030 -17.648   0.983  1.00  0.00     0.016 C 
ENDBRANCH  27  28
ENDBRANCH   1  27
BRANCH   6  30
HETATM   30  C   UNL     1      42.586 -13.256   3.828  1.00  0.00     0.253 C 
HETATM   31  N   UNL     1      42.069 -12.107   4.344  1.00  0.00    -0.366 N 
HETATM   32  H   UNL     1      41.377 -12.100   5.088  1.00  0.00     0.159 HD
HETATM   33  H   UNL     1      42.159 -11.274   3.783  1.00  0.00     0.159 HD
HETATM   34  O   UNL     1      43.215 -13.184   2.776  1.00  0.00    -0.268 OA
ENDBRANCH   6  30
TORSDOF 8
ENDMDL
MODEL 3
REMARK VINA RESULT:      -7.6      2.220      3.332
REMARK  8 active torsions:
REMARK  status: ('A' for Active; 'I' for Inactive)
REMARK    1  A    between atoms: C_2  and  S_3 
REMARK    2  A    between atoms: S_3  and  C_4 
REMARK    3  A    between atoms: C_7  and  N_8 
REMARK    4  A    between atoms: N_8  and  C_9 
REMARK    5  A    between atoms: C_9  and  N_10 
REMARK       I    between atoms: N_10  and  C_11 
REMARK    6  A    between atoms: C_11  and  C_12 
REMARK    7  A    between atoms: C_21  and  C_22 
REMARK       I    between atoms: C_22  and  N_23 
REMARK    8  A    between atoms: C_25  and  C_26 
REMARK       I    between atoms: C_26  and  N_27 
ROOT
HETATM    1  C   UNL     1      40.999 -15.045  -1.213  1.00  0.00     0.088 A 
HETATM    2  N   UNL     1      40.558 -15.866  -0.224  1.00  0.00    -0.335 N 
HETATM    3  H   UNL     1      40.100 -16.753  -0.383  1.00  0.00     0.168 HD
HETATM    4  C   UNL     1      40.778 -15.306   1.000  1.00  0.00     0.125 A 
HETATM    5  C   UNL     1      41.449 -14.100   0.790  1.00  0.00     0.094 A 
HETATM    6  C   UNL     1      41.563 -13.908  -0.652  1.00  0.00     0.084 A 
ENDROOT
BRANCH   4   7
HETATM    7  N   UNL     1      40.373 -15.885   2.195  1.00  0.00    -0.318 N 
HETATM    8  H   UNL     1      39.396 -16.186   2.242  1.00  0.00     0.170 HD
BRANCH   7   9
HETATM    9  C   UNL     1      41.129 -16.203   3.302  1.00  0.00     0.180 C 
HETATM   10  S   UNL     1      41.315 -15.355   4.734  1.00  0.00    -0.040 SA
BRANCH   9  11
HETATM   11  N   UNL     1      41.831 -17.395   3.205  1.00  0.00    -0.299 N 
HETATM   12  C   UNL     1      43.149 -17.593   2.816  1.00  0.00     0.259 C 
HETATM   13  O   UNL     1      43.895 -16.695   2.441  1.00  0.00    -0.267 OA
HETATM   14  H   UNL     1      41.281 -18.204   3.468  1.00  0.00     0.171 HD
BRANCH  12  15
HETATM   15  C   UNL     1      43.602 -19.002   2.847  1.00  0.00     0.054 A 
HETATM   16  C   UNL     1      44.360 -19.499   3.913  1.00  0.00     0.049 A 
HETATM   17 CL   UNL     1      44.765 -18.551   5.297  1.00  0.00    -0.083 Cl
HETATM   18  C   UNL     1      44.773 -20.835   3.902  1.00  0.00     0.025 A 
HETATM   19  C   UNL     1      44.435 -21.670   2.833  1.00  0.00     0.002 A 
HETATM   20  C   UNL     1      43.685 -21.173   1.769  1.00  0.00     0.001 A 
HETATM   21  C   UNL     1      43.270 -19.840   1.770  1.00  0.00     0.019 A 
ENDBRANCH  12  15
ENDBRANCH   9  11
ENDBRANCH   7   9
ENDBRANCH   4   7
BRANCH   5  22
HETATM   22  C   UNL     1      41.899 -13.201   1.847  1.00  0.00     0.254 C 
HETATM   23  N   UNL     1      40.978 -12.301   2.299  1.00  0.00    -0.366 N 
HETATM   24  H   UNL     1      40.005 -12.325   2.028  1.00  0.00     0.159 HD
HETATM   25  H   UNL     1      41.248 -11.684   3.053  1.00  0.00     0.159 HD
HETATM   26  O   UNL     1      43.020 -13.243   2.342  1.00  0.00    -0.268 OA
ENDBRANCH   5  22
BRANCH   1  27
HETATM   27  S   UNL     1      40.767 -15.624  -2.832  1.00  0.00    -0.112 SA
BRANCH  27  28
HETATM   28  C   UNL     1      39.601 -14.381  -3.464  1.00  0.00     0.076 C 
HETATM   29  C   UNL     1      38.399 -14.283  -2.541  1.00  0.00     0.016 C 
ENDBRANCH  27  28
ENDBRANCH   1  27
BRANCH   6  30
HETATM   30  C   UNL     1      42.161 -12.818  -1.432  1.00  0.00     0.253 C 
HETATM   31  N   UNL     1      43.101 -13.141  -2.364  1.00  0.00    -0.366 N 
HETATM   32  H   UNL     1      43.535 -14.059  -2.413  1.00  0.00     0.159 HD
HETATM   33  H   UNL     1      43.575 -12.375  -2.818  1.00  0.00     0.159 HD
HETATM   34  O   UNL     1      41.881 -11.632  -1.284  1.00  0.00    -0.268 OA
ENDBRANCH   6  30
TORSDOF 8
ENDMDL
MODEL 4
REMARK VINA RESULT:      -7.6      2.523      3.714
REMARK  8 active torsions:
REMARK  status: ('A' for Active; 'I' for Inactive)
REMARK    1  A    between atoms: C_2  and  S_3 
REMARK    2  A    between atoms: S_3  and  C_4 
REMARK    3  A    between atoms: C_7  and  N_8 
REMARK    4  A    between atoms: N_8  and  C_9 
REMARK    5  A    between atoms: C_9  and  N_10 
REMARK       I    between atoms: N_10  and  C_11 
REMARK    6  A    between atoms: C_11  and  C_12 
REMARK    7  A    between atoms: C_21  and  C_22 
REMARK       I    between atoms: C_22  and  N_23 
REMARK    8  A    between atoms: C_25  and  C_26 
REMARK       I    between atoms: C_26  and  N_27 
ROOT
HETATM    1  C   UNL     1      39.567 -13.161   3.671  1.00  0.00     0.088 A 
HETATM    2  N   UNL     1      39.634 -14.158   2.750  1.00  0.00    -0.335 N 
HETATM    3  H   UNL     1      39.331 -14.067   1.790  1.00  0.00     0.168 HD
HETATM    4  C   UNL     1      40.123 -15.301   3.312  1.00  0.00     0.125 A 
HETATM    5  C   UNL     1      40.444 -15.006   4.638  1.00  0.00     0.094 A 
HETATM    6  C   UNL     1      40.051 -13.623   4.887  1.00  0.00     0.084 A 
ENDROOT
BRANCH   4   7
HETATM    7  N   UNL     1      40.243 -16.503   2.629  1.00  0.00    -0.318 N 
HETATM    8  H   UNL     1      39.500 -17.189   2.789  1.00  0.00     0.170 HD
BRANCH   7   9
HETATM    9  C   UNL     1      41.176 -16.873   1.684  1.00  0.00     0.180 C 
HETATM   10  S   UNL     1      41.540 -16.151   0.218  1.00  0.00    -0.040 SA
BRANCH   9  11
HETATM   11  N   UNL     1      41.909 -18.005   2.003  1.00  0.00    -0.299 N 
HETATM   12  C   UNL     1      43.196 -18.086   2.521  1.00  0.00     0.259 C 
HETATM   13  O   UNL     1      43.911 -17.113   2.733  1.00  0.00    -0.267 OA
HETATM   14  H   UNL     1      41.407 -18.867   1.830  1.00  0.00     0.171 HD
BRANCH  12  15
HETATM   15  C   UNL     1      43.680 -19.461   2.774  1.00  0.00     0.054 A 
HETATM   16  C   UNL     1      44.365 -19.786   3.950  1.00  0.00     0.049 A 
HETATM   17 CL   UNL     1      44.638 -18.650   5.220  1.00  0.00    -0.083 Cl
HETATM   18  C   UNL     1      44.811 -21.097   4.149  1.00  0.00     0.025 A 
HETATM   19  C   UNL     1      44.578 -22.076   3.180  1.00  0.00     0.002 A 
HETATM   20  C   UNL     1      43.901 -21.751   2.007  1.00  0.00     0.001 A 
HETATM   21  C   UNL     1      43.454 -20.445   1.798  1.00  0.00     0.019 A 
ENDBRANCH  12  15
ENDBRANCH   9  11
ENDBRANCH   7   9
ENDBRANCH   4   7
BRANCH   5  22
HETATM   22  C   UNL     1      41.027 -15.951   5.584  1.00  0.00     0.254 C 
HETATM   23  N   UNL     1      40.143 -16.640   6.362  1.00  0.00    -0.366 N 
HETATM   24  H   UNL     1      39.144 -16.611   6.218  1.00  0.00     0.159 HD
HETATM   25  H   UNL     1      40.512 -17.325   7.007  1.00  0.00     0.159 HD
HETATM   26  O   UNL     1      42.232 -16.159   5.681  1.00  0.00    -0.268 OA
ENDBRANCH   5  22
BRANCH   1  27
HETATM   27  S   UNL     1      38.945 -11.647   3.098  1.00  0.00    -0.112 SA
BRANCH  27  28
HETATM   28  C   UNL     1      38.044 -12.197   1.619  1.00  0.00     0.076 C 
HETATM   29  C   UNL     1      36.993 -11.169   1.241  1.00  0.00     0.016 C 
ENDBRANCH  27  28
ENDBRANCH   1  27
BRANCH   6  30
HETATM   30  C   UNL     1      40.144 -12.801   6.099  1.00  0.00     0.253 C 
HETATM   31  N   UNL     1      39.309 -13.093   7.134  1.00  0.00    -0.366 N 
HETATM   32  H   UNL     1      38.512 -13.717   7.039  1.00  0.00     0.159 HD
HETATM   33  H   UNL     1      39.314 -12.457   7.917  1.00  0.00     0.159 HD
HETATM   34  O   UNL     1      40.916 -11.856   6.231  1.00  0.00    -0.268 OA
ENDBRANCH   6  30
TORSDOF 8
ENDMDL
MODEL 5
REMARK VINA RESULT:      -7.5      3.181      7.504
REMARK  8 active torsions:
REMARK  status: ('A' for Active; 'I' for Inactive)
REMARK    1  A    between atoms: C_2  and  S_3 
REMARK    2  A    between atoms: S_3  and  C_4 
REMARK    3  A    between atoms: C_7  and  N_8 
REMARK    4  A    between atoms: N_8  and  C_9 
REMARK    5  A    between atoms: C_9  and  N_10 
REMARK       I    between atoms: N_10  and  C_11 
REMARK    6  A    between atoms: C_11  and  C_12 
REMARK    7  A    between atoms: C_21  and  C_22 
REMARK       I    between atoms: C_22  and  N_23 
REMARK    8  A    between atoms: C_25  and  C_26 
REMARK       I    between atoms: C_26  and  N_27 
ROOT
HETATM    1  C   UNL     1      43.356 -18.690   3.786  1.00  0.00     0.088 A 
HETATM    2  N   UNL     1      42.368 -18.191   2.998  1.00  0.00    -0.335 N 
HETATM    3  H   UNL     1      42.285 -18.373   2.007  1.00  0.00     0.168 HD
HETATM    4  C   UNL     1      41.540 -17.382   3.718  1.00  0.00     0.125 A 
HETATM    5  C   UNL     1      41.978 -17.414   5.043  1.00  0.00     0.094 A 
HETATM    6  C   UNL     1      43.183 -18.237   5.086  1.00  0.00     0.084 A 
ENDROOT
BRANCH   4   7
HETATM    7  N   UNL     1      40.478 -16.680   3.164  1.00  0.00    -0.318 N 
HETATM    8  H   UNL     1      39.611 -17.207   3.029  1.00  0.00     0.170 HD
BRANCH   7   9
HETATM    9  C   UNL     1      40.393 -15.340   2.856  1.00  0.00     0.180 C 
HETATM   10  S   UNL     1      40.150 -14.033   3.874  1.00  0.00    -0.040 SA
BRANCH   9  11
HETATM   11  N   UNL     1      40.527 -15.043   1.508  1.00  0.00    -0.299 N 
HETATM   12  C   UNL     1      41.598 -15.311   0.666  1.00  0.00     0.259 C 
HETATM   13  O   UNL     1      42.645 -15.832   1.033  1.00  0.00    -0.267 OA
HETATM   14  H   UNL     1      39.715 -14.578   1.120  1.00  0.00     0.171 HD
BRANCH  12  15
HETATM   15  C   UNL     1      41.408 -14.881  -0.738  1.00  0.00     0.054 A 
HETATM   16  C   UNL     1      41.627 -13.555  -1.129  1.00  0.00     0.049 A 
HETATM   17 CL   UNL     1      42.197 -12.340  -0.044  1.00  0.00    -0.083 Cl
HETATM   18  C   UNL     1      41.431 -13.188  -2.465  1.00  0.00     0.025 A 
HETATM   19  C   UNL     1      41.019 -14.137  -3.404  1.00  0.00     0.002 A 
HETATM   20  C   UNL     1      40.796 -15.456  -3.013  1.00  0.00     0.001 A 
HETATM   21  C   UNL     1      40.986 -15.831  -1.682  1.00  0.00     0.019 A 
ENDBRANCH  12  15
ENDBRANCH   9  11
ENDBRANCH   7   9
ENDBRANCH   4   7
BRANCH   5  22
HETATM   22  C   UNL     1      41.344 -16.705   6.149  1.00  0.00     0.254 C 
HETATM   23  N   UNL     1      42.085 -15.719   6.730  1.00  0.00    -0.366 N 
HETATM   24  H   UNL     1      42.964 -15.395   6.352  1.00  0.00     0.159 HD
HETATM   25  H   UNL     1      41.664 -15.187   7.479  1.00  0.00     0.159 HD
HETATM   26  O   UNL     1      40.204 -16.936   6.538  1.00  0.00    -0.268 OA
ENDBRANCH   5  22
BRANCH   1  27
HETATM   27  S   UNL     1      44.500 -19.727   2.995  1.00  0.00    -0.112 SA
BRANCH  27  28
HETATM   28  C   UNL     1      43.389 -20.692   1.928  1.00  0.00     0.076 C 
HETATM   29  C   UNL     1      44.071 -21.981   1.502  1.00  0.00     0.016 C 
ENDBRANCH  27  28
ENDBRANCH   1  27
BRANCH   6  30
HETATM   30  C   UNL     1      44.058 -18.600   6.205  1.00  0.00     0.253 C 
HETATM   31  N   UNL     1      45.081 -17.756   6.516  1.00  0.00    -0.366 N 
HETATM   32  H   UNL     1      45.375 -16.999   5.905  1.00  0.00     0.159 HD
HETATM   33  H   UNL     1      45.733 -18.068   7.219  1.00  0.00     0.159 HD
HETATM   34  O   UNL     1      43.938 -19.627   6.868  1.00  0.00    -0.268 OA
ENDBRANCH   6  30
TORSDOF 8
ENDMDL
MODEL 6
REMARK VINA RESULT:      -7.5      2.102      2.735
REMARK  8 active torsions:
REMARK  status: ('A' for Active; 'I' for Inactive)
REMARK    1  A    between atoms: C_2  and  S_3 
REMARK    2  A    between atoms: S_3  and  C_4 
REMARK    3  A    between atoms: C_7  and  N_8 
REMARK    4  A    between atoms: N_8  and  C_9 
REMARK    5  A    between atoms: C_9  and  N_10 
REMARK       I    between atoms: N_10  and  C_11 
REMARK    6  A    between atoms: C_11  and  C_12 
REMARK    7  A    between atoms: C_21  and  C_22 
REMARK       I    between atoms: C_22  and  N_23 
REMARK    8  A    between atoms: C_25  and  C_26 
REMARK       I    between atoms: C_26  and  N_27 
ROOT
HETATM    1  C   UNL     1      41.507 -13.078   0.310  1.00  0.00     0.088 A 
HETATM    2  N   UNL     1      41.741 -13.080   1.649  1.00  0.00    -0.335 N 
HETATM    3  H   UNL     1      42.088 -12.285   2.167  1.00  0.00     0.168 HD
HETATM    4  C   UNL     1      41.487 -14.311   2.179  1.00  0.00     0.125 A 
HETATM    5  C   UNL     1      41.007 -15.117   1.146  1.00  0.00     0.094 A 
HETATM    6  C   UNL     1      41.051 -14.328  -0.081  1.00  0.00     0.084 A 
ENDROOT
BRANCH   4   7
HETATM    7  N   UNL     1      41.700 -14.631   3.513  1.00  0.00    -0.318 N 
HETATM    8  H   UNL     1      40.865 -14.676   4.105  1.00  0.00     0.170 HD
BRANCH   7   9
HETATM    9  C   UNL     1      42.872 -14.994   4.141  1.00  0.00     0.180 C 
HETATM   10  S   UNL     1      43.849 -14.092   5.158  1.00  0.00    -0.040 SA
BRANCH   9  11
HETATM   11  N   UNL     1      43.293 -16.289   3.883  1.00  0.00    -0.299 N 
HETATM   12  C   UNL     1      42.606 -17.479   4.084  1.00  0.00     0.259 C 
HETATM   13  O   UNL     1      41.489 -17.549   4.586  1.00  0.00    -0.267 OA
HETATM   14  H   UNL     1      44.226 -16.334   3.492  1.00  0.00     0.171 HD
BRANCH  12  15
HETATM   15  C   UNL     1      43.339 -18.698   3.676  1.00  0.00     0.054 A 
HETATM   16  C   UNL     1      44.339 -19.251   4.485  1.00  0.00     0.049 A 
HETATM   17 CL   UNL     1      44.749 -18.613   6.035  1.00  0.00    -0.083 Cl
HETATM   18  C   UNL     1      45.012 -20.401   4.061  1.00  0.00     0.025 A 
HETATM   19  C   UNL     1      44.691 -20.996   2.837  1.00  0.00     0.002 A 
HETATM   20  C   UNL     1      43.700 -20.442   2.030  1.00  0.00     0.001 A 
HETATM   21  C   UNL     1      43.024 -19.293   2.444  1.00  0.00     0.019 A 
ENDBRANCH  12  15
ENDBRANCH   9  11
ENDBRANCH   7   9
ENDBRANCH   4   7
BRANCH   5  22
HETATM   22  C   UNL     1      40.587 -16.506   1.298  1.00  0.00     0.254 C 
HETATM   23  N   UNL     1      39.579 -16.731   2.189  1.00  0.00    -0.366 N 
HETATM   24  H   UNL     1      39.054 -15.987   2.627  1.00  0.00     0.159 HD
HETATM   25  H   UNL     1      39.243 -17.678   2.296  1.00  0.00     0.159 HD
HETATM   26  O   UNL     1      41.069 -17.434   0.659  1.00  0.00    -0.268 OA
ENDBRANCH   5  22
BRANCH   1  27
HETATM   27  S   UNL     1      41.806 -11.575  -0.504  1.00  0.00    -0.112 SA
BRANCH  27  28
HETATM   28  C   UNL     1      42.895 -12.137  -1.846  1.00  0.00     0.076 C 
HETATM   29  C   UNL     1      42.565 -11.391  -3.127  1.00  0.00     0.016 C 
ENDBRANCH  27  28
ENDBRANCH   1  27
BRANCH   6  30
HETATM   30  C   UNL     1      40.679 -14.673  -1.458  1.00  0.00     0.253 C 
HETATM   31  N   UNL     1      41.411 -15.628  -2.097  1.00  0.00    -0.366 N 
HETATM   32  H   UNL     1      42.299 -15.970  -1.742  1.00  0.00     0.159 HD
HETATM   33  H   UNL     1      41.209 -15.780  -3.074  1.00  0.00     0.159 HD
HETATM   34  O   UNL     1      39.761 -14.141  -2.076  1.00  0.00    -0.268 OA
ENDBRANCH   6  30
TORSDOF 8
ENDMDL
MODEL 7
REMARK VINA RESULT:      -7.5      2.723      3.615
REMARK  8 active torsions:
REMARK  status: ('A' for Active; 'I' for Inactive)
REMARK    1  A    between atoms: C_2  and  S_3 
REMARK    2  A    between atoms: S_3  and  C_4 
REMARK    3  A    between atoms: C_7  and  N_8 
REMARK    4  A    between atoms: N_8  and  C_9 
REMARK    5  A    between atoms: C_9  and  N_10 
REMARK       I    between atoms: N_10  and  C_11 
REMARK    6  A    between atoms: C_11  and  C_12 
REMARK    7  A    between atoms: C_21  and  C_22 
REMARK       I    between atoms: C_22  and  N_23 
REMARK    8  A    between atoms: C_25  and  C_26 
REMARK       I    between atoms: C_26  and  N_27 
ROOT
HETATM    1  C   UNL     1      41.537 -14.368   1.685  1.00  0.00     0.088 A 
HETATM    2  N   UNL     1      42.656 -14.377   2.457  1.00  0.00    -0.335 N 
HETATM    3  H   UNL     1      43.598 -14.394   2.093  1.00  0.00     0.168 HD
HETATM    4  C   UNL     1      42.327 -14.407   3.780  1.00  0.00     0.125 A 
HETATM    5  C   UNL     1      40.935 -14.349   3.863  1.00  0.00     0.094 A 
HETATM    6  C   UNL     1      40.415 -14.360   2.499  1.00  0.00     0.084 A 
ENDROOT
BRANCH   4   7
HETATM    7  N   UNL     1      43.262 -14.488   4.803  1.00  0.00    -0.318 N 
HETATM    8  H   UNL     1      43.726 -13.612   5.060  1.00  0.00     0.170 HD
BRANCH   7   9
HETATM    9  C   UNL     1      43.589 -15.568   5.594  1.00  0.00     0.180 C 
HETATM   10  S   UNL     1      43.791 -15.641   7.254  1.00  0.00    -0.040 SA
BRANCH   9  11
HETATM   11  N   UNL     1      43.778 -16.756   4.906  1.00  0.00    -0.299 N 
HETATM   12  C   UNL     1      42.875 -17.792   4.702  1.00  0.00     0.259 C 
HETATM   13  O   UNL     1      41.742 -17.814   5.170  1.00  0.00    -0.267 OA
HETATM   14  H   UNL     1      44.705 -16.843   4.507  1.00  0.00     0.171 HD
BRANCH  12  15
HETATM   15  C   UNL     1      43.392 -18.919   3.893  1.00  0.00     0.054 A 
HETATM   16  C   UNL     1      43.003 -19.095   2.560  1.00  0.00     0.049 A 
HETATM   17 CL   UNL     1      41.963 -17.994   1.734  1.00  0.00    -0.083 Cl
HETATM   18  C   UNL     1      43.510 -20.176   1.831  1.00  0.00     0.025 A 
HETATM   19  C   UNL     1      44.397 -21.076   2.428  1.00  0.00     0.002 A 
HETATM   20  C   UNL     1      44.778 -20.904   3.757  1.00  0.00     0.001 A 
HETATM   21  C   UNL     1      44.276 -19.829   4.493  1.00  0.00     0.019 A 
ENDBRANCH  12  15
ENDBRANCH   9  11
ENDBRANCH   7   9
ENDBRANCH   4   7
BRANCH   5  22
HETATM   22  C   UNL     1      40.173 -14.327   5.107  1.00  0.00     0.254 C 
HETATM   23  N   UNL     1      39.966 -15.537   5.702  1.00  0.00    -0.366 N 
HETATM   24  H   UNL     1      40.413 -16.388   5.391  1.00  0.00     0.159 HD
HETATM   25  H   UNL     1      39.469 -15.554   6.582  1.00  0.00     0.159 HD
HETATM   26  O   UNL     1      39.755 -13.299   5.629  1.00  0.00    -0.268 OA
ENDBRANCH   5  22
BRANCH   1  27
HETATM   27  S   UNL     1      41.806 -14.348  -0.029  1.00  0.00    -0.112 SA
BRANCH  27  28
HETATM   28  C   UNL     1      41.526 -12.588  -0.387  1.00  0.00     0.076 C 
HETATM   29  C   UNL     1      42.647 -12.054  -1.262  1.00  0.00     0.016 C 
ENDBRANCH  27  28
ENDBRANCH   1  27
BRANCH   6  30
HETATM   30  C   UNL     1      39.036 -14.326   1.997  1.00  0.00     0.253 C 
HETATM   31  N   UNL     1      38.423 -15.514   1.735  1.00  0.00    -0.366 N 
HETATM   32  H   UNL     1      38.926 -16.396   1.693  1.00  0.00     0.159 HD
HETATM   33  H   UNL     1      37.516 -15.472   1.295  1.00  0.00     0.159 HD
HETATM   34  O   UNL     1      38.408 -13.293   1.781  1.00  0.00    -0.268 OA
ENDBRANCH   6  30
TORSDOF 8
ENDMDL
MODEL 8
REMARK VINA RESULT:      -7.4      3.494      5.810
REMARK  8 active torsions:
REMARK  status: ('A' for Active; 'I' for Inactive)
REMARK    1  A    between atoms: C_2  and  S_3 
REMARK    2  A    between atoms: S_3  and  C_4 
REMARK    3  A    between atoms: C_7  and  N_8 
REMARK    4  A    between atoms: N_8  and  C_9 
REMARK    5  A    between atoms: C_9  and  N_10 
REMARK       I    between atoms: N_10  and  C_11 
REMARK    6  A    between atoms: C_11  and  C_12 
REMARK    7  A    between atoms: C_21  and  C_22 
REMARK       I    between atoms: C_22  and  N_23 
REMARK    8  A    between atoms: C_25  and  C_26 
REMARK       I    between atoms: C_26  and  N_27 
ROOT
HETATM    1  C   UNL     1      43.170 -16.196   6.822  1.00  0.00     0.088 A 
HETATM    2  N   UNL     1      42.343 -16.781   5.917  1.00  0.00    -0.335 N 
HETATM    3  H   UNL     1      41.876 -17.666   6.061  1.00  0.00     0.168 HD
HETATM    4  C   UNL     1      42.269 -16.033   4.778  1.00  0.00     0.125 A 
HETATM    5  C   UNL     1      43.032 -14.883   4.988  1.00  0.00     0.094 A 
HETATM    6  C   UNL     1      43.650 -15.002   6.304  1.00  0.00     0.084 A 
ENDROOT
BRANCH   4   7
HETATM    7  N   UNL     1      41.550 -16.414   3.653  1.00  0.00    -0.318 N 
HETATM    8  H   UNL     1      40.661 -15.930   3.501  1.00  0.00     0.170 HD
BRANCH   7   9
HETATM    9  C   UNL     1      41.910 -17.291   2.653  1.00  0.00     0.180 C 
HETATM   10  S   UNL     1      41.707 -17.146   0.997  1.00  0.00    -0.040 SA
BRANCH   9  11
HETATM   11  N   UNL     1      42.523 -18.454   3.091  1.00  0.00    -0.299 N 
HETATM   12  C   UNL     1      43.753 -18.979   2.715  1.00  0.00     0.259 C 
HETATM   13  O   UNL     1      44.480 -18.478   1.865  1.00  0.00    -0.267 OA
HETATM   14  H   UNL     1      41.977 -18.958   3.780  1.00  0.00     0.171 HD
BRANCH  12  15
HETATM   15  C   UNL     1      44.129 -20.237   3.398  1.00  0.00     0.054 A 
HETATM   16  C   UNL     1      44.226 -21.445   2.697  1.00  0.00     0.049 A 
HETATM   17 CL   UNL     1      43.992 -21.559   0.991  1.00  0.00    -0.083 Cl
HETATM   18  C   UNL     1      44.578 -22.613   3.381  1.00  0.00     0.025 A 
HETATM   19  C   UNL     1      44.830 -22.578   4.754  1.00  0.00     0.002 A 
HETATM   20  C   UNL     1      44.728 -21.377   5.453  1.00  0.00     0.001 A 
HETATM   21  C   UNL     1      44.374 -20.206   4.780  1.00  0.00     0.019 A 
ENDBRANCH  12  15
ENDBRANCH   9  11
ENDBRANCH   7   9
ENDBRANCH   4   7
BRANCH   5  22
HETATM   22  C   UNL     1      43.193 -13.802   4.022  1.00  0.00     0.254 C 
HETATM   23  N   UNL     1      42.201 -12.865   4.003  1.00  0.00    -0.366 N 
HETATM   24  H   UNL     1      41.464 -12.830   4.692  1.00  0.00     0.159 HD
HETATM   25  H   UNL     1      42.297 -12.085   3.367  1.00  0.00     0.159 HD
HETATM   26  O   UNL     1      44.162 -13.695   3.278  1.00  0.00    -0.268 OA
ENDBRANCH   5  22
BRANCH   1  27
HETATM   27  S   UNL     1      43.373 -17.050   8.318  1.00  0.00    -0.112 SA
BRANCH  27  28
HETATM   28  C   UNL     1      44.395 -18.447   7.766  1.00  0.00     0.076 C 
HETATM   29  C   UNL     1      45.491 -17.952   6.838  1.00  0.00     0.016 C 
ENDBRANCH  27  28
ENDBRANCH   1  27
BRANCH   6  30
HETATM   30  C   UNL     1      44.553 -14.098   7.026  1.00  0.00     0.253 C 
HETATM   31  N   UNL     1      44.100 -13.528   8.178  1.00  0.00    -0.366 N 
HETATM   32  H   UNL     1      43.122 -13.550   8.455  1.00  0.00     0.159 HD
HETATM   33  H   UNL     1      44.691 -12.833   8.606  1.00  0.00     0.159 HD
HETATM   34  O   UNL     1      45.685 -13.809   6.647  1.00  0.00    -0.268 OA
ENDBRANCH   6  30
TORSDOF 8
ENDMDL
MODEL 9
REMARK VINA RESULT:      -7.3      2.224      3.191
REMARK  8 active torsions:
REMARK  status: ('A' for Active; 'I' for Inactive)
REMARK    1  A    between atoms: C_2  and  S_3 
REMARK    2  A    between atoms: S_3  and  C_4 
REMARK    3  A    between atoms: C_7  and  N_8 
REMARK    4  A    between atoms: N_8  and  C_9 
REMARK    5  A    between atoms: C_9  and  N_10 
REMARK       I    between atoms: N_10  and  C_11 
REMARK    6  A    between atoms: C_11  and  C_12 
REMARK    7  A    between atoms: C_21  and  C_22 
REMARK       I    between atoms: C_22  and  N_23 
REMARK    8  A    between atoms: C_25  and  C_26 
REMARK       I    between atoms: C_26  and  N_27 
ROOT
HETATM    1  C   UNL     1      40.539 -13.782  -0.922  1.00  0.00     0.088 A 
HETATM    2  N   UNL     1      41.748 -14.382  -0.762  1.00  0.00    -0.335 N 
HETATM    3  H   UNL     1      42.532 -14.258  -1.388  1.00  0.00     0.168 HD
HETATM    4  C   UNL     1      41.738 -15.202   0.327  1.00  0.00     0.125 A 
HETATM    5  C   UNL     1      40.486 -15.074   0.931  1.00  0.00     0.094 A 
HETATM    6  C   UNL     1      39.689 -14.177   0.101  1.00  0.00     0.084 A 
ENDROOT
BRANCH   4   7
HETATM    7  N   UNL     1      42.813 -15.996   0.702  1.00  0.00    -0.318 N 
HETATM    8  H   UNL     1      43.333 -16.441  -0.060  1.00  0.00     0.170 HD
BRANCH   7   9
HETATM    9  C   UNL     1      43.345 -16.199   1.957  1.00  0.00     0.180 C 
HETATM   10  S   UNL     1      43.638 -15.085   3.173  1.00  0.00    -0.040 SA
BRANCH   9  11
HETATM   11  N   UNL     1      43.682 -17.513   2.242  1.00  0.00    -0.299 N 
HETATM   12  C   UNL     1      43.041 -18.406   3.090  1.00  0.00     0.259 C 
HETATM   13  O   UNL     1      42.064 -18.122   3.773  1.00  0.00    -0.267 OA
HETATM   14  H   UNL     1      44.504 -17.830   1.742  1.00  0.00     0.171 HD
BRANCH  12  15
HETATM   15  C   UNL     1      43.650 -19.754   3.149  1.00  0.00     0.054 A 
HETATM   16  C   UNL     1      44.389 -20.171   4.262  1.00  0.00     0.049 A 
HETATM   17 CL   UNL     1      44.592 -19.195   5.671  1.00  0.00    -0.083 Cl
HETATM   18  C   UNL     1      44.953 -21.451   4.276  1.00  0.00     0.025 A 
HETATM   19  C   UNL     1      44.782 -22.309   3.187  1.00  0.00     0.002 A 
HETATM   20  C   UNL     1      44.052 -21.892   2.076  1.00  0.00     0.001 A 
HETATM   21  C   UNL     1      43.487 -20.616   2.052  1.00  0.00     0.019 A 
ENDBRANCH  12  15
ENDBRANCH   9  11
ENDBRANCH   7   9
ENDBRANCH   4   7
BRANCH   5  22
HETATM   22  C   UNL     1      40.073 -15.762   2.149  1.00  0.00     0.254 C 
HETATM   23  N   UNL     1      39.790 -17.090   2.019  1.00  0.00    -0.366 N 
HETATM   24  H   UNL     1      39.975 -17.612   1.173  1.00  0.00     0.159 HD
HETATM   25  H   UNL     1      39.531 -17.605   2.849  1.00  0.00     0.159 HD
HETATM   26  O   UNL     1      40.003 -15.218   3.246  1.00  0.00    -0.268 OA
ENDBRANCH   5  22
BRANCH   1  27
HETATM   27  S   UNL     1      40.401 -12.719  -2.286  1.00  0.00    -0.112 SA
BRANCH  27  28
HETATM   28  C   UNL     1      40.628 -13.898  -3.650  1.00  0.00     0.076 C 
HETATM   29  C   UNL     1      39.570 -14.985  -3.575  1.00  0.00     0.016 C 
ENDBRANCH  27  28
ENDBRANCH   1  27
BRANCH   6  30
HETATM   30  C   UNL     1      38.309 -13.702   0.250  1.00  0.00     0.253 C 
HETATM   31  N   UNL     1      37.370 -14.189  -0.608  1.00  0.00    -0.366 N 
HETATM   32  H   UNL     1      37.608 -14.710  -1.447  1.00  0.00     0.159 HD
HETATM   33  H   UNL     1      36.450 -13.778  -0.559  1.00  0.00     0.159 HD
HETATM   34  O   UNL     1      37.952 -12.880   1.089  1.00  0.00    -0.268 OA
ENDBRANCH   6  30
TORSDOF 8
ENDMDL
MODEL 10
REMARK VINA RESULT:      -7.0      2.259      3.487
REMARK  8 active torsions:
REMARK  status: ('A' for Active; 'I' for Inactive)
REMARK    1  A    between atoms: C_2  and  S_3 
REMARK    2  A    between atoms: S_3  and  C_4 
REMARK    3  A    between atoms: C_7  and  N_8 
REMARK    4  A    between atoms: N_8  and  C_9 
REMARK    5  A    between atoms: C_9  and  N_10 
REMARK       I    between atoms: N_10  and  C_11 
REMARK    6  A    between atoms: C_11  and  C_12 
REMARK    7  A    between atoms: C_21  and  C_22 
REMARK       I    between atoms: C_22  and  N_23 
REMARK    8  A    between atoms: C_25  and  C_26 
REMARK       I    between atoms: C_26  and  N_27 
ROOT
HETATM    1  C   UNL     1      41.001 -13.878   1.061  1.00  0.00     0.088 A 
HETATM    2  N   UNL     1      41.035 -15.112   1.629  1.00  0.00    -0.335 N 
HETATM    3  H   UNL     1      41.243 -15.964   1.127  1.00  0.00     0.168 HD
HETATM    4  C   UNL     1      40.707 -15.042   2.951  1.00  0.00     0.125 A 
HETATM    5  C   UNL     1      40.516 -13.694   3.260  1.00  0.00     0.094 A 
HETATM    6  C   UNL     1      40.672 -12.935   2.024  1.00  0.00     0.084 A 
ENDROOT
BRANCH   4   7
HETATM    7  N   UNL     1      40.595 -16.153   3.775  1.00  0.00    -0.318 N 
HETATM    8  H   UNL     1      39.745 -16.713   3.665  1.00  0.00     0.170 HD
BRANCH   7   9
HETATM    9  C   UNL     1      41.515 -16.669   4.662  1.00  0.00     0.180 C 
HETATM   10  S   UNL     1      41.978 -16.089   6.163  1.00  0.00    -0.040 SA
BRANCH   9  11
HETATM   11  N   UNL     1      42.140 -17.833   4.241  1.00  0.00    -0.299 N 
HETATM   12  C   UNL     1      43.073 -17.994   3.225  1.00  0.00     0.259 C 
HETATM   13  O   UNL     1      43.455 -17.087   2.495  1.00  0.00    -0.267 OA
HETATM   14  H   UNL     1      41.861 -18.649   4.771  1.00  0.00     0.171 HD
BRANCH  12  15
HETATM   15  C   UNL     1      43.567 -19.378   3.048  1.00  0.00     0.054 A 
HETATM   16  C   UNL     1      44.421 -19.972   3.985  1.00  0.00     0.049 A 
HETATM   17 CL   UNL     1      44.908 -19.183   5.440  1.00  0.00    -0.083 Cl
HETATM   18  C   UNL     1      44.870 -21.280   3.778  1.00  0.00     0.025 A 
HETATM   19  C   UNL     1      44.471 -21.992   2.643  1.00  0.00     0.002 A 
HETATM   20  C   UNL     1      43.626 -21.399   1.708  1.00  0.00     0.001 A 
HETATM   21  C   UNL     1      43.174 -20.092   1.905  1.00  0.00     0.019 A 
ENDBRANCH  12  15
ENDBRANCH   9  11
ENDBRANCH   7   9
ENDBRANCH   4   7
BRANCH   5  22
HETATM   22  C   UNL     1      40.181 -13.181   4.584  1.00  0.00     0.254 C 
HETATM   23  N   UNL     1      40.855 -12.065   4.982  1.00  0.00    -0.366 N 
HETATM   24  H   UNL     1      41.455 -11.534   4.365  1.00  0.00     0.159 HD
HETATM   25  H   UNL     1      40.625 -11.665   5.881  1.00  0.00     0.159 HD
HETATM   26  O   UNL     1      39.328 -13.682   5.310  1.00  0.00    -0.268 OA
ENDBRANCH   5  22
BRANCH   1  27
HETATM   27  S   UNL     1      41.382 -13.817  -0.630  1.00  0.00    -0.112 SA
BRANCH  27  28
HETATM   28  C   UNL     1      41.041 -15.537  -1.109  1.00  0.00     0.076 C 
HETATM   29  C   UNL     1      40.981 -15.651  -2.622  1.00  0.00     0.016 C 
ENDBRANCH  27  28
ENDBRANCH   1  27
BRANCH   6  30
HETATM   30  C   UNL     1      40.568 -11.495   1.761  1.00  0.00     0.253 C 
HETATM   31  N   UNL     1      41.717 -10.763   1.758  1.00  0.00    -0.366 N 
HETATM   32  H   UNL     1      42.601 -11.123   2.108  1.00  0.00     0.159 HD
HETATM   33  H   UNL     1      41.620  -9.762   1.679  1.00  0.00     0.159 HD
HETATM   34  O   UNL     1      39.509 -10.906   1.562  1.00  0.00    -0.268 OA
ENDBRANCH   6  30
TORSDOF 8
ENDMDL
