MODEL 1
REMARK VINA RESULT:      -8.3      0.000      0.000
REMARK  3 active torsions:
REMARK  status: ('A' for Active; 'I' for Inactive)
REMARK    1  A    between atoms: C_4  and  N_5 
REMARK       I    between atoms: N_5  and  C_6 
REMARK    2  A    between atoms: C_6  and  C_7 
REMARK    3  A    between atoms: C_7  and  C_8 
ROOT
HETATM    1  C   UNL     1      41.265 -15.812   3.628  1.00  0.00     0.286 C 
HETATM    2  N   UNL     1      40.935 -14.382   3.196  1.00  0.00    -0.056 N 
HETATM    3  H   UNL     1      41.736 -13.794   3.458  1.00  0.00     0.278 HD
HETATM    4  H   UNL     1      40.936 -14.354   2.154  1.00  0.00     0.278 HD
HETATM    5  C   UNL     1      39.660 -13.813   3.750  1.00  0.00     0.209 C 
HETATM    6  C   UNL     1      39.709 -13.922   5.292  1.00  0.00     0.115 C 
HETATM    7  N   UNL     1      39.979 -15.291   5.712  1.00  0.00    -0.353 N 
HETATM    8  C   UNL     1      40.786 -16.176   5.047  1.00  0.00     0.249 C 
HETATM    9  O   UNL     1      41.068 -17.250   5.570  1.00  0.00    -0.271 OA
HETATM   10  C   UNL     1      39.509 -12.366   3.281  1.00  0.00     0.035 C 
HETATM   11  C   UNL     1      40.527 -11.416   3.912  1.00  0.00     0.002 C 
HETATM   12  C   UNL     1      40.540 -11.528   5.433  1.00  0.00     0.002 C 
HETATM   13  C   UNL     1      40.743 -12.965   5.905  1.00  0.00     0.027 C 
HETATM   14  H   UNL     1      39.719 -15.583   6.653  1.00  0.00     0.163 HD
ENDROOT
BRANCH   1  15
HETATM   15  C   UNL     1      40.752 -16.859   2.626  1.00  0.00     0.146 C 
BRANCH  15  16
HETATM   16  C   UNL     1      41.631 -16.869   1.403  1.00  0.00     0.224 C 
HETATM   17  N   UNL     1      42.819 -17.521   1.349  1.00  0.00    -0.327 N 
HETATM   18  H   UNL     1      43.368 -17.260   0.534  1.00  0.00     0.169 HD
HETATM   19  O   UNL     1      41.271 -16.195   0.425  1.00  0.00    -0.273 OA
BRANCH  17  20
HETATM   20  C   UNL     1      43.441 -18.439   2.212  1.00  0.00     0.035 A 
HETATM   21  C   UNL     1      43.865 -18.145   3.509  1.00  0.00     0.036 A 
HETATM   22  C   UNL     1      44.490 -19.125   4.294  1.00  0.00    -0.059 A 
HETATM   23  C   UNL     1      44.925 -18.823   5.701  1.00  0.00     0.048 C 
HETATM   24  C   UNL     1      44.655 -20.418   3.782  1.00  0.00     0.013 A 
HETATM   25  C   UNL     1      44.193 -20.742   2.505  1.00  0.00    -0.059 A 
HETATM   26  C   UNL     1      43.585 -19.747   1.729  1.00  0.00     0.036 A 
HETATM   27  C   UNL     1      44.404 -22.122   1.951  1.00  0.00     0.048 C 
ENDBRANCH  17  20
ENDBRANCH  15  16
ENDBRANCH   1  15
TORSDOF 3
ENDMDL
MODEL 2
REMARK VINA RESULT:      -8.2      2.168      3.844
REMARK  3 active torsions:
REMARK  status: ('A' for Active; 'I' for Inactive)
REMARK    1  A    between atoms: C_4  and  N_5 
REMARK       I    between atoms: N_5  and  C_6 
REMARK    2  A    between atoms: C_6  and  C_7 
REMARK    3  A    between atoms: C_7  and  C_8 
ROOT
HETATM    1  C   UNL     1      41.781 -15.499   4.600  1.00  0.00     0.286 C 
HETATM    2  N   UNL     1      41.979 -16.071   3.195  1.00  0.00    -0.056 N 
HETATM    3  H   UNL     1      42.493 -15.368   2.651  1.00  0.00     0.278 HD
HETATM    4  H   UNL     1      42.647 -16.869   3.266  1.00  0.00     0.278 HD
HETATM    5  C   UNL     1      40.724 -16.481   2.477  1.00  0.00     0.209 C 
HETATM    6  C   UNL     1      39.766 -15.268   2.444  1.00  0.00     0.115 C 
HETATM    7  N   UNL     1      39.538 -14.743   3.784  1.00  0.00    -0.353 N 
HETATM    8  C   UNL     1      40.468 -14.714   4.789  1.00  0.00     0.249 C 
HETATM    9  O   UNL     1      40.219 -14.110   5.828  1.00  0.00    -0.271 OA
HETATM   10  C   UNL     1      41.084 -16.967   1.074  1.00  0.00     0.035 C 
HETATM   11  C   UNL     1      41.572 -15.849   0.153  1.00  0.00     0.002 C 
HETATM   12  C   UNL     1      40.599 -14.675   0.121  1.00  0.00     0.002 C 
HETATM   13  C   UNL     1      40.278 -14.152   1.519  1.00  0.00     0.027 C 
HETATM   14  H   UNL     1      38.705 -14.184   3.965  1.00  0.00     0.163 HD
ENDROOT
BRANCH   1  15
HETATM   15  C   UNL     1      41.902 -16.573   5.692  1.00  0.00     0.146 C 
BRANCH  15  16
HETATM   16  C   UNL     1      43.291 -16.555   6.275  1.00  0.00     0.224 C 
HETATM   17  N   UNL     1      44.223 -17.500   6.001  1.00  0.00    -0.327 N 
HETATM   18  H   UNL     1      45.023 -17.450   6.626  1.00  0.00     0.169 HD
HETATM   19  O   UNL     1      43.564 -15.662   7.093  1.00  0.00    -0.273 OA
BRANCH  17  20
HETATM   20  C   UNL     1      44.271 -18.544   5.061  1.00  0.00     0.035 A 
HETATM   21  C   UNL     1      44.008 -18.396   3.698  1.00  0.00     0.036 A 
HETATM   22  C   UNL     1      44.067 -19.502   2.836  1.00  0.00    -0.059 A 
HETATM   23  C   UNL     1      43.811 -19.345   1.364  1.00  0.00     0.048 C 
HETATM   24  C   UNL     1      44.430 -20.754   3.345  1.00  0.00     0.013 A 
HETATM   25  C   UNL     1      44.743 -20.911   4.697  1.00  0.00    -0.059 A 
HETATM   26  C   UNL     1      44.664 -19.800   5.545  1.00  0.00     0.036 A 
HETATM   27  C   UNL     1      45.098 -22.265   5.240  1.00  0.00     0.048 C 
ENDBRANCH  17  20
ENDBRANCH  15  16
ENDBRANCH   1  15
TORSDOF 3
ENDMDL
MODEL 3
REMARK VINA RESULT:      -7.9      1.652      2.232
REMARK  3 active torsions:
REMARK  status: ('A' for Active; 'I' for Inactive)
REMARK    1  A    between atoms: C_4  and  N_5 
REMARK       I    between atoms: N_5  and  C_6 
REMARK    2  A    between atoms: C_6  and  C_7 
REMARK    3  A    between atoms: C_7  and  C_8 
ROOT
HETATM    1  C   UNL     1      40.198 -15.875   2.810  1.00  0.00     0.286 C 
HETATM    2  N   UNL     1      41.402 -15.443   3.648  1.00  0.00    -0.056 N 
HETATM    3  H   UNL     1      41.054 -15.230   4.591  1.00  0.00     0.278 HD
HETATM    4  H   UNL     1      42.010 -16.278   3.790  1.00  0.00     0.278 HD
HETATM    5  C   UNL     1      42.192 -14.287   3.104  1.00  0.00     0.209 C 
HETATM    6  C   UNL     1      41.226 -13.100   2.880  1.00  0.00     0.115 C 
HETATM    7  N   UNL     1      40.098 -13.494   2.046  1.00  0.00    -0.353 N 
HETATM    8  C   UNL     1      39.502 -14.727   2.053  1.00  0.00     0.249 C 
HETATM    9  O   UNL     1      38.463 -14.902   1.424  1.00  0.00    -0.271 OA
HETATM   10  C   UNL     1      43.313 -13.938   4.082  1.00  0.00     0.035 C 
HETATM   11  C   UNL     1      42.807 -13.329   5.390  1.00  0.00     0.002 C 
HETATM   12  C   UNL     1      41.873 -12.148   5.142  1.00  0.00     0.002 C 
HETATM   13  C   UNL     1      40.723 -12.508   4.207  1.00  0.00     0.027 C 
HETATM   14  H   UNL     1      39.573 -12.775   1.548  1.00  0.00     0.163 HD
ENDROOT
BRANCH   1  15
HETATM   15  C   UNL     1      40.545 -17.005   1.827  1.00  0.00     0.146 C 
BRANCH  15  16
HETATM   16  C   UNL     1      41.747 -16.616   1.006  1.00  0.00     0.224 C 
HETATM   17  N   UNL     1      42.996 -17.084   1.252  1.00  0.00    -0.327 N 
HETATM   18  H   UNL     1      43.710 -16.572   0.741  1.00  0.00     0.169 HD
HETATM   19  O   UNL     1      41.586 -15.781   0.102  1.00  0.00    -0.273 OA
BRANCH  17  20
HETATM   20  C   UNL     1      43.484 -18.095   2.097  1.00  0.00     0.035 A 
HETATM   21  C   UNL     1      43.896 -17.896   3.415  1.00  0.00     0.036 A 
HETATM   22  C   UNL     1      44.383 -18.967   4.180  1.00  0.00    -0.059 A 
HETATM   23  C   UNL     1      44.804 -18.765   5.608  1.00  0.00     0.048 C 
HETATM   24  C   UNL     1      44.420 -20.251   3.623  1.00  0.00     0.013 A 
HETATM   25  C   UNL     1      43.966 -20.477   2.322  1.00  0.00    -0.059 A 
HETATM   26  C   UNL     1      43.498 -19.394   1.568  1.00  0.00     0.036 A 
HETATM   27  C   UNL     1      44.040 -21.852   1.722  1.00  0.00     0.048 C 
ENDBRANCH  17  20
ENDBRANCH  15  16
ENDBRANCH   1  15
TORSDOF 3
ENDMDL
MODEL 4
REMARK VINA RESULT:      -7.9      1.720      3.041
REMARK  3 active torsions:
REMARK  status: ('A' for Active; 'I' for Inactive)
REMARK    1  A    between atoms: C_4  and  N_5 
REMARK       I    between atoms: N_5  and  C_6 
REMARK    2  A    between atoms: C_6  and  C_7 
REMARK    3  A    between atoms: C_7  and  C_8 
ROOT
HETATM    1  C   UNL     1      40.049 -16.304   2.029  1.00  0.00     0.286 C 
HETATM    2  N   UNL     1      40.627 -16.347   3.444  1.00  0.00    -0.056 N 
HETATM    3  H   UNL     1      39.834 -16.389   4.095  1.00  0.00     0.278 HD
HETATM    4  H   UNL     1      41.100 -17.268   3.568  1.00  0.00     0.278 HD
HETATM    5  C   UNL     1      41.546 -15.215   3.805  1.00  0.00     0.209 C 
HETATM    6  C   UNL     1      40.798 -13.885   3.561  1.00  0.00     0.115 C 
HETATM    7  N   UNL     1      40.281 -13.817   2.200  1.00  0.00    -0.353 N 
HETATM    8  C   UNL     1      39.809 -14.883   1.481  1.00  0.00     0.249 C 
HETATM    9  O   UNL     1      39.254 -14.690   0.404  1.00  0.00    -0.271 OA
HETATM   10  C   UNL     1      41.984 -15.368   5.262  1.00  0.00     0.035 C 
HETATM   11  C   UNL     1      40.853 -15.130   6.262  1.00  0.00     0.002 C 
HETATM   12  C   UNL     1      40.145 -13.802   6.012  1.00  0.00     0.002 C 
HETATM   13  C   UNL     1      39.660 -13.668   4.571  1.00  0.00     0.027 C 
HETATM   14  H   UNL     1      40.067 -12.907   1.794  1.00  0.00     0.163 HD
ENDROOT
BRANCH   1  15
HETATM   15  C   UNL     1      40.893 -17.108   1.027  1.00  0.00     0.146 C 
BRANCH  15  16
HETATM   16  C   UNL     1      42.237 -16.452   0.849  1.00  0.00     0.224 C 
HETATM   17  N   UNL     1      43.369 -16.907   1.442  1.00  0.00    -0.327 N 
HETATM   18  H   UNL     1      44.134 -16.240   1.382  1.00  0.00     0.169 HD
HETATM   19  O   UNL     1      42.290 -15.410   0.177  1.00  0.00    -0.273 OA
BRANCH  17  20
HETATM   20  C   UNL     1      43.665 -18.086   2.148  1.00  0.00     0.035 A 
HETATM   21  C   UNL     1      43.715 -19.359   1.578  1.00  0.00     0.036 A 
HETATM   22  C   UNL     1      44.006 -20.482   2.367  1.00  0.00    -0.059 A 
HETATM   23  C   UNL     1      44.088 -21.852   1.756  1.00  0.00     0.048 C 
HETATM   24  C   UNL     1      44.284 -20.315   3.729  1.00  0.00     0.013 A 
HETATM   25  C   UNL     1      44.285 -19.043   4.305  1.00  0.00    -0.059 A 
HETATM   26  C   UNL     1      43.977 -17.935   3.506  1.00  0.00     0.036 A 
HETATM   27  C   UNL     1      44.551 -18.877   5.774  1.00  0.00     0.048 C 
ENDBRANCH  17  20
ENDBRANCH  15  16
ENDBRANCH   1  15
TORSDOF 3
ENDMDL
MODEL 5
REMARK VINA RESULT:      -7.8      4.105      5.896
REMARK  3 active torsions:
REMARK  status: ('A' for Active; 'I' for Inactive)
REMARK    1  A    between atoms: C_4  and  N_5 
REMARK       I    between atoms: N_5  and  C_6 
REMARK    2  A    between atoms: C_6  and  C_7 
REMARK    3  A    between atoms: C_7  and  C_8 
ROOT
HETATM    1  C   UNL     1      40.988 -14.228  -1.195  1.00  0.00     0.286 C 
HETATM    2  N   UNL     1      41.510 -12.810  -0.959  1.00  0.00    -0.056 N 
HETATM    3  H   UNL     1      40.776 -12.161  -1.266  1.00  0.00     0.278 HD
HETATM    4  H   UNL     1      41.564 -12.655   0.071  1.00  0.00     0.278 HD
HETATM    5  C   UNL     1      42.816 -12.479  -1.623  1.00  0.00     0.209 C 
HETATM    6  C   UNL     1      42.680 -12.767  -3.136  1.00  0.00     0.115 C 
HETATM    7  N   UNL     1      42.224 -14.132  -3.370  1.00  0.00    -0.353 N 
HETATM    8  C   UNL     1      41.349 -14.820  -2.572  1.00  0.00     0.249 C 
HETATM    9  O   UNL     1      40.913 -15.905  -2.944  1.00  0.00    -0.271 OA
HETATM   10  C   UNL     1      43.166 -11.017  -1.346  1.00  0.00     0.035 C 
HETATM   11  C   UNL     1      42.241 -10.029  -2.058  1.00  0.00     0.002 C 
HETATM   12  C   UNL     1      42.140 -10.322  -3.552  1.00  0.00     0.002 C 
HETATM   13  C   UNL     1      41.740 -11.768  -3.831  1.00  0.00     0.027 C 
HETATM   14  H   UNL     1      42.400 -14.566  -4.275  1.00  0.00     0.163 HD
ENDROOT
BRANCH   1  15
HETATM   15  C   UNL     1      41.418 -15.202  -0.086  1.00  0.00     0.146 C 
BRANCH  15  16
HETATM   16  C   UNL     1      40.358 -15.259   0.983  1.00  0.00     0.224 C 
HETATM   17  N   UNL     1      40.433 -16.082   2.058  1.00  0.00    -0.327 N 
HETATM   18  H   UNL     1      39.553 -16.141   2.564  1.00  0.00     0.169 HD
HETATM   19  O   UNL     1      39.344 -14.561   0.831  1.00  0.00    -0.273 OA
BRANCH  17  20
HETATM   20  C   UNL     1      41.465 -16.887   2.570  1.00  0.00     0.035 A 
HETATM   21  C   UNL     1      41.942 -18.048   1.958  1.00  0.00     0.036 A 
HETATM   22  C   UNL     1      42.969 -18.797   2.553  1.00  0.00    -0.059 A 
HETATM   23  C   UNL     1      43.507 -20.032   1.887  1.00  0.00     0.048 C 
HETATM   24  C   UNL     1      43.542 -18.352   3.750  1.00  0.00     0.013 A 
HETATM   25  C   UNL     1      43.110 -17.168   4.351  1.00  0.00    -0.059 A 
HETATM   26  C   UNL     1      42.073 -16.442   3.752  1.00  0.00     0.036 A 
HETATM   27  C   UNL     1      43.707 -16.717   5.653  1.00  0.00     0.048 C 
ENDBRANCH  17  20
ENDBRANCH  15  16
ENDBRANCH   1  15
TORSDOF 3
ENDMDL
MODEL 6
REMARK VINA RESULT:      -7.8      6.041      7.868
REMARK  3 active torsions:
REMARK  status: ('A' for Active; 'I' for Inactive)
REMARK    1  A    between atoms: C_4  and  N_5 
REMARK       I    between atoms: N_5  and  C_6 
REMARK    2  A    between atoms: C_6  and  C_7 
REMARK    3  A    between atoms: C_7  and  C_8 
ROOT
HETATM    1  C   UNL     1      44.344 -11.264  10.234  1.00  0.00     0.286 C 
HETATM    2  N   UNL     1      43.627  -9.918  10.359  1.00  0.00    -0.056 N 
HETATM    3  H   UNL     1      44.259  -9.284  10.863  1.00  0.00     0.278 HD
HETATM    4  H   UNL     1      43.563  -9.499   9.407  1.00  0.00     0.278 HD
HETATM    5  C   UNL     1      42.280  -9.959  11.023  1.00  0.00     0.209 C 
HETATM    6  C   UNL     1      42.441 -10.625  12.409  1.00  0.00     0.115 C 
HETATM    7  N   UNL     1      43.085 -11.927  12.293  1.00  0.00    -0.353 N 
HETATM    8  C   UNL     1      44.057 -12.249  11.383  1.00  0.00     0.249 C 
HETATM    9  O   UNL     1      44.639 -13.326  11.474  1.00  0.00    -0.271 OA
HETATM   10  C   UNL     1      41.729  -8.537  11.130  1.00  0.00     0.035 C 
HETATM   11  C   UNL     1      42.496  -7.664  12.124  1.00  0.00     0.002 C 
HETATM   12  C   UNL     1      42.622  -8.335  13.488  1.00  0.00     0.002 C 
HETATM   13  C   UNL     1      43.221  -9.735  13.390  1.00  0.00     0.027 C 
HETATM   14  H   UNL     1      42.963 -12.611  13.039  1.00  0.00     0.163 HD
ENDROOT
BRANCH   1  15
HETATM   15  C   UNL     1      44.069 -11.949   8.886  1.00  0.00     0.146 C 
BRANCH  15  16
HETATM   16  C   UNL     1      45.368 -12.378   8.256  1.00  0.00     0.224 C 
HETATM   17  N   UNL     1      45.467 -13.423   7.397  1.00  0.00    -0.327 N 
HETATM   18  H   UNL     1      46.431 -13.697   7.229  1.00  0.00     0.169 HD
HETATM   19  O   UNL     1      46.401 -11.779   8.593  1.00  0.00    -0.273 OA
BRANCH  17  20
HETATM   20  C   UNL     1      44.504 -14.211   6.742  1.00  0.00     0.035 A 
HETATM   21  C   UNL     1      43.947 -13.909   5.498  1.00  0.00     0.036 A 
HETATM   22  C   UNL     1      42.980 -14.750   4.928  1.00  0.00    -0.059 A 
HETATM   23  C   UNL     1      42.395 -14.447   3.577  1.00  0.00     0.048 C 
HETATM   24  C   UNL     1      42.600 -15.919   5.598  1.00  0.00     0.013 A 
HETATM   25  C   UNL     1      43.182 -16.260   6.821  1.00  0.00    -0.059 A 
HETATM   26  C   UNL     1      44.135 -15.402   7.383  1.00  0.00     0.036 A 
HETATM   27  C   UNL     1      42.745 -17.499   7.549  1.00  0.00     0.048 C 
ENDBRANCH  17  20
ENDBRANCH  15  16
ENDBRANCH   1  15
TORSDOF 3
ENDMDL
MODEL 7
REMARK VINA RESULT:      -7.7      3.508      5.022
REMARK  3 active torsions:
REMARK  status: ('A' for Active; 'I' for Inactive)
REMARK    1  A    between atoms: C_4  and  N_5 
REMARK       I    between atoms: N_5  and  C_6 
REMARK    2  A    between atoms: C_6  and  C_7 
REMARK    3  A    between atoms: C_7  and  C_8 
ROOT
HETATM    1  C   UNL     1      41.235 -14.254   0.868  1.00  0.00     0.286 C 
HETATM    2  N   UNL     1      40.378 -14.709  -0.315  1.00  0.00    -0.056 N 
HETATM    3  H   UNL     1      40.989 -15.245  -0.942  1.00  0.00     0.278 HD
HETATM    4  H   UNL     1      39.698 -15.416   0.036  1.00  0.00     0.278 HD
HETATM    5  C   UNL     1      39.679 -13.614  -1.069  1.00  0.00     0.209 C 
HETATM    6  C   UNL     1      40.737 -12.583  -1.524  1.00  0.00     0.115 C 
HETATM    7  N   UNL     1      41.529 -12.113  -0.394  1.00  0.00    -0.353 N 
HETATM    8  C   UNL     1      41.893 -12.872   0.686  1.00  0.00     0.249 C 
HETATM    9  O   UNL     1      42.690 -12.422   1.503  1.00  0.00    -0.271 OA
HETATM   10  C   UNL     1      38.923 -14.221  -2.251  1.00  0.00     0.035 C 
HETATM   11  C   UNL     1      39.844 -14.758  -3.346  1.00  0.00     0.002 C 
HETATM   12  C   UNL     1      40.865 -13.716  -3.791  1.00  0.00     0.002 C 
HETATM   13  C   UNL     1      41.658 -13.146  -2.619  1.00  0.00     0.027 C 
HETATM   14  H   UNL     1      42.019 -11.222  -0.467  1.00  0.00     0.163 HD
ENDROOT
BRANCH   1  15
HETATM   15  C   UNL     1      40.463 -14.287   2.197  1.00  0.00     0.146 C 
BRANCH  15  16
HETATM   16  C   UNL     1      39.517 -15.459   2.209  1.00  0.00     0.224 C 
HETATM   17  N   UNL     1      39.878 -16.699   2.622  1.00  0.00    -0.327 N 
HETATM   18  H   UNL     1      39.190 -17.406   2.377  1.00  0.00     0.169 HD
HETATM   19  O   UNL     1      38.373 -15.286   1.761  1.00  0.00    -0.273 OA
BRANCH  17  20
HETATM   20  C   UNL     1      41.023 -17.189   3.274  1.00  0.00     0.035 A 
HETATM   21  C   UNL     1      41.244 -17.114   4.650  1.00  0.00     0.036 A 
HETATM   22  C   UNL     1      42.427 -17.619   5.211  1.00  0.00    -0.059 A 
HETATM   23  C   UNL     1      42.660 -17.566   6.694  1.00  0.00     0.048 C 
HETATM   24  C   UNL     1      43.374 -18.235   4.384  1.00  0.00     0.013 A 
HETATM   25  C   UNL     1      43.147 -18.361   3.012  1.00  0.00    -0.059 A 
HETATM   26  C   UNL     1      41.968 -17.838   2.467  1.00  0.00     0.036 A 
HETATM   27  C   UNL     1      44.184 -18.994   2.128  1.00  0.00     0.048 C 
ENDBRANCH  17  20
ENDBRANCH  15  16
ENDBRANCH   1  15
TORSDOF 3
ENDMDL
MODEL 8
REMARK VINA RESULT:      -7.6      1.979      3.390
REMARK  3 active torsions:
REMARK  status: ('A' for Active; 'I' for Inactive)
REMARK    1  A    between atoms: C_4  and  N_5 
REMARK       I    between atoms: N_5  and  C_6 
REMARK    2  A    between atoms: C_6  and  C_7 
REMARK    3  A    between atoms: C_7  and  C_8 
ROOT
HETATM    1  C   UNL     1      40.236 -15.320   3.163  1.00  0.00     0.286 C 
HETATM    2  N   UNL     1      39.721 -13.883   3.066  1.00  0.00    -0.056 N 
HETATM    3  H   UNL     1      38.722 -13.902   3.305  1.00  0.00     0.278 HD
HETATM    4  H   UNL     1      40.151 -13.335   3.842  1.00  0.00     0.278 HD
HETATM    5  C   UNL     1      39.933 -13.203   1.744  1.00  0.00     0.209 C 
HETATM    6  C   UNL     1      39.307 -14.085   0.638  1.00  0.00     0.115 C 
HETATM    7  N   UNL     1      39.826 -15.445   0.697  1.00  0.00    -0.353 N 
HETATM    8  C   UNL     1      40.163 -16.114   1.844  1.00  0.00     0.249 C 
HETATM    9  O   UNL     1      40.442 -17.308   1.790  1.00  0.00    -0.271 OA
HETATM   10  C   UNL     1      39.309 -11.809   1.788  1.00  0.00     0.035 C 
HETATM   11  C   UNL     1      37.781 -11.831   1.840  1.00  0.00     0.002 C 
HETATM   12  C   UNL     1      37.189 -12.690   0.727  1.00  0.00     0.002 C 
HETATM   13  C   UNL     1      37.772 -14.100   0.712  1.00  0.00     0.027 C 
HETATM   14  H   UNL     1      39.773 -16.034  -0.134  1.00  0.00     0.163 HD
ENDROOT
BRANCH   1  15
HETATM   15  C   UNL     1      41.663 -15.393   3.730  1.00  0.00     0.146 C 
BRANCH  15  16
HETATM   16  C   UNL     1      42.664 -15.282   2.610  1.00  0.00     0.224 C 
HETATM   17  N   UNL     1      43.589 -16.238   2.345  1.00  0.00    -0.327 N 
HETATM   18  H   UNL     1      44.304 -15.917   1.697  1.00  0.00     0.169 HD
HETATM   19  O   UNL     1      42.674 -14.236   1.942  1.00  0.00    -0.273 OA
BRANCH  17  20
HETATM   20  C   UNL     1      43.766 -17.548   2.821  1.00  0.00     0.035 A 
HETATM   21  C   UNL     1      43.709 -18.695   2.027  1.00  0.00     0.036 A 
HETATM   22  C   UNL     1      43.885 -19.966   2.595  1.00  0.00    -0.059 A 
HETATM   23  C   UNL     1      43.851 -21.202   1.742  1.00  0.00     0.048 C 
HETATM   24  C   UNL     1      44.157 -20.077   3.964  1.00  0.00     0.013 A 
HETATM   25  C   UNL     1      44.265 -18.938   4.764  1.00  0.00    -0.059 A 
HETATM   26  C   UNL     1      44.072 -17.679   4.183  1.00  0.00     0.036 A 
HETATM   27  C   UNL     1      44.524 -19.069   6.238  1.00  0.00     0.048 C 
ENDBRANCH  17  20
ENDBRANCH  15  16
ENDBRANCH   1  15
TORSDOF 3
ENDMDL
MODEL 9
REMARK VINA RESULT:      -7.5      2.892      4.482
REMARK  3 active torsions:
REMARK  status: ('A' for Active; 'I' for Inactive)
REMARK    1  A    between atoms: C_4  and  N_5 
REMARK       I    between atoms: N_5  and  C_6 
REMARK    2  A    between atoms: C_6  and  C_7 
REMARK    3  A    between atoms: C_7  and  C_8 
ROOT
HETATM    1  C   UNL     1      40.652 -15.207   1.251  1.00  0.00     0.286 C 
HETATM    2  N   UNL     1      39.668 -14.131   0.789  1.00  0.00    -0.056 N 
HETATM    3  H   UNL     1      38.834 -14.615   0.436  1.00  0.00     0.278 HD
HETATM    4  H   UNL     1      39.324 -13.627   1.634  1.00  0.00     0.278 HD
HETATM    5  C   UNL     1      40.192 -13.168  -0.238  1.00  0.00     0.209 C 
HETATM    6  C   UNL     1      40.719 -13.981  -1.443  1.00  0.00     0.115 C 
HETATM    7  N   UNL     1      41.691 -14.980  -1.016  1.00  0.00    -0.353 N 
HETATM    8  C   UNL     1      41.648 -15.667   0.168  1.00  0.00     0.249 C 
HETATM    9  O   UNL     1      42.428 -16.596   0.359  1.00  0.00    -0.271 OA
HETATM   10  C   UNL     1      39.075 -12.205  -0.640  1.00  0.00     0.035 C 
HETATM   11  C   UNL     1      37.958 -12.874  -1.440  1.00  0.00     0.002 C 
HETATM   12  C   UNL     1      38.503 -13.651  -2.635  1.00  0.00     0.002 C 
HETATM   13  C   UNL     1      39.581 -14.652  -2.229  1.00  0.00     0.027 C 
HETATM   14  H   UNL     1      42.354 -15.351  -1.695  1.00  0.00     0.163 HD
ENDROOT
BRANCH   1  15
HETATM   15  C   UNL     1      41.421 -14.792   2.516  1.00  0.00     0.146 C 
BRANCH  15  16
HETATM   16  C   UNL     1      40.653 -15.213   3.741  1.00  0.00     0.224 C 
HETATM   17  N   UNL     1      40.976 -16.301   4.482  1.00  0.00    -0.327 N 
HETATM   18  H   UNL     1      40.246 -16.553   5.143  1.00  0.00     0.169 HD
HETATM   19  O   UNL     1      39.641 -14.561   4.043  1.00  0.00    -0.273 OA
BRANCH  17  20
HETATM   20  C   UNL     1      42.092 -17.157   4.479  1.00  0.00     0.035 A 
HETATM   21  C   UNL     1      43.074 -17.182   5.471  1.00  0.00     0.036 A 
HETATM   22  C   UNL     1      44.162 -18.063   5.375  1.00  0.00    -0.059 A 
HETATM   23  C   UNL     1      45.208 -18.115   6.452  1.00  0.00     0.048 C 
HETATM   24  C   UNL     1      44.239 -18.949   4.294  1.00  0.00     0.013 A 
HETATM   25  C   UNL     1      43.240 -18.970   3.317  1.00  0.00    -0.059 A 
HETATM   26  C   UNL     1      42.170 -18.073   3.421  1.00  0.00     0.036 A 
HETATM   27  C   UNL     1      43.349 -19.899   2.143  1.00  0.00     0.048 C 
ENDBRANCH  17  20
ENDBRANCH  15  16
ENDBRANCH   1  15
TORSDOF 3
ENDMDL
MODEL 10
REMARK VINA RESULT:      -7.5      3.705      5.256
REMARK  3 active torsions:
REMARK  status: ('A' for Active; 'I' for Inactive)
REMARK    1  A    between atoms: C_4  and  N_5 
REMARK       I    between atoms: N_5  and  C_6 
REMARK    2  A    between atoms: C_6  and  C_7 
REMARK    3  A    between atoms: C_7  and  C_8 
ROOT
HETATM    1  C   UNL     1      40.419 -13.622   0.754  1.00  0.00     0.286 C 
HETATM    2  N   UNL     1      41.284 -13.416  -0.491  1.00  0.00    -0.056 N 
HETATM    3  H   UNL     1      41.199 -12.428  -0.759  1.00  0.00     0.278 HD
HETATM    4  H   UNL     1      42.282 -13.511  -0.206  1.00  0.00     0.278 HD
HETATM    5  C   UNL     1      40.968 -14.308  -1.657  1.00  0.00     0.209 C 
HETATM    6  C   UNL     1      39.469 -14.147  -2.000  1.00  0.00     0.115 C 
HETATM    7  N   UNL     1      38.636 -14.385  -0.828  1.00  0.00    -0.353 N 
HETATM    8  C   UNL     1      38.970 -14.056   0.458  1.00  0.00     0.249 C 
HETATM    9  O   UNL     1      38.131 -14.159   1.348  1.00  0.00    -0.271 OA
HETATM   10  C   UNL     1      41.870 -13.936  -2.834  1.00  0.00     0.035 C 
HETATM   11  C   UNL     1      41.541 -12.571  -3.439  1.00  0.00     0.002 C 
HETATM   12  C   UNL     1      40.061 -12.446  -3.788  1.00  0.00     0.002 C 
HETATM   13  C   UNL     1      39.159 -12.766  -2.600  1.00  0.00     0.027 C 
HETATM   14  H   UNL     1      37.657 -14.640  -0.958  1.00  0.00     0.163 HD
ENDROOT
BRANCH   1  15
HETATM   15  C   UNL     1      41.056 -14.599   1.754  1.00  0.00     0.146 C 
BRANCH  15  16
HETATM   16  C   UNL     1      42.409 -14.088   2.177  1.00  0.00     0.224 C 
HETATM   17  N   UNL     1      43.285 -14.822   2.907  1.00  0.00    -0.327 N 
HETATM   18  H   UNL     1      44.051 -14.263   3.271  1.00  0.00     0.169 HD
HETATM   19  O   UNL     1      42.701 -12.916   1.891  1.00  0.00    -0.273 OA
BRANCH  17  20
HETATM   20  C   UNL     1      43.309 -16.176   3.282  1.00  0.00     0.035 A 
HETATM   21  C   UNL     1      43.476 -17.242   2.396  1.00  0.00     0.036 A 
HETATM   22  C   UNL     1      43.473 -18.565   2.862  1.00  0.00    -0.059 A 
HETATM   23  C   UNL     1      43.678 -19.715   1.918  1.00  0.00     0.048 C 
HETATM   24  C   UNL     1      43.339 -18.812   4.234  1.00  0.00     0.013 A 
HETATM   25  C   UNL     1      43.220 -17.756   5.140  1.00  0.00    -0.059 A 
HETATM   26  C   UNL     1      43.209 -16.443   4.655  1.00  0.00     0.036 A 
HETATM   27  C   UNL     1      43.043 -18.032   6.606  1.00  0.00     0.048 C 
ENDBRANCH  17  20
ENDBRANCH  15  16
ENDBRANCH   1  15
TORSDOF 3
ENDMDL
