MODEL 1
REMARK VINA RESULT:      -8.7      0.000      0.000
REMARK  9 active torsions:
REMARK  status: ('A' for Active; 'I' for Inactive)
REMARK    1  A    between atoms: C_2  and  C_3 
REMARK    2  A    between atoms: C_3  and  C_4 
REMARK    3  A    between atoms: C_4  and  O_5 
REMARK    4  A    between atoms: O_5  and  C_6 
REMARK    5  A    between atoms: C_8  and  C_9 
REMARK       I    between atoms: C_9  and  N_10 
REMARK    6  A    between atoms: N_10  and  C_11 
REMARK    7  A    between atoms: N_12  and  C_13 
REMARK    8  A    between atoms: C_15  and  C_16 
REMARK    9  A    between atoms: C_25  and  O_26 
ROOT
HETATM    1  C   UNL     1      43.991 -14.485   6.544  1.00  0.00     0.179 C 
HETATM    2  N   UNL     1      42.850 -13.813   6.262  1.00  0.00    -0.333 N 
HETATM    3  S   UNL     1      45.296 -13.651   7.176  1.00  0.00    -0.040 SA
HETATM    4  H   UNL     1      42.748 -12.940   6.767  1.00  0.00     0.168 HD
ENDROOT
BRANCH   2   5
HETATM    5  C   UNL     1      41.876 -14.054   5.271  1.00  0.00     0.035 A 
HETATM    6  C   UNL     1      42.139 -13.962   3.897  1.00  0.00     0.046 A 
HETATM    7  C   UNL     1      41.132 -14.208   2.945  1.00  0.00     0.035 A 
HETATM    8  C   UNL     1      39.856 -14.563   3.416  1.00  0.00     0.078 A 
HETATM    9  C   UNL     1      39.572 -14.606   4.778  1.00  0.00     0.040 A 
HETATM   10  C   UNL     1      40.578 -14.336   5.703  1.00  0.00     0.032 A 
BRANCH   7  11
HETATM   11  C   UNL     1      41.378 -14.097   1.495  1.00  0.00     0.112 A 
HETATM   12  S   UNL     1      42.098 -12.700   0.796  1.00  0.00    -0.067 SA
HETATM   13  C   UNL     1      41.870 -13.356  -0.779  1.00  0.00     0.035 A 
HETATM   14  C   UNL     1      41.276 -14.612  -0.664  1.00  0.00     0.075 A 
HETATM   15  C   UNL     1      42.191 -12.797  -2.027  1.00  0.00     0.021 A 
HETATM   16  N   UNL     1      40.980 -15.012   0.629  1.00  0.00    -0.239 NA
HETATM   17  C   UNL     1      41.017 -15.351  -1.836  1.00  0.00     0.033 A 
HETATM   18  C   UNL     1      41.339 -14.809  -3.085  1.00  0.00     0.002 A 
HETATM   19  C   UNL     1      41.913 -13.545  -3.177  1.00  0.00     0.002 A 
ENDBRANCH   7  11
BRANCH   8  20
HETATM   20  O   UNL     1      38.816 -14.872   2.575  1.00  0.00    -0.360 OA
HETATM   21  H   UNL     1      39.155 -14.830   1.656  1.00  0.00     0.217 HD
ENDBRANCH   8  20
ENDBRANCH   2   5
BRANCH   1  22
HETATM   22  N   UNL     1      44.108 -15.833   6.371  1.00  0.00    -0.299 N 
HETATM   23  C   UNL     1      43.854 -16.849   7.289  1.00  0.00     0.257 C 
HETATM   24  O   UNL     1      43.595 -16.684   8.475  1.00  0.00    -0.267 OA
HETATM   25  H   UNL     1      44.749 -16.075   5.627  1.00  0.00     0.171 HD
BRANCH  23  26
HETATM   26  C   UNL     1      44.013 -18.238   6.765  1.00  0.00     0.035 A 
HETATM   27  C   UNL     1      44.531 -18.405   5.470  1.00  0.00     0.053 A 
HETATM   28  C   UNL     1      44.689 -19.685   4.940  1.00  0.00     0.069 A 
HETATM   29  C   UNL     1      44.322 -20.795   5.704  1.00  0.00     0.037 A 
HETATM   30  C   UNL     1      43.834 -20.638   7.001  1.00  0.00     0.004 A 
HETATM   31  C   UNL     1      43.686 -19.360   7.538  1.00  0.00     0.017 A 
BRANCH  28  32
HETATM   32  O   UNL     1      45.159 -19.980   3.691  1.00  0.00    -0.351 OA
BRANCH  32  33
HETATM   33  C   UNL     1      44.329 -20.802   2.867  1.00  0.00     0.175 C 
BRANCH  33  34
HETATM   34  C   UNL     1      43.310 -19.887   2.190  1.00  0.00     0.026 C 
BRANCH  34  35
HETATM   35  C   UNL     1      43.972 -18.683   1.528  1.00  0.00    -0.002 C 
HETATM   36  C   UNL     1      43.431 -17.376   2.089  1.00  0.00     0.005 C 
ENDBRANCH  34  35
ENDBRANCH  33  34
ENDBRANCH  32  33
ENDBRANCH  28  32
ENDBRANCH  23  26
ENDBRANCH   1  22
TORSDOF 9
ENDMDL
MODEL 2
REMARK VINA RESULT:      -8.3      2.225      3.020
REMARK  9 active torsions:
REMARK  status: ('A' for Active; 'I' for Inactive)
REMARK    1  A    between atoms: C_2  and  C_3 
REMARK    2  A    between atoms: C_3  and  C_4 
REMARK    3  A    between atoms: C_4  and  O_5 
REMARK    4  A    between atoms: O_5  and  C_6 
REMARK    5  A    between atoms: C_8  and  C_9 
REMARK       I    between atoms: C_9  and  N_10 
REMARK    6  A    between atoms: N_10  and  C_11 
REMARK    7  A    between atoms: N_12  and  C_13 
REMARK    8  A    between atoms: C_15  and  C_16 
REMARK    9  A    between atoms: C_25  and  O_26 
ROOT
HETATM    1  C   UNL     1      40.183 -14.371   5.260  1.00  0.00     0.179 C 
HETATM    2  N   UNL     1      39.615 -14.433   4.032  1.00  0.00    -0.333 N 
HETATM    3  S   UNL     1      39.618 -13.251   6.366  1.00  0.00    -0.040 SA
HETATM    4  H   UNL     1      38.679 -14.046   3.988  1.00  0.00     0.168 HD
ENDROOT
BRANCH   2   5
HETATM    5  C   UNL     1      40.175 -14.796   2.790  1.00  0.00     0.035 A 
HETATM    6  C   UNL     1      40.588 -13.861   1.831  1.00  0.00     0.046 A 
HETATM    7  C   UNL     1      41.138 -14.272   0.602  1.00  0.00     0.035 A 
HETATM    8  C   UNL     1      41.274 -15.653   0.373  1.00  0.00     0.078 A 
HETATM    9  C   UNL     1      40.819 -16.589   1.298  1.00  0.00     0.040 A 
HETATM   10  C   UNL     1      40.255 -16.160   2.497  1.00  0.00     0.032 A 
BRANCH   7  11
HETATM   11  C   UNL     1      41.561 -13.310  -0.432  1.00  0.00     0.112 A 
HETATM   12  S   UNL     1      42.162 -11.748  -0.032  1.00  0.00    -0.067 SA
HETATM   13  C   UNL     1      42.249 -11.341  -1.702  1.00  0.00     0.035 A 
HETATM   14  C   UNL     1      41.832 -12.437  -2.456  1.00  0.00     0.075 A 
HETATM   15  C   UNL     1      42.654 -10.137  -2.302  1.00  0.00     0.021 A 
HETATM   16  N   UNL     1      41.422 -13.540  -1.725  1.00  0.00    -0.239 NA
HETATM   17  C   UNL     1      41.845 -12.338  -3.862  1.00  0.00     0.033 A 
HETATM   18  C   UNL     1      42.254 -11.147  -4.472  1.00  0.00     0.002 A 
HETATM   19  C   UNL     1      42.647 -10.059  -3.699  1.00  0.00     0.002 A 
ENDBRANCH   7  11
BRANCH   8  20
HETATM   20  O   UNL     1      41.842 -16.162  -0.767  1.00  0.00    -0.360 OA
HETATM   21  H   UNL     1      41.609 -17.114  -0.816  1.00  0.00     0.217 HD
ENDBRANCH   8  20
ENDBRANCH   2   5
BRANCH   1  22
HETATM   22  N   UNL     1      41.178 -15.219   5.649  1.00  0.00    -0.299 N 
HETATM   23  C   UNL     1      41.063 -16.480   6.228  1.00  0.00     0.257 C 
HETATM   24  O   UNL     1      40.017 -16.995   6.605  1.00  0.00    -0.267 OA
HETATM   25  H   UNL     1      42.048 -14.737   5.834  1.00  0.00     0.171 HD
BRANCH  23  26
HETATM   26  C   UNL     1      42.353 -17.189   6.476  1.00  0.00     0.035 A 
HETATM   27  C   UNL     1      43.042 -17.722   5.374  1.00  0.00     0.053 A 
HETATM   28  C   UNL     1      44.247 -18.398   5.563  1.00  0.00     0.069 A 
HETATM   29  C   UNL     1      44.757 -18.545   6.855  1.00  0.00     0.037 A 
HETATM   30  C   UNL     1      44.093 -17.994   7.951  1.00  0.00     0.004 A 
HETATM   31  C   UNL     1      42.894 -17.308   7.763  1.00  0.00     0.017 A 
BRANCH  28  32
HETATM   32  O   UNL     1      45.000 -18.978   4.581  1.00  0.00    -0.351 OA
BRANCH  32  33
HETATM   33  C   UNL     1      44.588 -20.272   4.133  1.00  0.00     0.175 C 
BRANCH  33  34
HETATM   34  C   UNL     1      44.502 -20.221   2.609  1.00  0.00     0.026 C 
BRANCH  34  35
HETATM   35  C   UNL     1      43.411 -19.269   2.129  1.00  0.00    -0.002 C 
HETATM   36  C   UNL     1      44.004 -18.052   1.436  1.00  0.00     0.005 C 
ENDBRANCH  34  35
ENDBRANCH  33  34
ENDBRANCH  32  33
ENDBRANCH  28  32
ENDBRANCH  23  26
ENDBRANCH   1  22
TORSDOF 9
ENDMDL
MODEL 3
REMARK VINA RESULT:      -7.8      4.440      7.759
REMARK  9 active torsions:
REMARK  status: ('A' for Active; 'I' for Inactive)
REMARK    1  A    between atoms: C_2  and  C_3 
REMARK    2  A    between atoms: C_3  and  C_4 
REMARK    3  A    between atoms: C_4  and  O_5 
REMARK    4  A    between atoms: O_5  and  C_6 
REMARK    5  A    between atoms: C_8  and  C_9 
REMARK       I    between atoms: C_9  and  N_10 
REMARK    6  A    between atoms: N_10  and  C_11 
REMARK    7  A    between atoms: N_12  and  C_13 
REMARK    8  A    between atoms: C_15  and  C_16 
REMARK    9  A    between atoms: C_25  and  O_26 
ROOT
HETATM    1  C   UNL     1      42.291 -13.031   3.977  1.00  0.00     0.179 C 
HETATM    2  N   UNL     1      41.907 -11.934   4.671  1.00  0.00    -0.333 N 
HETATM    3  S   UNL     1      42.484 -12.925   2.320  1.00  0.00    -0.040 SA
HETATM    4  H   UNL     1      42.098 -11.057   4.198  1.00  0.00     0.168 HD
ENDROOT
BRANCH   2   5
HETATM    5  C   UNL     1      41.148 -11.826   5.855  1.00  0.00     0.035 A 
HETATM    6  C   UNL     1      41.606 -11.165   7.003  1.00  0.00     0.046 A 
HETATM    7  C   UNL     1      40.813 -11.087   8.163  1.00  0.00     0.035 A 
HETATM    8  C   UNL     1      39.539 -11.682   8.129  1.00  0.00     0.078 A 
HETATM    9  C   UNL     1      39.097 -12.385   7.012  1.00  0.00     0.040 A 
HETATM   10  C   UNL     1      39.908 -12.470   5.882  1.00  0.00     0.032 A 
BRANCH   7  11
HETATM   11  C   UNL     1      41.280 -10.416   9.391  1.00  0.00     0.112 A 
HETATM   12  S   UNL     1      40.960  -8.754   9.699  1.00  0.00    -0.067 SA
HETATM   13  C   UNL     1      41.909  -8.825  11.132  1.00  0.00     0.035 A 
HETATM   14  C   UNL     1      42.391 -10.124  11.292  1.00  0.00     0.075 A 
HETATM   15  C   UNL     1      42.209  -7.804  12.049  1.00  0.00     0.021 A 
HETATM   16  N   UNL     1      42.048 -11.012  10.285  1.00  0.00    -0.239 NA
HETATM   17  C   UNL     1      43.180 -10.422  12.421  1.00  0.00     0.033 A 
HETATM   18  C   UNL     1      43.479  -9.415  13.345  1.00  0.00     0.002 A 
HETATM   19  C   UNL     1      43.004  -8.121  13.156  1.00  0.00     0.002 A 
ENDBRANCH   7  11
BRANCH   8  20
HETATM   20  O   UNL     1      38.666 -11.623   9.185  1.00  0.00    -0.360 OA
HETATM   21  H   UNL     1      39.094 -12.063   9.951  1.00  0.00     0.217 HD
ENDBRANCH   8  20
ENDBRANCH   2   5
BRANCH   1  22
HETATM   22  N   UNL     1      42.568 -14.221   4.585  1.00  0.00    -0.299 N 
HETATM   23  C   UNL     1      43.421 -14.466   5.658  1.00  0.00     0.257 C 
HETATM   24  O   UNL     1      44.178 -13.645   6.165  1.00  0.00    -0.267 OA
HETATM   25  H   UNL     1      42.393 -15.015   3.984  1.00  0.00     0.171 HD
BRANCH  23  26
HETATM   26  C   UNL     1      43.454 -15.879   6.138  1.00  0.00     0.035 A 
HETATM   27  C   UNL     1      43.392 -16.907   5.184  1.00  0.00     0.053 A 
HETATM   28  C   UNL     1      43.412 -18.241   5.590  1.00  0.00     0.069 A 
HETATM   29  C   UNL     1      43.488 -18.544   6.951  1.00  0.00     0.037 A 
HETATM   30  C   UNL     1      43.579 -17.528   7.904  1.00  0.00     0.004 A 
HETATM   31  C   UNL     1      43.571 -16.194   7.499  1.00  0.00     0.017 A 
BRANCH  28  32
HETATM   32  O   UNL     1      43.336 -19.328   4.766  1.00  0.00    -0.351 OA
BRANCH  32  33
HETATM   33  C   UNL     1      44.537 -20.081   4.579  1.00  0.00     0.175 C 
BRANCH  33  34
HETATM   34  C   UNL     1      44.854 -20.071   3.085  1.00  0.00     0.026 C 
BRANCH  34  35
HETATM   35  C   UNL     1      43.699 -20.614   2.251  1.00  0.00    -0.002 C 
HETATM   36  C   UNL     1      44.064 -21.936   1.594  1.00  0.00     0.005 C 
ENDBRANCH  34  35
ENDBRANCH  33  34
ENDBRANCH  32  33
ENDBRANCH  28  32
ENDBRANCH  23  26
ENDBRANCH   1  22
TORSDOF 9
ENDMDL
MODEL 4
REMARK VINA RESULT:      -7.7      1.602      2.255
REMARK  9 active torsions:
REMARK  status: ('A' for Active; 'I' for Inactive)
REMARK    1  A    between atoms: C_2  and  C_3 
REMARK    2  A    between atoms: C_3  and  C_4 
REMARK    3  A    between atoms: C_4  and  O_5 
REMARK    4  A    between atoms: O_5  and  C_6 
REMARK    5  A    between atoms: C_8  and  C_9 
REMARK       I    between atoms: C_9  and  N_10 
REMARK    6  A    between atoms: N_10  and  C_11 
REMARK    7  A    between atoms: N_12  and  C_13 
REMARK    8  A    between atoms: C_15  and  C_16 
REMARK    9  A    between atoms: C_25  and  O_26 
ROOT
HETATM    1  C   UNL     1      43.820 -14.287   6.446  1.00  0.00     0.179 C 
HETATM    2  N   UNL     1      42.673 -13.580   6.303  1.00  0.00    -0.333 N 
HETATM    3  S   UNL     1      45.063 -13.651   7.366  1.00  0.00    -0.040 SA
HETATM    4  H   UNL     1      42.518 -12.893   7.031  1.00  0.00     0.168 HD
ENDROOT
BRANCH   2   5
HETATM    5  C   UNL     1      41.759 -13.539   5.230  1.00  0.00     0.035 A 
HETATM    6  C   UNL     1      42.104 -13.101   3.944  1.00  0.00     0.046 A 
HETATM    7  C   UNL     1      41.155 -13.074   2.905  1.00  0.00     0.035 A 
HETATM    8  C   UNL     1      39.852 -13.516   3.195  1.00  0.00     0.078 A 
HETATM    9  C   UNL     1      39.488 -13.904   4.481  1.00  0.00     0.040 A 
HETATM   10  C   UNL     1      40.437 -13.900   5.500  1.00  0.00     0.032 A 
BRANCH   7  11
HETATM   11  C   UNL     1      41.486 -12.597   1.549  1.00  0.00     0.112 A 
HETATM   12  S   UNL     1      41.643 -13.674   0.217  1.00  0.00    -0.067 SA
HETATM   13  C   UNL     1      42.129 -12.371  -0.795  1.00  0.00     0.035 A 
HETATM   14  C   UNL     1      42.120 -11.192  -0.050  1.00  0.00     0.075 A 
HETATM   15  C   UNL     1      42.498 -12.390  -2.151  1.00  0.00     0.021 A 
HETATM   16  N   UNL     1      41.776 -11.336   1.284  1.00  0.00    -0.239 NA
HETATM   17  C   UNL     1      42.463  -9.983  -0.688  1.00  0.00     0.033 A 
HETATM   18  C   UNL     1      42.824  -9.988  -2.040  1.00  0.00     0.002 A 
HETATM   19  C   UNL     1      42.846 -11.179  -2.759  1.00  0.00     0.002 A 
ENDBRANCH   7  11
BRANCH   8  20
HETATM   20  O   UNL     1      38.864 -13.579   2.245  1.00  0.00    -0.360 OA
HETATM   21  H   UNL     1      39.174 -14.176   1.532  1.00  0.00     0.217 HD
ENDBRANCH   8  20
ENDBRANCH   2   5
BRANCH   1  22
HETATM   22  N   UNL     1      43.989 -15.525   5.898  1.00  0.00    -0.299 N 
HETATM   23  C   UNL     1      43.874 -16.767   6.516  1.00  0.00     0.257 C 
HETATM   24  O   UNL     1      43.719 -16.950   7.718  1.00  0.00    -0.267 OA
HETATM   25  H   UNL     1      44.570 -15.508   5.070  1.00  0.00     0.171 HD
BRANCH  23  26
HETATM   26  C   UNL     1      44.054 -17.946   5.619  1.00  0.00     0.035 A 
HETATM   27  C   UNL     1      43.777 -17.790   4.251  1.00  0.00     0.053 A 
HETATM   28  C   UNL     1      43.924 -18.868   3.379  1.00  0.00     0.069 A 
HETATM   29  C   UNL     1      44.345 -20.103   3.879  1.00  0.00     0.037 A 
HETATM   30  C   UNL     1      44.650 -20.259   5.231  1.00  0.00     0.004 A 
HETATM   31  C   UNL     1      44.513 -19.179   6.103  1.00  0.00     0.017 A 
BRANCH  28  32
HETATM   32  O   UNL     1      43.667 -18.851   2.037  1.00  0.00    -0.351 OA
BRANCH  32  33
HETATM   33  C   UNL     1      43.967 -17.640   1.339  1.00  0.00     0.175 C 
BRANCH  33  34
HETATM   34  C   UNL     1      42.658 -17.122   0.744  1.00  0.00     0.026 C 
BRANCH  34  35
HETATM   35  C   UNL     1      41.440 -17.806   1.355  1.00  0.00    -0.002 C 
HETATM   36  C   UNL     1      40.665 -16.856   2.256  1.00  0.00     0.005 C 
ENDBRANCH  34  35
ENDBRANCH  33  34
ENDBRANCH  32  33
ENDBRANCH  28  32
ENDBRANCH  23  26
ENDBRANCH   1  22
TORSDOF 9
ENDMDL
MODEL 5
REMARK VINA RESULT:      -7.6      1.577      2.830
REMARK  9 active torsions:
REMARK  status: ('A' for Active; 'I' for Inactive)
REMARK    1  A    between atoms: C_2  and  C_3 
REMARK    2  A    between atoms: C_3  and  C_4 
REMARK    3  A    between atoms: C_4  and  O_5 
REMARK    4  A    between atoms: O_5  and  C_6 
REMARK    5  A    between atoms: C_8  and  C_9 
REMARK       I    between atoms: C_9  and  N_10 
REMARK    6  A    between atoms: N_10  and  C_11 
REMARK    7  A    between atoms: N_12  and  C_13 
REMARK    8  A    between atoms: C_15  and  C_16 
REMARK    9  A    between atoms: C_25  and  O_26 
ROOT
HETATM    1  C   UNL     1      43.346 -14.492   6.079  1.00  0.00     0.179 C 
HETATM    2  N   UNL     1      42.265 -13.681   6.161  1.00  0.00    -0.333 N 
HETATM    3  S   UNL     1      44.644 -14.230   7.100  1.00  0.00    -0.040 SA
HETATM    4  H   UNL     1      42.173 -13.202   7.050  1.00  0.00     0.168 HD
ENDROOT
BRANCH   2   5
HETATM    5  C   UNL     1      41.352 -13.279   5.164  1.00  0.00     0.035 A 
HETATM    6  C   UNL     1      41.591 -13.447   3.792  1.00  0.00     0.046 A 
HETATM    7  C   UNL     1      40.652 -13.026   2.832  1.00  0.00     0.035 A 
HETATM    8  C   UNL     1      39.457 -12.445   3.294  1.00  0.00     0.078 A 
HETATM    9  C   UNL     1      39.234 -12.228   4.651  1.00  0.00     0.040 A 
HETATM   10  C   UNL     1      40.188 -12.630   5.583  1.00  0.00     0.032 A 
BRANCH   7  11
HETATM   11  C   UNL     1      40.888 -13.171   1.384  1.00  0.00     0.112 A 
HETATM   12  S   UNL     1      40.177 -14.442   0.468  1.00  0.00    -0.067 SA
HETATM   13  C   UNL     1      41.044 -13.935  -0.930  1.00  0.00     0.035 A 
HETATM   14  C   UNL     1      41.804 -12.811  -0.607  1.00  0.00     0.075 A 
HETATM   15  C   UNL     1      41.053 -14.492  -2.219  1.00  0.00     0.021 A 
HETATM   16  N   UNL     1      41.727 -12.402   0.714  1.00  0.00    -0.239 NA
HETATM   17  C   UNL     1      42.582 -12.205  -1.614  1.00  0.00     0.033 A 
HETATM   18  C   UNL     1      42.594 -12.747  -2.904  1.00  0.00     0.002 A 
HETATM   19  C   UNL     1      41.842 -13.881  -3.199  1.00  0.00     0.002 A 
ENDBRANCH   7  11
BRANCH   8  20
HETATM   20  O   UNL     1      38.453 -12.046   2.449  1.00  0.00    -0.360 OA
HETATM   21  H   UNL     1      37.647 -11.904   2.990  1.00  0.00     0.217 HD
ENDBRANCH   8  20
ENDBRANCH   2   5
BRANCH   1  22
HETATM   22  N   UNL     1      43.404 -15.548   5.218  1.00  0.00    -0.299 N 
HETATM   23  C   UNL     1      42.600 -16.685   5.188  1.00  0.00     0.257 C 
HETATM   24  O   UNL     1      41.765 -16.986   6.033  1.00  0.00    -0.267 OA
HETATM   25  H   UNL     1      44.316 -15.654   4.793  1.00  0.00     0.171 HD
BRANCH  23  26
HETATM   26  C   UNL     1      42.876 -17.633   4.068  1.00  0.00     0.035 A 
HETATM   27  C   UNL     1      43.877 -18.602   4.248  1.00  0.00     0.053 A 
HETATM   28  C   UNL     1      44.173 -19.501   3.225  1.00  0.00     0.069 A 
HETATM   29  C   UNL     1      43.470 -19.427   2.020  1.00  0.00     0.037 A 
HETATM   30  C   UNL     1      42.455 -18.486   1.844  1.00  0.00     0.004 A 
HETATM   31  C   UNL     1      42.150 -17.592   2.870  1.00  0.00     0.017 A 
BRANCH  28  32
HETATM   32  O   UNL     1      45.133 -20.472   3.268  1.00  0.00    -0.351 OA
BRANCH  32  33
HETATM   33  C   UNL     1      44.720 -21.769   3.703  1.00  0.00     0.175 C 
BRANCH  33  34
HETATM   34  C   UNL     1      45.132 -21.912   5.167  1.00  0.00     0.026 C 
BRANCH  34  35
HETATM   35  C   UNL     1      43.928 -22.081   6.087  1.00  0.00    -0.002 C 
HETATM   36  C   UNL     1      43.757 -20.877   7.002  1.00  0.00     0.005 C 
ENDBRANCH  34  35
ENDBRANCH  33  34
ENDBRANCH  32  33
ENDBRANCH  28  32
ENDBRANCH  23  26
ENDBRANCH   1  22
TORSDOF 9
ENDMDL
MODEL 6
REMARK VINA RESULT:      -7.6      3.932      7.677
REMARK  9 active torsions:
REMARK  status: ('A' for Active; 'I' for Inactive)
REMARK    1  A    between atoms: C_2  and  C_3 
REMARK    2  A    between atoms: C_3  and  C_4 
REMARK    3  A    between atoms: C_4  and  O_5 
REMARK    4  A    between atoms: O_5  and  C_6 
REMARK    5  A    between atoms: C_8  and  C_9 
REMARK       I    between atoms: C_9  and  N_10 
REMARK    6  A    between atoms: N_10  and  C_11 
REMARK    7  A    between atoms: N_12  and  C_13 
REMARK    8  A    between atoms: C_15  and  C_16 
REMARK    9  A    between atoms: C_25  and  O_26 
ROOT
HETATM    1  C   UNL     1      41.542 -12.077   2.157  1.00  0.00     0.179 C 
HETATM    2  N   UNL     1      41.363 -11.262   3.224  1.00  0.00    -0.333 N 
HETATM    3  S   UNL     1      41.399 -11.448   0.614  1.00  0.00    -0.040 SA
HETATM    4  H   UNL     1      41.496 -10.278   3.020  1.00  0.00     0.168 HD
ENDROOT
BRANCH   2   5
HETATM    5  C   UNL     1      40.867 -11.548   4.513  1.00  0.00     0.035 A 
HETATM    6  C   UNL     1      41.479 -11.091   5.689  1.00  0.00     0.046 A 
HETATM    7  C   UNL     1      40.949 -11.407   6.954  1.00  0.00     0.035 A 
HETATM    8  C   UNL     1      39.777 -12.183   7.001  1.00  0.00     0.078 A 
HETATM    9  C   UNL     1      39.193 -12.683   5.841  1.00  0.00     0.040 A 
HETATM   10  C   UNL     1      39.748 -12.379   4.600  1.00  0.00     0.032 A 
BRANCH   7  11
HETATM   11  C   UNL     1      41.585 -10.957   8.207  1.00  0.00     0.112 A 
HETATM   12  S   UNL     1      43.219 -11.337   8.587  1.00  0.00    -0.067 SA
HETATM   13  C   UNL     1      43.044 -10.598  10.131  1.00  0.00     0.035 A 
HETATM   14  C   UNL     1      41.750 -10.090  10.245  1.00  0.00     0.075 A 
HETATM   15  C   UNL     1      43.983 -10.479  11.169  1.00  0.00     0.021 A 
HETATM   16  N   UNL     1      40.924 -10.321   9.157  1.00  0.00    -0.239 NA
HETATM   17  C   UNL     1      41.387  -9.414  11.428  1.00  0.00     0.033 A 
HETATM   18  C   UNL     1      42.316  -9.283  12.466  1.00  0.00     0.002 A 
HETATM   19  C   UNL     1      43.595  -9.815  12.338  1.00  0.00     0.002 A 
ENDBRANCH   7  11
BRANCH   8  20
HETATM   20  O   UNL     1      39.150 -12.506   8.177  1.00  0.00    -0.360 OA
HETATM   21  H   UNL     1      39.116 -13.484   8.237  1.00  0.00     0.217 HD
ENDBRANCH   8  20
ENDBRANCH   2   5
BRANCH   1  22
HETATM   22  N   UNL     1      41.879 -13.392   2.290  1.00  0.00    -0.299 N 
HETATM   23  C   UNL     1      42.940 -13.946   3.001  1.00  0.00     0.257 C 
HETATM   24  O   UNL     1      43.842 -13.313   3.537  1.00  0.00    -0.267 OA
HETATM   25  H   UNL     1      41.520 -13.963   1.536  1.00  0.00     0.171 HD
BRANCH  23  26
HETATM   26  C   UNL     1      42.995 -15.438   3.007  1.00  0.00     0.035 A 
HETATM   27  C   UNL     1      43.081 -16.096   4.244  1.00  0.00     0.053 A 
HETATM   28  C   UNL     1      43.143 -17.488   4.294  1.00  0.00     0.069 A 
HETATM   29  C   UNL     1      43.125 -18.220   3.104  1.00  0.00     0.037 A 
HETATM   30  C   UNL     1      43.011 -17.574   1.872  1.00  0.00     0.004 A 
HETATM   31  C   UNL     1      42.938 -16.183   1.821  1.00  0.00     0.017 A 
BRANCH  28  32
HETATM   32  O   UNL     1      43.249 -18.243   5.428  1.00  0.00    -0.351 OA
BRANCH  32  33
HETATM   33  C   UNL     1      44.526 -18.825   5.698  1.00  0.00     0.175 C 
BRANCH  33  34
HETATM   34  C   UNL     1      44.317 -20.329   5.861  1.00  0.00     0.026 C 
BRANCH  34  35
HETATM   35  C   UNL     1      44.865 -21.116   4.675  1.00  0.00    -0.002 C 
HETATM   36  C   UNL     1      45.100 -22.574   5.039  1.00  0.00     0.005 C 
ENDBRANCH  34  35
ENDBRANCH  33  34
ENDBRANCH  32  33
ENDBRANCH  28  32
ENDBRANCH  23  26
ENDBRANCH   1  22
TORSDOF 9
ENDMDL
MODEL 7
REMARK VINA RESULT:      -7.6      3.388      8.692
REMARK  9 active torsions:
REMARK  status: ('A' for Active; 'I' for Inactive)
REMARK    1  A    between atoms: C_2  and  C_3 
REMARK    2  A    between atoms: C_3  and  C_4 
REMARK    3  A    between atoms: C_4  and  O_5 
REMARK    4  A    between atoms: O_5  and  C_6 
REMARK    5  A    between atoms: C_8  and  C_9 
REMARK       I    between atoms: C_9  and  N_10 
REMARK    6  A    between atoms: N_10  and  C_11 
REMARK    7  A    between atoms: N_12  and  C_13 
REMARK    8  A    between atoms: C_15  and  C_16 
REMARK    9  A    between atoms: C_25  and  O_26 
ROOT
HETATM    1  C   UNL     1      41.545 -11.602   0.779  1.00  0.00     0.179 C 
HETATM    2  N   UNL     1      42.090 -12.121   1.905  1.00  0.00    -0.333 N 
HETATM    3  S   UNL     1      41.602  -9.949   0.530  1.00  0.00    -0.040 SA
HETATM    4  H   UNL     1      42.787 -11.526   2.340  1.00  0.00     0.168 HD
ENDROOT
BRANCH   2   5
HETATM    5  C   UNL     1      41.730 -13.266   2.644  1.00  0.00     0.035 A 
HETATM    6  C   UNL     1      42.370 -14.505   2.501  1.00  0.00     0.046 A 
HETATM    7  C   UNL     1      41.972 -15.622   3.258  1.00  0.00     0.035 A 
HETATM    8  C   UNL     1      40.920 -15.452   4.176  1.00  0.00     0.078 A 
HETATM    9  C   UNL     1      40.245 -14.240   4.288  1.00  0.00     0.040 A 
HETATM   10  C   UNL     1      40.640 -13.153   3.511  1.00  0.00     0.032 A 
BRANCH   7  11
HETATM   11  C   UNL     1      42.614 -16.942   3.112  1.00  0.00     0.112 A 
HETATM   12  S   UNL     1      42.395 -17.911   1.708  1.00  0.00    -0.067 SA
HETATM   13  C   UNL     1      43.306 -19.181   2.427  1.00  0.00     0.035 A 
HETATM   14  C   UNL     1      43.736 -18.770   3.688  1.00  0.00     0.075 A 
HETATM   15  C   UNL     1      43.615 -20.452   1.915  1.00  0.00     0.021 A 
HETATM   16  N   UNL     1      43.318 -17.507   4.076  1.00  0.00    -0.239 NA
HETATM   17  C   UNL     1      44.527 -19.649   4.456  1.00  0.00     0.033 A 
HETATM   18  C   UNL     1      44.848 -20.914   3.953  1.00  0.00     0.002 A 
HETATM   19  C   UNL     1      44.391 -21.311   2.700  1.00  0.00     0.002 A 
ENDBRANCH   7  11
BRANCH   8  20
HETATM   20  O   UNL     1      40.486 -16.459   5.000  1.00  0.00    -0.360 OA
HETATM   21  H   UNL     1      39.646 -16.806   4.629  1.00  0.00     0.217 HD
ENDBRANCH   8  20
ENDBRANCH   2   5
BRANCH   1  22
HETATM   22  N   UNL     1      40.982 -12.382  -0.188  1.00  0.00    -0.299 N 
HETATM   23  C   UNL     1      41.591 -12.951  -1.304  1.00  0.00     0.257 C 
HETATM   24  O   UNL     1      42.739 -12.734  -1.673  1.00  0.00    -0.267 OA
HETATM   25  H   UNL     1      39.983 -12.245  -0.265  1.00  0.00     0.171 HD
BRANCH  23  26
HETATM   26  C   UNL     1      40.708 -13.817  -2.141  1.00  0.00     0.035 A 
HETATM   27  C   UNL     1      39.497 -13.280  -2.606  1.00  0.00     0.053 A 
HETATM   28  C   UNL     1      38.640 -14.057  -3.384  1.00  0.00     0.069 A 
HETATM   29  C   UNL     1      38.994 -15.372  -3.691  1.00  0.00     0.037 A 
HETATM   30  C   UNL     1      40.208 -15.904  -3.256  1.00  0.00     0.004 A 
HETATM   31  C   UNL     1      41.072 -15.125  -2.487  1.00  0.00     0.017 A 
BRANCH  28  32
HETATM   32  O   UNL     1      37.429 -13.659  -3.878  1.00  0.00    -0.351 OA
BRANCH  32  33
HETATM   33  C   UNL     1      36.513 -14.693  -4.246  1.00  0.00     0.175 C 
BRANCH  33  34
HETATM   34  C   UNL     1      35.378 -14.038  -5.032  1.00  0.00     0.026 C 
BRANCH  34  35
HETATM   35  C   UNL     1      35.381 -12.520  -4.883  1.00  0.00    -0.002 C 
HETATM   36  C   UNL     1      34.083 -12.022  -4.266  1.00  0.00     0.005 C 
ENDBRANCH  34  35
ENDBRANCH  33  34
ENDBRANCH  32  33
ENDBRANCH  28  32
ENDBRANCH  23  26
ENDBRANCH   1  22
TORSDOF 9
ENDMDL
MODEL 8
REMARK VINA RESULT:      -7.6      2.981      8.316
REMARK  9 active torsions:
REMARK  status: ('A' for Active; 'I' for Inactive)
REMARK    1  A    between atoms: C_2  and  C_3 
REMARK    2  A    between atoms: C_3  and  C_4 
REMARK    3  A    between atoms: C_4  and  O_5 
REMARK    4  A    between atoms: O_5  and  C_6 
REMARK    5  A    between atoms: C_8  and  C_9 
REMARK       I    between atoms: C_9  and  N_10 
REMARK    6  A    between atoms: N_10  and  C_11 
REMARK    7  A    between atoms: N_12  and  C_13 
REMARK    8  A    between atoms: C_15  and  C_16 
REMARK    9  A    between atoms: C_25  and  O_26 
ROOT
HETATM    1  C   UNL     1      41.132 -10.683   1.728  1.00  0.00     0.179 C 
HETATM    2  N   UNL     1      41.210 -11.701   2.618  1.00  0.00    -0.333 N 
HETATM    3  S   UNL     1      40.893  -9.126   2.288  1.00  0.00    -0.040 SA
HETATM    4  H   UNL     1      41.463 -11.413   3.556  1.00  0.00     0.168 HD
ENDROOT
BRANCH   2   5
HETATM    5  C   UNL     1      40.842 -13.056   2.483  1.00  0.00     0.035 A 
HETATM    6  C   UNL     1      41.650 -14.118   2.914  1.00  0.00     0.046 A 
HETATM    7  C   UNL     1      41.242 -15.455   2.755  1.00  0.00     0.035 A 
HETATM    8  C   UNL     1      39.989 -15.692   2.161  1.00  0.00     0.078 A 
HETATM    9  C   UNL     1      39.204 -14.647   1.683  1.00  0.00     0.040 A 
HETATM   10  C   UNL     1      39.638 -13.332   1.830  1.00  0.00     0.032 A 
BRANCH   7  11
HETATM   11  C   UNL     1      42.081 -16.590   3.180  1.00  0.00     0.112 A 
HETATM   12  S   UNL     1      42.826 -16.643   4.730  1.00  0.00    -0.067 SA
HETATM   13  C   UNL     1      43.626 -18.107   4.310  1.00  0.00     0.035 A 
HETATM   14  C   UNL     1      43.253 -18.470   3.016  1.00  0.00     0.075 A 
HETATM   15  C   UNL     1      44.522 -18.877   5.068  1.00  0.00     0.021 A 
HETATM   16  N   UNL     1      42.396 -17.590   2.376  1.00  0.00    -0.239 NA
HETATM   17  C   UNL     1      43.773 -19.660   2.468  1.00  0.00     0.033 A 
HETATM   18  C   UNL     1      44.660 -20.440   3.217  1.00  0.00     0.002 A 
HETATM   19  C   UNL     1      45.034 -20.048   4.499  1.00  0.00     0.002 A 
ENDBRANCH   7  11
BRANCH   8  20
HETATM   20  O   UNL     1      39.472 -16.953   2.002  1.00  0.00    -0.360 OA
HETATM   21  H   UNL     1      38.690 -17.030   2.590  1.00  0.00     0.217 HD
ENDBRANCH   8  20
ENDBRANCH   2   5
BRANCH   1  22
HETATM   22  N   UNL     1      41.281 -10.872   0.386  1.00  0.00    -0.299 N 
HETATM   23  C   UNL     1      42.398 -10.613  -0.406  1.00  0.00     0.257 C 
HETATM   24  O   UNL     1      43.415 -10.041  -0.032  1.00  0.00    -0.267 OA
HETATM   25  H   UNL     1      40.397 -10.882  -0.106  1.00  0.00     0.171 HD
BRANCH  23  26
HETATM   26  C   UNL     1      42.265 -10.996  -1.842  1.00  0.00     0.035 A 
HETATM   27  C   UNL     1      41.831 -12.297  -2.147  1.00  0.00     0.053 A 
HETATM   28  C   UNL     1      41.701 -12.698  -3.476  1.00  0.00     0.069 A 
HETATM   29  C   UNL     1      42.011 -11.798  -4.498  1.00  0.00     0.037 A 
HETATM   30  C   UNL     1      42.416 -10.496  -4.204  1.00  0.00     0.004 A 
HETATM   31  C   UNL     1      42.536 -10.089  -2.876  1.00  0.00     0.017 A 
BRANCH  28  32
HETATM   32  O   UNL     1      41.310 -13.936  -3.902  1.00  0.00    -0.351 OA
BRANCH  32  33
HETATM   33  C   UNL     1      40.925 -14.872  -2.893  1.00  0.00     0.175 C 
BRANCH  33  34
HETATM   34  C   UNL     1      39.748 -15.676  -3.443  1.00  0.00     0.026 C 
BRANCH  34  35
HETATM   35  C   UNL     1      38.444 -14.886  -3.399  1.00  0.00    -0.002 C 
HETATM   36  C   UNL     1      38.310 -14.112  -2.097  1.00  0.00     0.005 C 
ENDBRANCH  34  35
ENDBRANCH  33  34
ENDBRANCH  32  33
ENDBRANCH  28  32
ENDBRANCH  23  26
ENDBRANCH   1  22
TORSDOF 9
ENDMDL
MODEL 9
REMARK VINA RESULT:      -7.5      3.527      7.501
REMARK  9 active torsions:
REMARK  status: ('A' for Active; 'I' for Inactive)
REMARK    1  A    between atoms: C_2  and  C_3 
REMARK    2  A    between atoms: C_3  and  C_4 
REMARK    3  A    between atoms: C_4  and  O_5 
REMARK    4  A    between atoms: O_5  and  C_6 
REMARK    5  A    between atoms: C_8  and  C_9 
REMARK       I    between atoms: C_9  and  N_10 
REMARK    6  A    between atoms: N_10  and  C_11 
REMARK    7  A    between atoms: N_12  and  C_13 
REMARK    8  A    between atoms: C_15  and  C_16 
REMARK    9  A    between atoms: C_25  and  O_26 
ROOT
HETATM    1  C   UNL     1      42.030 -12.862   1.806  1.00  0.00     0.179 C 
HETATM    2  N   UNL     1      41.719 -11.944   2.752  1.00  0.00    -0.333 N 
HETATM    3  S   UNL     1      41.938 -12.435   0.191  1.00  0.00    -0.040 SA
HETATM    4  H   UNL     1      41.789 -10.983   2.436  1.00  0.00     0.168 HD
ENDROOT
BRANCH   2   5
HETATM    5  C   UNL     1      41.166 -12.117   4.037  1.00  0.00     0.035 A 
HETATM    6  C   UNL     1      41.715 -11.543   5.193  1.00  0.00     0.046 A 
HETATM    7  C   UNL     1      41.129 -11.747   6.456  1.00  0.00     0.035 A 
HETATM    8  C   UNL     1      39.964 -12.533   6.520  1.00  0.00     0.078 A 
HETATM    9  C   UNL     1      39.442 -13.148   5.386  1.00  0.00     0.040 A 
HETATM   10  C   UNL     1      40.052 -12.952   4.149  1.00  0.00     0.032 A 
BRANCH   7  11
HETATM   11  C   UNL     1      41.699 -11.174   7.689  1.00  0.00     0.112 A 
HETATM   12  S   UNL     1      43.275 -11.584   8.242  1.00  0.00    -0.067 SA
HETATM   13  C   UNL     1      43.035 -10.645   9.663  1.00  0.00     0.035 A 
HETATM   14  C   UNL     1      41.769 -10.061   9.611  1.00  0.00     0.075 A 
HETATM   15  C   UNL     1      43.902 -10.442  10.750  1.00  0.00     0.021 A 
HETATM   16  N   UNL     1      41.011 -10.387   8.498  1.00  0.00    -0.239 NA
HETATM   17  C   UNL     1      41.364  -9.221  10.668  1.00  0.00     0.033 A 
HETATM   18  C   UNL     1      42.222  -9.005  11.751  1.00  0.00     0.002 A 
HETATM   19  C   UNL     1      43.473  -9.614  11.793  1.00  0.00     0.002 A 
ENDBRANCH   7  11
BRANCH   8  20
HETATM   20  O   UNL     1      39.284 -12.754   7.691  1.00  0.00    -0.360 OA
HETATM   21  H   UNL     1      39.903 -12.579   8.432  1.00  0.00     0.217 HD
ENDBRANCH   8  20
ENDBRANCH   2   5
BRANCH   1  22
HETATM   22  N   UNL     1      42.459 -14.119   2.118  1.00  0.00    -0.299 N 
HETATM   23  C   UNL     1      41.788 -15.328   1.953  1.00  0.00     0.257 C 
HETATM   24  O   UNL     1      40.619 -15.448   1.604  1.00  0.00    -0.267 OA
HETATM   25  H   UNL     1      43.178 -14.118   2.830  1.00  0.00     0.171 HD
BRANCH  23  26
HETATM   26  C   UNL     1      42.563 -16.545   2.333  1.00  0.00     0.035 A 
HETATM   27  C   UNL     1      42.611 -16.907   3.690  1.00  0.00     0.053 A 
HETATM   28  C   UNL     1      43.330 -18.033   4.089  1.00  0.00     0.069 A 
HETATM   29  C   UNL     1      44.005 -18.792   3.130  1.00  0.00     0.037 A 
HETATM   30  C   UNL     1      43.939 -18.456   1.778  1.00  0.00     0.004 A 
HETATM   31  C   UNL     1      43.211 -17.337   1.375  1.00  0.00     0.017 A 
BRANCH  28  32
HETATM   32  O   UNL     1      43.472 -18.476   5.374  1.00  0.00    -0.351 OA
BRANCH  32  33
HETATM   33  C   UNL     1      44.536 -17.905   6.138  1.00  0.00     0.175 C 
BRANCH  33  34
HETATM   34  C   UNL     1      43.902 -17.126   7.290  1.00  0.00     0.026 C 
BRANCH  34  35
HETATM   35  C   UNL     1      43.518 -15.708   6.879  1.00  0.00    -0.002 C 
HETATM   36  C   UNL     1      44.731 -14.791   6.858  1.00  0.00     0.005 C 
ENDBRANCH  34  35
ENDBRANCH  33  34
ENDBRANCH  32  33
ENDBRANCH  28  32
ENDBRANCH  23  26
ENDBRANCH   1  22
TORSDOF 9
ENDMDL
MODEL 10
REMARK VINA RESULT:      -7.5      2.253      7.093
REMARK  9 active torsions:
REMARK  status: ('A' for Active; 'I' for Inactive)
REMARK    1  A    between atoms: C_2  and  C_3 
REMARK    2  A    between atoms: C_3  and  C_4 
REMARK    3  A    between atoms: C_4  and  O_5 
REMARK    4  A    between atoms: O_5  and  C_6 
REMARK    5  A    between atoms: C_8  and  C_9 
REMARK       I    between atoms: C_9  and  N_10 
REMARK    6  A    between atoms: N_10  and  C_11 
REMARK    7  A    between atoms: N_12  and  C_13 
REMARK    8  A    between atoms: C_15  and  C_16 
REMARK    9  A    between atoms: C_25  and  O_26 
ROOT
HETATM    1  C   UNL     1      42.213 -12.954   4.640  1.00  0.00     0.179 C 
HETATM    2  N   UNL     1      43.053 -13.365   5.620  1.00  0.00    -0.333 N 
HETATM    3  S   UNL     1      41.382 -11.515   4.827  1.00  0.00    -0.040 SA
HETATM    4  H   UNL     1      43.379 -12.620   6.225  1.00  0.00     0.168 HD
ENDROOT
BRANCH   2   5
HETATM    5  C   UNL     1      43.411 -14.668   6.022  1.00  0.00     0.035 A 
HETATM    6  C   UNL     1      43.537 -15.740   5.127  1.00  0.00     0.046 A 
HETATM    7  C   UNL     1      43.893 -17.026   5.577  1.00  0.00     0.035 A 
HETATM    8  C   UNL     1      44.133 -17.197   6.952  1.00  0.00     0.078 A 
HETATM    9  C   UNL     1      43.960 -16.151   7.854  1.00  0.00     0.040 A 
HETATM   10  C   UNL     1      43.584 -14.892   7.390  1.00  0.00     0.032 A 
BRANCH   7  11
HETATM   11  C   UNL     1      44.011 -18.175   4.660  1.00  0.00     0.112 A 
HETATM   12  S   UNL     1      43.496 -18.090   3.021  1.00  0.00    -0.067 SA
HETATM   13  C   UNL     1      43.855 -19.759   2.809  1.00  0.00     0.035 A 
HETATM   14  C   UNL     1      44.367 -20.267   4.003  1.00  0.00     0.075 A 
HETATM   15  C   UNL     1      43.693 -20.564   1.669  1.00  0.00     0.021 A 
HETATM   16  N   UNL     1      44.428 -19.365   5.053  1.00  0.00    -0.239 NA
HETATM   17  C   UNL     1      44.756 -21.620   4.055  1.00  0.00     0.033 A 
HETATM   18  C   UNL     1      44.607 -22.430   2.923  1.00  0.00     0.002 A 
HETATM   19  C   UNL     1      44.076 -21.907   1.748  1.00  0.00     0.002 A 
ENDBRANCH   7  11
BRANCH   8  20
HETATM   20  O   UNL     1      44.533 -18.394   7.490  1.00  0.00    -0.360 OA
HETATM   21  H   UNL     1      44.760 -18.236   8.431  1.00  0.00     0.217 HD
ENDBRANCH   8  20
ENDBRANCH   2   5
BRANCH   1  22
HETATM   22  N   UNL     1      42.047 -13.651   3.479  1.00  0.00    -0.299 N 
HETATM   23  C   UNL     1      40.898 -14.278   3.004  1.00  0.00     0.257 C 
HETATM   24  O   UNL     1      39.854 -14.415   3.630  1.00  0.00    -0.267 OA
HETATM   25  H   UNL     1      42.918 -14.013   3.115  1.00  0.00     0.171 HD
BRANCH  23  26
HETATM   26  C   UNL     1      41.024 -14.903   1.654  1.00  0.00     0.035 A 
HETATM   27  C   UNL     1      41.279 -14.067   0.555  1.00  0.00     0.053 A 
HETATM   28  C   UNL     1      41.396 -14.609  -0.724  1.00  0.00     0.069 A 
HETATM   29  C   UNL     1      41.251 -15.987  -0.903  1.00  0.00     0.037 A 
HETATM   30  C   UNL     1      41.026 -16.827   0.188  1.00  0.00     0.004 A 
HETATM   31  C   UNL     1      40.920 -16.289   1.470  1.00  0.00     0.017 A 
BRANCH  28  32
HETATM   32  O   UNL     1      41.621 -13.904  -1.873  1.00  0.00    -0.351 OA
BRANCH  32  33
HETATM   33  C   UNL     1      41.243 -14.533  -3.100  1.00  0.00     0.175 C 
BRANCH  33  34
HETATM   34  C   UNL     1      39.924 -13.906  -3.546  1.00  0.00     0.026 C 
BRANCH  34  35
HETATM   35  C   UNL     1      38.756 -14.878  -3.420  1.00  0.00    -0.002 C 
HETATM   36  C   UNL     1      38.993 -16.139  -4.236  1.00  0.00     0.005 C 
ENDBRANCH  34  35
ENDBRANCH  33  34
ENDBRANCH  32  33
ENDBRANCH  28  32
ENDBRANCH  23  26
ENDBRANCH   1  22
TORSDOF 9
ENDMDL
