MODEL 1
REMARK VINA RESULT:     -10.0      0.000      0.000
REMARK  7 active torsions:
REMARK  status: ('A' for Active; 'I' for Inactive)
REMARK    1  A    between atoms: C_4  and  C_5 
REMARK    2  A    between atoms: C_9  and  C_10 
REMARK       I    between atoms: C_10  and  N_11 
REMARK    3  A    between atoms: N_11  and  N_12 
REMARK       I    between atoms: N_12  and  C_13 
REMARK    4  A    between atoms: C_13  and  C_14 
REMARK    5  A    between atoms: C_14  and  C_15 
REMARK    6  A    between atoms: C_15  and  C_16 
REMARK    7  A    between atoms: C_16  and  C_17 
ROOT
HETATM    1  N   UNL     1      44.138 -13.245   8.053  1.00  0.00    -0.267 N 
HETATM    2  C   UNL     1      45.395 -12.712   8.246  1.00  0.00     0.236 C 
HETATM    3  O   UNL     1      46.330 -12.918   7.477  1.00  0.00    -0.272 OA
HETATM    4  H   UNL     1      43.408 -13.228   8.765  1.00  0.00     0.190 HD
ENDROOT
BRANCH   1   5
HETATM    5  N   UNL     1      43.965 -14.144   6.995  1.00  0.00    -0.262 N 
HETATM    6  C   UNL     1      43.906 -15.495   7.262  1.00  0.00     0.288 C 
HETATM    7  O   UNL     1      43.953 -15.932   8.411  1.00  0.00    -0.264 OA
HETATM    8  H   UNL     1      44.030 -13.757   6.057  1.00  0.00     0.190 HD
BRANCH   6   9
HETATM    9  C   UNL     1      43.781 -16.347   6.113  1.00  0.00     0.121 A 
HETATM   10  N   UNL     1      43.251 -15.897   4.937  1.00  0.00    -0.272 N 
HETATM   11  N   UNL     1      43.236 -16.808   3.955  1.00  0.00    -0.174 NA
HETATM   12  H   UNL     1      42.894 -14.965   4.746  1.00  0.00     0.189 HD
HETATM   13  C   UNL     1      43.762 -17.914   4.506  1.00  0.00     0.089 A 
HETATM   14  C   UNL     1      44.114 -17.664   5.864  1.00  0.00     0.071 A 
BRANCH  13  15
HETATM   15  C   UNL     1      43.932 -19.153   3.741  1.00  0.00    -0.006 A 
HETATM   16  C   UNL     1      44.596 -20.251   4.307  1.00  0.00     0.014 A 
HETATM   17  C   UNL     1      44.748 -21.443   3.594  1.00  0.00     0.001 A 
HETATM   18  C   UNL     1      44.241 -21.551   2.301  1.00  0.00     0.000 A 
HETATM   19  C   UNL     1      43.585 -20.467   1.720  1.00  0.00     0.001 A 
HETATM   20  C   UNL     1      43.430 -19.275   2.435  1.00  0.00     0.014 A 
ENDBRANCH  13  15
ENDBRANCH   6   9
ENDBRANCH   1   5
BRANCH   2  21
HETATM   21  C   UNL     1      45.486 -11.840   9.477  1.00  0.00     0.112 C 
BRANCH  21  22
HETATM   22  C   UNL     1      44.128 -11.248   9.842  1.00  0.00     0.093 C 
BRANCH  22  23
HETATM   23  C   UNL     1      43.781 -11.507  11.295  1.00  0.00     0.160 C 
HETATM   24  O   UNL     1      43.937 -12.611  11.810  1.00  0.00    -0.292 OA
BRANCH  23  25
HETATM   25  C   UNL     1      43.233 -10.382  12.114  1.00  0.00     0.013 A 
HETATM   26  C   UNL     1      42.882 -10.639  13.447  1.00  0.00     0.054 A 
HETATM   27  C   UNL     1      42.379  -9.615  14.248  1.00  0.00     0.103 A 
HETATM   28  C   UNL     1      42.194  -8.335  13.719  1.00  0.00     0.102 A 
HETATM   29  O   UNL     1      42.076  -9.940  15.546  1.00  0.00    -0.346 OA
HETATM   30  O   UNL     1      41.676  -7.290  14.439  1.00  0.00    -0.346 OA
HETATM   31  C   UNL     1      42.552  -8.069  12.400  1.00  0.00     0.040 A 
HETATM   32  C   UNL     1      41.038  -7.747  15.638  1.00  0.00     0.202 C 
HETATM   33  C   UNL     1      41.906  -8.770  16.353  1.00  0.00     0.202 C 
HETATM   34  C   UNL     1      43.069  -9.089  11.595  1.00  0.00     0.018 A 
ENDBRANCH  23  25
ENDBRANCH  22  23
ENDBRANCH  21  22
ENDBRANCH   2  21
TORSDOF 7
ENDMDL
MODEL 2
REMARK VINA RESULT:      -9.9      1.318      1.592
REMARK  7 active torsions:
REMARK  status: ('A' for Active; 'I' for Inactive)
REMARK    1  A    between atoms: C_4  and  C_5 
REMARK    2  A    between atoms: C_9  and  C_10 
REMARK       I    between atoms: C_10  and  N_11 
REMARK    3  A    between atoms: N_11  and  N_12 
REMARK       I    between atoms: N_12  and  C_13 
REMARK    4  A    between atoms: C_13  and  C_14 
REMARK    5  A    between atoms: C_14  and  C_15 
REMARK    6  A    between atoms: C_15  and  C_16 
REMARK    7  A    between atoms: C_16  and  C_17 
ROOT
HETATM    1  N   UNL     1      44.346 -13.601   7.735  1.00  0.00    -0.267 N 
HETATM    2  C   UNL     1      45.537 -12.909   7.803  1.00  0.00     0.236 C 
HETATM    3  O   UNL     1      46.411 -13.003   6.945  1.00  0.00    -0.272 OA
HETATM    4  H   UNL     1      43.693 -13.668   8.516  1.00  0.00     0.190 HD
ENDROOT
BRANCH   1   5
HETATM    5  N   UNL     1      44.187 -14.528   6.700  1.00  0.00    -0.262 N 
HETATM    6  C   UNL     1      43.945 -15.849   7.011  1.00  0.00     0.288 C 
HETATM    7  O   UNL     1      43.818 -16.229   8.174  1.00  0.00    -0.264 OA
HETATM    8  H   UNL     1      44.397 -14.199   5.761  1.00  0.00     0.190 HD
BRANCH   6   9
HETATM    9  C   UNL     1      43.849 -16.740   5.889  1.00  0.00     0.121 A 
HETATM   10  N   UNL     1      43.430 -16.309   4.661  1.00  0.00    -0.272 N 
HETATM   11  N   UNL     1      43.428 -17.259   3.716  1.00  0.00    -0.174 NA
HETATM   12  H   UNL     1      43.145 -15.367   4.410  1.00  0.00     0.189 HD
HETATM   13  C   UNL     1      43.846 -18.369   4.345  1.00  0.00     0.089 A 
HETATM   14  C   UNL     1      44.117 -18.083   5.715  1.00  0.00     0.071 A 
BRANCH  13  15
HETATM   15  C   UNL     1      43.992 -19.648   3.642  1.00  0.00    -0.006 A 
HETATM   16  C   UNL     1      44.662 -20.720   4.250  1.00  0.00     0.014 A 
HETATM   17  C   UNL     1      44.791 -21.947   3.596  1.00  0.00     0.001 A 
HETATM   18  C   UNL     1      44.257 -22.118   2.321  1.00  0.00     0.000 A 
HETATM   19  C   UNL     1      43.595 -21.062   1.699  1.00  0.00     0.001 A 
HETATM   20  C   UNL     1      43.462 -19.833   2.355  1.00  0.00     0.014 A 
ENDBRANCH  13  15
ENDBRANCH   6   9
ENDBRANCH   1   5
BRANCH   2  21
HETATM   21  C   UNL     1      45.636 -12.016   9.018  1.00  0.00     0.112 C 
BRANCH  21  22
HETATM   22  C   UNL     1      44.269 -11.472   9.422  1.00  0.00     0.093 C 
BRANCH  22  23
HETATM   23  C   UNL     1      43.965 -11.761  10.879  1.00  0.00     0.160 C 
HETATM   24  O   UNL     1      44.355 -12.787  11.430  1.00  0.00    -0.292 OA
BRANCH  23  25
HETATM   25  C   UNL     1      43.164 -10.765  11.656  1.00  0.00     0.013 A 
HETATM   26  C   UNL     1      41.825 -10.560  11.295  1.00  0.00     0.054 A 
HETATM   27  C   UNL     1      41.040  -9.650  12.002  1.00  0.00     0.103 A 
HETATM   28  C   UNL     1      41.593  -8.916  13.055  1.00  0.00     0.102 A 
HETATM   29  O   UNL     1      39.735  -9.519  11.601  1.00  0.00    -0.346 OA
HETATM   30  O   UNL     1      40.890  -7.983  13.773  1.00  0.00    -0.346 OA
HETATM   31  C   UNL     1      42.919  -9.122  13.428  1.00  0.00     0.040 A 
HETATM   32  C   UNL     1      39.679  -7.611  13.102  1.00  0.00     0.202 C 
HETATM   33  C   UNL     1      38.950  -8.841  12.588  1.00  0.00     0.202 C 
HETATM   34  C   UNL     1      43.706 -10.043  12.729  1.00  0.00     0.018 A 
ENDBRANCH  23  25
ENDBRANCH  22  23
ENDBRANCH  21  22
ENDBRANCH   2  21
TORSDOF 7
ENDMDL
MODEL 3
REMARK VINA RESULT:      -9.8      3.074     11.381
REMARK  7 active torsions:
REMARK  status: ('A' for Active; 'I' for Inactive)
REMARK    1  A    between atoms: C_4  and  C_5 
REMARK    2  A    between atoms: C_9  and  C_10 
REMARK       I    between atoms: C_10  and  N_11 
REMARK    3  A    between atoms: N_11  and  N_12 
REMARK       I    between atoms: N_12  and  C_13 
REMARK    4  A    between atoms: C_13  and  C_14 
REMARK    5  A    between atoms: C_14  and  C_15 
REMARK    6  A    between atoms: C_15  and  C_16 
REMARK    7  A    between atoms: C_16  and  C_17 
ROOT
HETATM    1  N   UNL     1      44.511 -15.557   6.855  1.00  0.00    -0.267 N 
HETATM    2  C   UNL     1      44.250 -16.878   7.149  1.00  0.00     0.236 C 
HETATM    3  O   UNL     1      43.499 -17.221   8.059  1.00  0.00    -0.272 OA
HETATM    4  H   UNL     1      45.258 -15.261   6.227  1.00  0.00     0.190 HD
ENDROOT
BRANCH   1   5
HETATM    5  N   UNL     1      43.980 -14.581   7.705  1.00  0.00    -0.262 N 
HETATM    6  C   UNL     1      44.730 -13.462   7.997  1.00  0.00     0.288 C 
HETATM    7  O   UNL     1      45.838 -13.274   7.495  1.00  0.00    -0.264 OA
HETATM    8  H   UNL     1      43.110 -14.816   8.177  1.00  0.00     0.190 HD
BRANCH   6   9
HETATM    9  C   UNL     1      44.130 -12.539   8.919  1.00  0.00     0.121 A 
HETATM   10  N   UNL     1      43.322 -11.521   8.495  1.00  0.00    -0.272 N 
HETATM   11  N   UNL     1      42.817 -10.772   9.484  1.00  0.00    -0.174 NA
HETATM   12  H   UNL     1      43.071 -11.302   7.536  1.00  0.00     0.189 HD
HETATM   13  C   UNL     1      43.324 -11.301  10.609  1.00  0.00     0.089 A 
HETATM   14  C   UNL     1      44.157 -12.413  10.294  1.00  0.00     0.071 A 
BRANCH  13  15
HETATM   15  C   UNL     1      42.997 -10.761  11.933  1.00  0.00    -0.006 A 
HETATM   16  C   UNL     1      43.819  -9.793  12.527  1.00  0.00     0.014 A 
HETATM   17  C   UNL     1      43.508  -9.258  13.779  1.00  0.00     0.001 A 
HETATM   18  C   UNL     1      42.371  -9.690  14.458  1.00  0.00     0.000 A 
HETATM   19  C   UNL     1      41.547 -10.657  13.886  1.00  0.00     0.001 A 
HETATM   20  C   UNL     1      41.857 -11.190  12.630  1.00  0.00     0.014 A 
ENDBRANCH  13  15
ENDBRANCH   6   9
ENDBRANCH   1   5
BRANCH   2  21
HETATM   21  C   UNL     1      44.960 -17.842   6.228  1.00  0.00     0.112 C 
BRANCH  21  22
HETATM   22  C   UNL     1      44.091 -19.057   5.916  1.00  0.00     0.093 C 
BRANCH  22  23
HETATM   23  C   UNL     1      44.181 -19.443   4.454  1.00  0.00     0.160 C 
HETATM   24  O   UNL     1      44.687 -20.504   4.095  1.00  0.00    -0.292 OA
BRANCH  23  25
HETATM   25  C   UNL     1      43.640 -18.501   3.427  1.00  0.00     0.013 A 
HETATM   26  C   UNL     1      42.456 -17.808   3.717  1.00  0.00     0.054 A 
HETATM   27  C   UNL     1      41.925 -16.910   2.792  1.00  0.00     0.103 A 
HETATM   28  C   UNL     1      42.553 -16.718   1.559  1.00  0.00     0.102 A 
HETATM   29  O   UNL     1      40.775 -16.257   3.157  1.00  0.00    -0.346 OA
HETATM   30  O   UNL     1      42.071 -15.876   0.591  1.00  0.00    -0.346 OA
HETATM   31  C   UNL     1      43.736 -17.393   1.268  1.00  0.00     0.040 A 
HETATM   32  C   UNL     1      40.709 -15.511   0.847  1.00  0.00     0.202 C 
HETATM   33  C   UNL     1      40.519 -15.134   2.308  1.00  0.00     0.202 C 
HETATM   34  C   UNL     1      44.280 -18.285   2.197  1.00  0.00     0.018 A 
ENDBRANCH  23  25
ENDBRANCH  22  23
ENDBRANCH  21  22
ENDBRANCH   2  21
TORSDOF 7
ENDMDL
MODEL 4
REMARK VINA RESULT:      -9.4      2.830     12.341
REMARK  7 active torsions:
REMARK  status: ('A' for Active; 'I' for Inactive)
REMARK    1  A    between atoms: C_4  and  C_5 
REMARK    2  A    between atoms: C_9  and  C_10 
REMARK       I    between atoms: C_10  and  N_11 
REMARK    3  A    between atoms: N_11  and  N_12 
REMARK       I    between atoms: N_12  and  C_13 
REMARK    4  A    between atoms: C_13  and  C_14 
REMARK    5  A    between atoms: C_14  and  C_15 
REMARK    6  A    between atoms: C_15  and  C_16 
REMARK    7  A    between atoms: C_16  and  C_17 
ROOT
HETATM    1  N   UNL     1      44.212 -13.847   6.498  1.00  0.00    -0.267 N 
HETATM    2  C   UNL     1      43.226 -14.255   5.626  1.00  0.00     0.236 C 
HETATM    3  O   UNL     1      42.032 -14.038   5.824  1.00  0.00    -0.272 OA
HETATM    4  H   UNL     1      45.179 -14.168   6.438  1.00  0.00     0.190 HD
ENDROOT
BRANCH   1   5
HETATM    5  N   UNL     1      43.817 -13.262   7.705  1.00  0.00    -0.262 N 
HETATM    6  C   UNL     1      44.769 -12.683   8.517  1.00  0.00     0.288 C 
HETATM    7  O   UNL     1      45.953 -12.624   8.187  1.00  0.00    -0.264 OA
HETATM    8  H   UNL     1      42.853 -13.416   7.989  1.00  0.00     0.190 HD
BRANCH   6   9
HETATM    9  C   UNL     1      44.283 -12.154   9.760  1.00  0.00     0.121 A 
HETATM   10  N   UNL     1      44.123 -12.942  10.864  1.00  0.00    -0.272 N 
HETATM   11  N   UNL     1      43.691 -12.287  11.950  1.00  0.00    -0.174 NA
HETATM   12  H   UNL     1      44.308 -13.939  10.934  1.00  0.00     0.189 HD
HETATM   13  C   UNL     1      43.542 -11.015  11.547  1.00  0.00     0.089 A 
HETATM   14  C   UNL     1      43.901 -10.893  10.173  1.00  0.00     0.071 A 
BRANCH  13  15
HETATM   15  C   UNL     1      43.088  -9.962  12.461  1.00  0.00    -0.006 A 
HETATM   16  C   UNL     1      42.839 -10.254  13.810  1.00  0.00     0.014 A 
HETATM   17  C   UNL     1      42.424  -9.255  14.695  1.00  0.00     0.001 A 
HETATM   18  C   UNL     1      42.246  -7.951  14.239  1.00  0.00     0.000 A 
HETATM   19  C   UNL     1      42.481  -7.645  12.900  1.00  0.00     0.001 A 
HETATM   20  C   UNL     1      42.900  -8.644  12.015  1.00  0.00     0.014 A 
ENDBRANCH  13  15
ENDBRANCH   6   9
ENDBRANCH   1   5
BRANCH   2  21
HETATM   21  C   UNL     1      43.767 -14.966   4.408  1.00  0.00     0.112 C 
BRANCH  21  22
HETATM   22  C   UNL     1      42.917 -16.180   4.048  1.00  0.00     0.093 C 
BRANCH  22  23
HETATM   23  C   UNL     1      43.434 -16.871   2.802  1.00  0.00     0.160 C 
HETATM   24  O   UNL     1      43.664 -16.251   1.766  1.00  0.00    -0.292 OA
BRANCH  23  25
HETATM   25  C   UNL     1      43.665 -18.348   2.843  1.00  0.00     0.013 A 
HETATM   26  C   UNL     1      44.161 -18.911   4.028  1.00  0.00     0.054 A 
HETATM   27  C   UNL     1      44.378 -20.286   4.112  1.00  0.00     0.103 A 
HETATM   28  C   UNL     1      44.132 -21.105   3.008  1.00  0.00     0.102 A 
HETATM   29  O   UNL     1      44.846 -20.763   5.310  1.00  0.00    -0.346 OA
HETATM   30  O   UNL     1      44.352 -22.458   3.009  1.00  0.00    -0.346 OA
HETATM   31  C   UNL     1      43.628 -20.555   1.831  1.00  0.00     0.040 A 
HETATM   32  C   UNL     1      45.172 -22.853   4.116  1.00  0.00     0.202 C 
HETATM   33  C   UNL     1      44.703 -22.185   5.399  1.00  0.00     0.202 C 
HETATM   34  C   UNL     1      43.397 -19.178   1.746  1.00  0.00     0.018 A 
ENDBRANCH  23  25
ENDBRANCH  22  23
ENDBRANCH  21  22
ENDBRANCH   2  21
TORSDOF 7
ENDMDL
MODEL 5
REMARK VINA RESULT:      -9.3      2.130      2.402
REMARK  7 active torsions:
REMARK  status: ('A' for Active; 'I' for Inactive)
REMARK    1  A    between atoms: C_4  and  C_5 
REMARK    2  A    between atoms: C_9  and  C_10 
REMARK       I    between atoms: C_10  and  N_11 
REMARK    3  A    between atoms: N_11  and  N_12 
REMARK       I    between atoms: N_12  and  C_13 
REMARK    4  A    between atoms: C_13  and  C_14 
REMARK    5  A    between atoms: C_14  and  C_15 
REMARK    6  A    between atoms: C_15  and  C_16 
REMARK    7  A    between atoms: C_16  and  C_17 
ROOT
HETATM    1  N   UNL     1      43.962 -13.308   7.788  1.00  0.00    -0.267 N 
HETATM    2  C   UNL     1      45.217 -12.805   8.059  1.00  0.00     0.236 C 
HETATM    3  O   UNL     1      46.204 -13.079   7.380  1.00  0.00    -0.272 OA
HETATM    4  H   UNL     1      43.178 -13.231   8.436  1.00  0.00     0.190 HD
ENDROOT
BRANCH   1   5
HETATM    5  N   UNL     1      43.843 -14.253   6.765  1.00  0.00    -0.262 N 
HETATM    6  C   UNL     1      43.797 -15.593   7.087  1.00  0.00     0.288 C 
HETATM    7  O   UNL     1      43.810 -15.979   8.255  1.00  0.00    -0.264 OA
HETATM    8  H   UNL     1      43.935 -13.905   5.814  1.00  0.00     0.190 HD
BRANCH   6   9
HETATM    9  C   UNL     1      43.729 -16.495   5.972  1.00  0.00     0.121 A 
HETATM   10  N   UNL     1      43.290 -16.089   4.744  1.00  0.00    -0.272 N 
HETATM   11  N   UNL     1      43.318 -17.045   3.806  1.00  0.00    -0.174 NA
HETATM   12  H   UNL     1      42.969 -15.160   4.487  1.00  0.00     0.189 HD
HETATM   13  C   UNL     1      43.779 -18.135   4.441  1.00  0.00     0.089 A 
HETATM   14  C   UNL     1      44.045 -17.829   5.807  1.00  0.00     0.071 A 
BRANCH  13  15
HETATM   15  C   UNL     1      43.969 -19.412   3.746  1.00  0.00    -0.006 A 
HETATM   16  C   UNL     1      44.599 -20.486   4.394  1.00  0.00     0.014 A 
HETATM   17  C   UNL     1      44.769 -21.712   3.748  1.00  0.00     0.001 A 
HETATM   18  C   UNL     1      44.316 -21.881   2.442  1.00  0.00     0.000 A 
HETATM   19  C   UNL     1      43.695 -20.824   1.781  1.00  0.00     0.001 A 
HETATM   20  C   UNL     1      43.521 -19.596   2.428  1.00  0.00     0.014 A 
ENDBRANCH  13  15
ENDBRANCH   6   9
ENDBRANCH   1   5
BRANCH   2  21
HETATM   21  C   UNL     1      45.239 -11.875   9.249  1.00  0.00     0.112 C 
BRANCH  21  22
HETATM   22  C   UNL     1      44.194 -12.272  10.286  1.00  0.00     0.093 C 
BRANCH  22  23
HETATM   23  C   UNL     1      43.684 -11.066  11.050  1.00  0.00     0.160 C 
HETATM   24  O   UNL     1      44.386 -10.471  11.864  1.00  0.00    -0.292 OA
BRANCH  23  25
HETATM   25  C   UNL     1      42.285 -10.599  10.803  1.00  0.00     0.013 A 
HETATM   26  C   UNL     1      41.552 -10.090  11.885  1.00  0.00     0.054 A 
HETATM   27  C   UNL     1      40.249  -9.632  11.695  1.00  0.00     0.103 A 
HETATM   28  C   UNL     1      39.656  -9.705  10.431  1.00  0.00     0.102 A 
HETATM   29  O   UNL     1      39.604  -9.131  12.797  1.00  0.00    -0.346 OA
HETATM   30  O   UNL     1      38.371  -9.302  10.178  1.00  0.00    -0.346 OA
HETATM   31  C   UNL     1      40.381 -10.197   9.349  1.00  0.00     0.040 A 
HETATM   32  C   UNL     1      37.624  -9.144  11.391  1.00  0.00     0.202 C 
HETATM   33  C   UNL     1      38.438  -8.387  12.429  1.00  0.00     0.202 C 
HETATM   34  C   UNL     1      41.693 -10.647   9.532  1.00  0.00     0.018 A 
ENDBRANCH  23  25
ENDBRANCH  22  23
ENDBRANCH  21  22
ENDBRANCH   2  21
TORSDOF 7
ENDMDL
MODEL 6
REMARK VINA RESULT:      -9.3      2.729      3.771
REMARK  7 active torsions:
REMARK  status: ('A' for Active; 'I' for Inactive)
REMARK    1  A    between atoms: C_4  and  C_5 
REMARK    2  A    between atoms: C_9  and  C_10 
REMARK       I    between atoms: C_10  and  N_11 
REMARK    3  A    between atoms: N_11  and  N_12 
REMARK       I    between atoms: N_12  and  C_13 
REMARK    4  A    between atoms: C_13  and  C_14 
REMARK    5  A    between atoms: C_14  and  C_15 
REMARK    6  A    between atoms: C_15  and  C_16 
REMARK    7  A    between atoms: C_16  and  C_17 
ROOT
HETATM    1  N   UNL     1      43.993 -13.335   7.783  1.00  0.00    -0.267 N 
HETATM    2  C   UNL     1      45.255 -12.853   8.059  1.00  0.00     0.236 C 
HETATM    3  O   UNL     1      46.240 -13.144   7.384  1.00  0.00    -0.272 OA
HETATM    4  H   UNL     1      43.208 -13.246   8.428  1.00  0.00     0.190 HD
ENDROOT
BRANCH   1   5
HETATM    5  N   UNL     1      43.863 -14.277   6.758  1.00  0.00    -0.262 N 
HETATM    6  C   UNL     1      43.834 -15.618   7.076  1.00  0.00     0.288 C 
HETATM    7  O   UNL     1      43.872 -16.009   8.242  1.00  0.00    -0.264 OA
HETATM    8  H   UNL     1      43.934 -13.925   5.807  1.00  0.00     0.190 HD
BRANCH   6   9
HETATM    9  C   UNL     1      43.752 -16.517   5.959  1.00  0.00     0.121 A 
HETATM   10  N   UNL     1      43.303 -16.106   4.736  1.00  0.00    -0.272 N 
HETATM   11  N   UNL     1      43.319 -17.059   3.794  1.00  0.00    -0.174 NA
HETATM   12  H   UNL     1      42.983 -15.174   4.485  1.00  0.00     0.189 HD
HETATM   13  C   UNL     1      43.782 -18.152   4.422  1.00  0.00     0.089 A 
HETATM   14  C   UNL     1      44.062 -17.852   5.786  1.00  0.00     0.071 A 
BRANCH  13  15
HETATM   15  C   UNL     1      43.961 -19.428   3.721  1.00  0.00    -0.006 A 
HETATM   16  C   UNL     1      44.594 -20.505   4.359  1.00  0.00     0.014 A 
HETATM   17  C   UNL     1      44.754 -21.730   3.707  1.00  0.00     0.001 A 
HETATM   18  C   UNL     1      44.287 -21.894   2.406  1.00  0.00     0.000 A 
HETATM   19  C   UNL     1      43.662 -20.832   1.755  1.00  0.00     0.001 A 
HETATM   20  C   UNL     1      43.499 -19.606   2.407  1.00  0.00     0.014 A 
ENDBRANCH  13  15
ENDBRANCH   6   9
ENDBRANCH   1   5
BRANCH   2  21
HETATM   21  C   UNL     1      45.289 -11.925   9.250  1.00  0.00     0.112 C 
BRANCH  21  22
HETATM   22  C   UNL     1      44.281 -12.348  10.314  1.00  0.00     0.093 C 
BRANCH  22  23
HETATM   23  C   UNL     1      43.505 -11.159  10.848  1.00  0.00     0.160 C 
HETATM   24  O   UNL     1      43.908 -10.500  11.803  1.00  0.00    -0.292 OA
BRANCH  23  25
HETATM   25  C   UNL     1      42.215 -10.789  10.189  1.00  0.00     0.013 A 
HETATM   26  C   UNL     1      42.260 -10.223   8.907  1.00  0.00     0.054 A 
HETATM   27  C   UNL     1      41.079  -9.874   8.253  1.00  0.00     0.103 A 
HETATM   28  C   UNL     1      39.846 -10.062   8.883  1.00  0.00     0.102 A 
HETATM   29  O   UNL     1      41.205  -9.343   6.995  1.00  0.00    -0.346 OA
HETATM   30  O   UNL     1      38.649  -9.715   8.313  1.00  0.00    -0.346 OA
HETATM   31  C   UNL     1      39.792 -10.636  10.151  1.00  0.00     0.040 A 
HETATM   32  C   UNL     1      38.838  -8.842   7.192  1.00  0.00     0.202 C 
HETATM   33  C   UNL     1      39.956  -9.350   6.296  1.00  0.00     0.202 C 
HETATM   34  C   UNL     1      40.973 -10.998  10.806  1.00  0.00     0.018 A 
ENDBRANCH  23  25
ENDBRANCH  22  23
ENDBRANCH  21  22
ENDBRANCH   2  21
TORSDOF 7
ENDMDL
MODEL 7
REMARK VINA RESULT:      -9.2      2.779      3.358
REMARK  7 active torsions:
REMARK  status: ('A' for Active; 'I' for Inactive)
REMARK    1  A    between atoms: C_4  and  C_5 
REMARK    2  A    between atoms: C_9  and  C_10 
REMARK       I    between atoms: C_10  and  N_11 
REMARK    3  A    between atoms: N_11  and  N_12 
REMARK       I    between atoms: N_12  and  C_13 
REMARK    4  A    between atoms: C_13  and  C_14 
REMARK    5  A    between atoms: C_14  and  C_15 
REMARK    6  A    between atoms: C_15  and  C_16 
REMARK    7  A    between atoms: C_16  and  C_17 
ROOT
HETATM    1  N   UNL     1      41.509 -13.648   6.245  1.00  0.00    -0.267 N 
HETATM    2  C   UNL     1      40.209 -13.390   5.867  1.00  0.00     0.236 C 
HETATM    3  O   UNL     1      39.471 -14.251   5.393  1.00  0.00    -0.272 OA
HETATM    4  H   UNL     1      42.181 -12.914   6.473  1.00  0.00     0.190 HD
ENDROOT
BRANCH   1   5
HETATM    5  N   UNL     1      42.031 -14.916   5.971  1.00  0.00    -0.262 N 
HETATM    6  C   UNL     1      43.361 -15.167   6.230  1.00  0.00     0.288 C 
HETATM    7  O   UNL     1      44.094 -14.321   6.741  1.00  0.00    -0.264 OA
HETATM    8  H   UNL     1      41.426 -15.554   5.461  1.00  0.00     0.190 HD
BRANCH   6   9
HETATM    9  C   UNL     1      43.824 -16.477   5.869  1.00  0.00     0.121 A 
HETATM   10  N   UNL     1      44.742 -17.151   6.625  1.00  0.00    -0.272 N 
HETATM   11  N   UNL     1      45.042 -18.374   6.166  1.00  0.00    -0.174 NA
HETATM   12  H   UNL     1      45.187 -16.824   7.477  1.00  0.00     0.189 HD
HETATM   13  C   UNL     1      44.307 -18.511   5.050  1.00  0.00     0.089 A 
HETATM   14  C   UNL     1      43.531 -17.337   4.828  1.00  0.00     0.071 A 
BRANCH  13  15
HETATM   15  C   UNL     1      44.345 -19.737   4.246  1.00  0.00    -0.006 A 
HETATM   16  C   UNL     1      44.745 -20.951   4.823  1.00  0.00     0.014 A 
HETATM   17  C   UNL     1      44.767 -22.129   4.071  1.00  0.00     0.001 A 
HETATM   18  C   UNL     1      44.395 -22.106   2.730  1.00  0.00     0.000 A 
HETATM   19  C   UNL     1      44.003 -20.907   2.139  1.00  0.00     0.001 A 
HETATM   20  C   UNL     1      43.978 -19.728   2.891  1.00  0.00     0.014 A 
ENDBRANCH  13  15
ENDBRANCH   6   9
ENDBRANCH   1   5
BRANCH   2  21
HETATM   21  C   UNL     1      39.790 -11.960   6.118  1.00  0.00     0.112 C 
BRANCH  21  22
HETATM   22  C   UNL     1      40.798 -11.232   7.001  1.00  0.00     0.093 C 
BRANCH  22  23
HETATM   23  C   UNL     1      40.224 -10.940   8.374  1.00  0.00     0.160 C 
HETATM   24  O   UNL     1      39.013 -10.907   8.576  1.00  0.00    -0.292 OA
BRANCH  23  25
HETATM   25  C   UNL     1      41.167 -10.683   9.506  1.00  0.00     0.013 A 
HETATM   26  C   UNL     1      40.635 -10.544  10.797  1.00  0.00     0.054 A 
HETATM   27  C   UNL     1      41.480 -10.315  11.882  1.00  0.00     0.103 A 
HETATM   28  C   UNL     1      42.858 -10.196  11.686  1.00  0.00     0.102 A 
HETATM   29  O   UNL     1      40.887 -10.209  13.114  1.00  0.00    -0.346 OA
HETATM   30  O   UNL     1      43.744  -9.942  12.700  1.00  0.00    -0.346 OA
HETATM   31  C   UNL     1      43.396 -10.345  10.409  1.00  0.00     0.040 A 
HETATM   32  C   UNL     1      43.072  -9.474  13.876  1.00  0.00     0.202 C 
HETATM   33  C   UNL     1      41.846 -10.325  14.169  1.00  0.00     0.202 C 
HETATM   34  C   UNL     1      42.553 -10.586   9.319  1.00  0.00     0.018 A 
ENDBRANCH  23  25
ENDBRANCH  22  23
ENDBRANCH  21  22
ENDBRANCH   2  21
TORSDOF 7
ENDMDL
MODEL 8
REMARK VINA RESULT:      -9.1      7.150      9.422
REMARK  7 active torsions:
REMARK  status: ('A' for Active; 'I' for Inactive)
REMARK    1  A    between atoms: C_4  and  C_5 
REMARK    2  A    between atoms: C_9  and  C_10 
REMARK       I    between atoms: C_10  and  N_11 
REMARK    3  A    between atoms: N_11  and  N_12 
REMARK       I    between atoms: N_12  and  C_13 
REMARK    4  A    between atoms: C_13  and  C_14 
REMARK    5  A    between atoms: C_14  and  C_15 
REMARK    6  A    between atoms: C_15  and  C_16 
REMARK    7  A    between atoms: C_16  and  C_17 
ROOT
HETATM    1  N   UNL     1      40.263 -15.064  -1.287  1.00  0.00    -0.267 N 
HETATM    2  C   UNL     1      40.759 -14.033  -2.056  1.00  0.00     0.236 C 
HETATM    3  O   UNL     1      41.946 -13.942  -2.360  1.00  0.00    -0.272 OA
HETATM    4  H   UNL     1      39.325 -15.059  -0.884  1.00  0.00     0.190 HD
ENDROOT
BRANCH   1   5
HETATM    5  N   UNL     1      41.176 -15.974  -0.746  1.00  0.00    -0.262 N 
HETATM    6  C   UNL     1      41.113 -16.273   0.599  1.00  0.00     0.288 C 
HETATM    7  O   UNL     1      40.244 -15.798   1.329  1.00  0.00    -0.264 OA
HETATM    8  H   UNL     1      41.936 -16.269  -1.353  1.00  0.00     0.190 HD
BRANCH   6   9
HETATM    9  C   UNL     1      42.121 -17.175   1.079  1.00  0.00     0.121 A 
HETATM   10  N   UNL     1      43.452 -16.938   0.884  1.00  0.00    -0.272 N 
HETATM   11  N   UNL     1      44.261 -17.859   1.423  1.00  0.00    -0.174 NA
HETATM   12  H   UNL     1      43.865 -16.147   0.397  1.00  0.00     0.189 HD
HETATM   13  C   UNL     1      43.433 -18.756   1.984  1.00  0.00     0.089 A 
HETATM   14  C   UNL     1      42.079 -18.362   1.786  1.00  0.00     0.071 A 
BRANCH  13  15
HETATM   15  C   UNL     1      43.938 -19.934   2.697  1.00  0.00    -0.006 A 
HETATM   16  C   UNL     1      44.424 -19.815   4.008  1.00  0.00     0.014 A 
HETATM   17  C   UNL     1      44.890 -20.933   4.704  1.00  0.00     0.001 A 
HETATM   18  C   UNL     1      44.883 -22.186   4.095  1.00  0.00     0.000 A 
HETATM   19  C   UNL     1      44.411 -22.320   2.791  1.00  0.00     0.001 A 
HETATM   20  C   UNL     1      43.941 -21.202   2.095  1.00  0.00     0.014 A 
ENDBRANCH  13  15
ENDBRANCH   6   9
ENDBRANCH   1   5
BRANCH   2  21
HETATM   21  C   UNL     1      39.695 -13.056  -2.497  1.00  0.00     0.112 C 
BRANCH  21  22
HETATM   22  C   UNL     1      39.041 -12.368  -1.303  1.00  0.00     0.093 C 
BRANCH  22  23
HETATM   23  C   UNL     1      40.063 -11.638  -0.455  1.00  0.00     0.160 C 
HETATM   24  O   UNL     1      40.661 -10.648  -0.871  1.00  0.00    -0.292 OA
BRANCH  23  25
HETATM   25  C   UNL     1      40.347 -12.145   0.923  1.00  0.00     0.013 A 
HETATM   26  C   UNL     1      41.638 -12.612   1.207  1.00  0.00     0.054 A 
HETATM   27  C   UNL     1      41.948 -13.082   2.483  1.00  0.00     0.103 A 
HETATM   28  C   UNL     1      40.966 -13.117   3.476  1.00  0.00     0.102 A 
HETATM   29  O   UNL     1      43.237 -13.504   2.688  1.00  0.00    -0.346 OA
HETATM   30  O   UNL     1      41.191 -13.593   4.741  1.00  0.00    -0.346 OA
HETATM   31  C   UNL     1      39.684 -12.643   3.206  1.00  0.00     0.040 A 
HETATM   32  C   UNL     1      42.404 -14.353   4.806  1.00  0.00     0.202 C 
HETATM   33  C   UNL     1      43.530 -13.630   4.084  1.00  0.00     0.202 C 
HETATM   34  C   UNL     1      39.372 -12.160   1.931  1.00  0.00     0.018 A 
ENDBRANCH  23  25
ENDBRANCH  22  23
ENDBRANCH  21  22
ENDBRANCH   2  21
TORSDOF 7
ENDMDL
MODEL 9
REMARK VINA RESULT:      -8.9      3.002      3.517
REMARK  7 active torsions:
REMARK  status: ('A' for Active; 'I' for Inactive)
REMARK    1  A    between atoms: C_4  and  C_5 
REMARK    2  A    between atoms: C_9  and  C_10 
REMARK       I    between atoms: C_10  and  N_11 
REMARK    3  A    between atoms: N_11  and  N_12 
REMARK       I    between atoms: N_12  and  C_13 
REMARK    4  A    between atoms: C_13  and  C_14 
REMARK    5  A    between atoms: C_14  and  C_15 
REMARK    6  A    between atoms: C_15  and  C_16 
REMARK    7  A    between atoms: C_16  and  C_17 
ROOT
HETATM    1  N   UNL     1      41.127 -13.551   6.051  1.00  0.00    -0.267 N 
HETATM    2  C   UNL     1      40.080 -12.796   5.566  1.00  0.00     0.236 C 
HETATM    3  O   UNL     1      39.432 -13.117   4.573  1.00  0.00    -0.272 OA
HETATM    4  H   UNL     1      41.778 -13.213   6.760  1.00  0.00     0.190 HD
ENDROOT
BRANCH   1   5
HETATM    5  N   UNL     1      41.527 -14.665   5.307  1.00  0.00    -0.262 N 
HETATM    6  C   UNL     1      42.835 -15.094   5.389  1.00  0.00     0.288 C 
HETATM    7  O   UNL     1      43.650 -14.553   6.134  1.00  0.00    -0.264 OA
HETATM    8  H   UNL     1      40.857 -15.024   4.632  1.00  0.00     0.190 HD
BRANCH   6   9
HETATM    9  C   UNL     1      43.172 -16.212   4.552  1.00  0.00     0.121 A 
HETATM   10  N   UNL     1      43.503 -16.052   3.236  1.00  0.00    -0.272 N 
HETATM   11  N   UNL     1      43.821 -17.191   2.607  1.00  0.00    -0.174 NA
HETATM   12  H   UNL     1      43.540 -15.179   2.718  1.00  0.00     0.189 HD
HETATM   13  C   UNL     1      43.680 -18.149   3.538  1.00  0.00     0.089 A 
HETATM   14  C   UNL     1      43.269 -17.572   4.774  1.00  0.00     0.071 A 
BRANCH  13  15
HETATM   15  C   UNL     1      43.950 -19.559   3.243  1.00  0.00    -0.006 A 
HETATM   16  C   UNL     1      44.556 -20.381   4.205  1.00  0.00     0.014 A 
HETATM   17  C   UNL     1      44.802 -21.731   3.941  1.00  0.00     0.001 A 
HETATM   18  C   UNL     1      44.450 -22.277   2.709  1.00  0.00     0.000 A 
HETATM   19  C   UNL     1      43.853 -21.473   1.740  1.00  0.00     0.001 A 
HETATM   20  C   UNL     1      43.604 -20.122   2.004  1.00  0.00     0.014 A 
ENDBRANCH  13  15
ENDBRANCH   6   9
ENDBRANCH   1   5
BRANCH   2  21
HETATM   21  C   UNL     1      39.805 -11.562   6.394  1.00  0.00     0.112 C 
BRANCH  21  22
HETATM   22  C   UNL     1      39.415 -11.925   7.823  1.00  0.00     0.093 C 
BRANCH  22  23
HETATM   23  C   UNL     1      39.425 -10.709   8.728  1.00  0.00     0.160 C 
HETATM   24  O   UNL     1      38.520  -9.878   8.705  1.00  0.00    -0.292 OA
BRANCH  23  25
HETATM   25  C   UNL     1      40.573 -10.522   9.667  1.00  0.00     0.013 A 
HETATM   26  C   UNL     1      40.301 -10.420  11.039  1.00  0.00     0.054 A 
HETATM   27  C   UNL     1      41.344 -10.257  11.950  1.00  0.00     0.103 A 
HETATM   28  C   UNL     1      42.663 -10.167  11.499  1.00  0.00     0.102 A 
HETATM   29  O   UNL     1      40.999 -10.184  13.276  1.00  0.00    -0.346 OA
HETATM   30  O   UNL     1      43.733  -9.976  12.334  1.00  0.00    -0.346 OA
HETATM   31  C   UNL     1      42.943 -10.280  10.139  1.00  0.00     0.040 A 
HETATM   32  C   UNL     1      43.312  -9.538  13.632  1.00  0.00     0.202 C 
HETATM   33  C   UNL     1      42.137 -10.367  14.124  1.00  0.00     0.202 C 
HETATM   34  C   UNL     1      41.901 -10.455   9.222  1.00  0.00     0.018 A 
ENDBRANCH  23  25
ENDBRANCH  22  23
ENDBRANCH  21  22
ENDBRANCH   2  21
TORSDOF 7
ENDMDL
MODEL 10
REMARK VINA RESULT:      -8.9      3.928     12.298
REMARK  7 active torsions:
REMARK  status: ('A' for Active; 'I' for Inactive)
REMARK    1  A    between atoms: C_4  and  C_5 
REMARK    2  A    between atoms: C_9  and  C_10 
REMARK       I    between atoms: C_10  and  N_11 
REMARK    3  A    between atoms: N_11  and  N_12 
REMARK       I    between atoms: N_12  and  C_13 
REMARK    4  A    between atoms: C_13  and  C_14 
REMARK    5  A    between atoms: C_14  and  C_15 
REMARK    6  A    between atoms: C_15  and  C_16 
REMARK    7  A    between atoms: C_16  and  C_17 
ROOT
HETATM    1  N   UNL     1      39.447 -13.556   6.096  1.00  0.00    -0.267 N 
HETATM    2  C   UNL     1      40.565 -13.941   5.387  1.00  0.00     0.236 C 
HETATM    3  O   UNL     1      41.704 -13.845   5.837  1.00  0.00    -0.272 OA
HETATM    4  H   UNL     1      38.522 -13.466   5.675  1.00  0.00     0.190 HD
ENDROOT
BRANCH   1   5
HETATM    5  N   UNL     1      39.641 -12.930   7.331  1.00  0.00    -0.262 N 
HETATM    6  C   UNL     1      39.511 -11.560   7.420  1.00  0.00     0.288 C 
HETATM    7  O   UNL     1      39.183 -10.876   6.452  1.00  0.00    -0.264 OA
HETATM    8  H   UNL     1      40.006 -13.511   8.082  1.00  0.00     0.190 HD
BRANCH   6   9
HETATM    9  C   UNL     1      39.779 -10.997   8.713  1.00  0.00     0.121 A 
HETATM   10  N   UNL     1      38.778 -10.529   9.517  1.00  0.00    -0.272 N 
HETATM   11  N   UNL     1      39.195 -10.066  10.703  1.00  0.00    -0.174 NA
HETATM   12  H   UNL     1      37.784 -10.516   9.307  1.00  0.00     0.189 HD
HETATM   13  C   UNL     1      40.529 -10.216  10.680  1.00  0.00     0.089 A 
HETATM   14  C   UNL     1      40.935 -10.795   9.443  1.00  0.00     0.071 A 
BRANCH  13  15
HETATM   15  C   UNL     1      41.370  -9.830  11.817  1.00  0.00    -0.006 A 
HETATM   16  C   UNL     1      40.815  -9.152  12.913  1.00  0.00     0.014 A 
HETATM   17  C   UNL     1      41.603  -8.796  14.010  1.00  0.00     0.001 A 
HETATM   18  C   UNL     1      42.960  -9.107  14.024  1.00  0.00     0.000 A 
HETATM   19  C   UNL     1      43.530  -9.773  12.941  1.00  0.00     0.001 A 
HETATM   20  C   UNL     1      42.741 -10.133  11.843  1.00  0.00     0.014 A 
ENDBRANCH  13  15
ENDBRANCH   6   9
ENDBRANCH   1   5
BRANCH   2  21
HETATM   21  C   UNL     1      40.237 -14.508   4.025  1.00  0.00     0.112 C 
BRANCH  21  22
HETATM   22  C   UNL     1      40.659 -15.970   3.915  1.00  0.00     0.093 C 
BRANCH  22  23
HETATM   23  C   UNL     1      42.014 -16.108   3.248  1.00  0.00     0.160 C 
HETATM   24  O   UNL     1      42.475 -15.224   2.530  1.00  0.00    -0.292 OA
BRANCH  23  25
HETATM   25  C   UNL     1      42.801 -17.359   3.474  1.00  0.00     0.013 A 
HETATM   26  C   UNL     1      42.664 -18.408   2.553  1.00  0.00     0.054 A 
HETATM   27  C   UNL     1      43.389 -19.587   2.720  1.00  0.00     0.103 A 
HETATM   28  C   UNL     1      44.235 -19.740   3.822  1.00  0.00     0.102 A 
HETATM   29  O   UNL     1      43.215 -20.558   1.768  1.00  0.00    -0.346 OA
HETATM   30  O   UNL     1      44.954 -20.882   4.066  1.00  0.00    -0.346 OA
HETATM   31  C   UNL     1      44.387 -18.699   4.734  1.00  0.00     0.040 A 
HETATM   32  C   UNL     1      44.472 -21.981   3.282  1.00  0.00     0.202 C 
HETATM   33  C   UNL     1      44.241 -21.554   1.842  1.00  0.00     0.202 C 
HETATM   34  C   UNL     1      43.670 -17.510   4.564  1.00  0.00     0.018 A 
ENDBRANCH  23  25
ENDBRANCH  22  23
ENDBRANCH  21  22
ENDBRANCH   2  21
TORSDOF 7
ENDMDL
