MODEL 1
REMARK VINA RESULT:      -8.2      0.000      0.000
REMARK  9 active torsions:
REMARK  status: ('A' for Active; 'I' for Inactive)
REMARK    1  A    between atoms: C_2  and  C_3 
REMARK    2  A    between atoms: C_3  and  C_4 
REMARK    3  A    between atoms: C_4  and  N_5 
REMARK       I    between atoms: N_5  and  C_6 
REMARK    4  A    between atoms: C_6  and  C_7 
REMARK    5  A    between atoms: C_14  and  S_15 
REMARK    6  A    between atoms: S_15  and  N_16 
REMARK    7  A    between atoms: N_16  and  C_17 
REMARK    8  A    between atoms: C_20  and  O_21 
REMARK    9  A    between atoms: O_21  and  C_22 
ROOT
HETATM    1  C   UNL     1      43.918 -18.794   6.186  1.00  0.00     0.098 A 
HETATM    2  C   UNL     1      43.234 -17.996   5.128  1.00  0.00     0.201 A 
HETATM    3  O   UNL     1      42.713 -18.530   4.152  1.00  0.00    -0.286 OA
HETATM    4  C   UNL     1      43.201 -16.516   5.278  1.00  0.00     0.043 A 
HETATM    5  C   UNL     1      43.806 -15.935   6.408  1.00  0.00     0.046 A 
HETATM    6  N   UNL     1      44.448 -16.748   7.348  1.00  0.00    -0.364 N 
HETATM    7  C   UNL     1      42.590 -15.723   4.303  1.00  0.00     0.043 A 
HETATM    8  C   UNL     1      42.630 -14.334   4.437  1.00  0.00     0.081 A 
HETATM    9  C   UNL     1      43.228 -13.741   5.556  1.00  0.00     0.027 A 
HETATM   10  C   UNL     1      43.817 -14.544   6.536  1.00  0.00     0.032 A 
HETATM   11  C   UNL     1      44.456 -18.112   7.211  1.00  0.00     0.109 A 
HETATM   12  H   UNL     1      44.757 -16.349   8.229  1.00  0.00     0.165 HD
ENDROOT
BRANCH   8  13
HETATM   13  S   UNL     1      41.887 -13.302   3.189  1.00  0.00     0.263 S 
HETATM   14  O   UNL     1      41.239 -12.196   3.859  1.00  0.00    -0.200 OA
HETATM   15  O   UNL     1      42.887 -13.078   2.166  1.00  0.00    -0.200 OA
BRANCH  13  16
HETATM   16  N   UNL     1      40.732 -14.319   2.493  1.00  0.00    -0.281 N 
HETATM   17  H   UNL     1      39.808 -14.200   2.903  1.00  0.00     0.179 HD
BRANCH  16  18
HETATM   18  C   UNL     1      40.819 -14.633   1.110  1.00  0.00     0.042 A 
HETATM   19  C   UNL     1      40.298 -13.765   0.155  1.00  0.00     0.033 A 
HETATM   20  C   UNL     1      40.344 -14.113  -1.196  1.00  0.00     0.039 A 
HETATM   21  C   UNL     1      40.898 -15.330  -1.601  1.00  0.00     0.068 A 
HETATM   22  C   UNL     1      41.421 -16.196  -0.640  1.00  0.00     0.039 A 
HETATM   23  C   UNL     1      41.383 -15.846   0.716  1.00  0.00     0.033 A 
BRANCH  21  24
HETATM   24  O   UNL     1      40.873 -15.543  -2.950  1.00  0.00    -0.352 OA
BRANCH  24  25
HETATM   25  C   UNL     1      39.751 -15.035  -3.671  1.00  0.00     0.171 C 
HETATM   26  C   UNL     1      38.940 -16.218  -4.166  1.00  0.00     0.034 C 
ENDBRANCH  24  25
ENDBRANCH  21  24
ENDBRANCH  16  18
ENDBRANCH  13  16
ENDBRANCH   8  13
BRANCH   1  27
HETATM   27  C   UNL     1      44.047 -20.280   6.178  1.00  0.00     0.257 C 
HETATM   28  N   UNL     1      44.809 -20.795   5.162  1.00  0.00    -0.357 N 
HETATM   29  H   UNL     1      45.181 -20.152   4.460  1.00  0.00     0.162 HD
HETATM   30  O   UNL     1      43.507 -20.977   7.033  1.00  0.00    -0.267 OA
BRANCH  28  31
HETATM   31  C   UNL     1      44.999 -22.215   4.966  1.00  0.00     0.123 C 
BRANCH  31  32
HETATM   32  C   UNL     1      44.629 -22.669   3.554  1.00  0.00     0.019 C 
BRANCH  32  33
HETATM   33  C   UNL     1      44.341 -21.495   2.617  1.00  0.00    -0.003 C 
HETATM   34  C   UNL     1      43.968 -21.976   1.224  1.00  0.00     0.005 C 
ENDBRANCH  32  33
ENDBRANCH  31  32
ENDBRANCH  28  31
ENDBRANCH   1  27
TORSDOF 9
ENDMDL
MODEL 2
REMARK VINA RESULT:      -8.2      3.443      5.711
REMARK  9 active torsions:
REMARK  status: ('A' for Active; 'I' for Inactive)
REMARK    1  A    between atoms: C_2  and  C_3 
REMARK    2  A    between atoms: C_3  and  C_4 
REMARK    3  A    between atoms: C_4  and  N_5 
REMARK       I    between atoms: N_5  and  C_6 
REMARK    4  A    between atoms: C_6  and  C_7 
REMARK    5  A    between atoms: C_14  and  S_15 
REMARK    6  A    between atoms: S_15  and  N_16 
REMARK    7  A    between atoms: N_16  and  C_17 
REMARK    8  A    between atoms: C_20  and  O_21 
REMARK    9  A    between atoms: O_21  and  C_22 
ROOT
HETATM    1  C   UNL     1      41.516 -16.879   3.076  1.00  0.00     0.098 A 
HETATM    2  C   UNL     1      41.740 -16.813   1.603  1.00  0.00     0.201 A 
HETATM    3  O   UNL     1      42.547 -17.549   1.039  1.00  0.00    -0.286 OA
HETATM    4  C   UNL     1      40.961 -15.818   0.819  1.00  0.00     0.043 A 
HETATM    5  C   UNL     1      40.044 -14.990   1.494  1.00  0.00     0.046 A 
HETATM    6  N   UNL     1      39.903 -15.096   2.882  1.00  0.00    -0.364 N 
HETATM    7  C   UNL     1      41.151 -15.703  -0.561  1.00  0.00     0.043 A 
HETATM    8  C   UNL     1      40.454 -14.716  -1.261  1.00  0.00     0.081 A 
HETATM    9  C   UNL     1      39.537 -13.886  -0.604  1.00  0.00     0.027 A 
HETATM   10  C   UNL     1      39.338 -14.023   0.773  1.00  0.00     0.032 A 
HETATM   11  C   UNL     1      40.611 -16.030   3.592  1.00  0.00     0.109 A 
HETATM   12  H   UNL     1      39.146 -14.606   3.348  1.00  0.00     0.165 HD
ENDROOT
BRANCH   8  13
HETATM   13  S   UNL     1      40.705 -14.530  -3.015  1.00  0.00     0.263 S 
HETATM   14  O   UNL     1      40.610 -15.841  -3.617  1.00  0.00    -0.200 OA
HETATM   15  O   UNL     1      39.861 -13.439  -3.455  1.00  0.00    -0.200 OA
BRANCH  13  16
HETATM   16  N   UNL     1      42.291 -13.957  -3.113  1.00  0.00    -0.281 N 
HETATM   17  H   UNL     1      42.830 -14.421  -3.841  1.00  0.00     0.179 HD
BRANCH  16  18
HETATM   18  C   UNL     1      42.556 -12.586  -2.850  1.00  0.00     0.042 A 
HETATM   19  C   UNL     1      42.915 -12.168  -1.572  1.00  0.00     0.033 A 
HETATM   20  C   UNL     1      43.120 -10.811  -1.317  1.00  0.00     0.039 A 
HETATM   21  C   UNL     1      42.959  -9.863  -2.331  1.00  0.00     0.068 A 
HETATM   22  C   UNL     1      42.601 -10.287  -3.612  1.00  0.00     0.039 A 
HETATM   23  C   UNL     1      42.402 -11.649  -3.872  1.00  0.00     0.033 A 
BRANCH  21  24
HETATM   24  O   UNL     1      43.186  -8.574  -1.942  1.00  0.00    -0.352 OA
BRANCH  24  25
HETATM   25  C   UNL     1      42.866  -8.232  -0.595  1.00  0.00     0.171 C 
HETATM   26  C   UNL     1      44.039  -7.459  -0.019  1.00  0.00     0.034 C 
ENDBRANCH  24  25
ENDBRANCH  21  24
ENDBRANCH  16  18
ENDBRANCH  13  16
ENDBRANCH   8  13
BRANCH   1  27
HETATM   27  C   UNL     1      42.222 -17.811   4.001  1.00  0.00     0.257 C 
HETATM   28  N   UNL     1      43.476 -18.192   3.600  1.00  0.00    -0.357 N 
HETATM   29  H   UNL     1      43.814 -17.871   2.691  1.00  0.00     0.162 HD
HETATM   30  O   UNL     1      41.706 -18.194   5.047  1.00  0.00    -0.267 OA
BRANCH  28  31
HETATM   31  C   UNL     1      44.285 -19.133   4.344  1.00  0.00     0.123 C 
BRANCH  31  32
HETATM   32  C   UNL     1      44.783 -20.293   3.482  1.00  0.00     0.019 C 
BRANCH  32  33
HETATM   33  C   UNL     1      43.837 -20.609   2.321  1.00  0.00    -0.003 C 
HETATM   34  C   UNL     1      44.197 -21.927   1.656  1.00  0.00     0.005 C 
ENDBRANCH  32  33
ENDBRANCH  31  32
ENDBRANCH  28  31
ENDBRANCH   1  27
TORSDOF 9
ENDMDL
MODEL 3
REMARK VINA RESULT:      -7.9      4.467      8.602
REMARK  9 active torsions:
REMARK  status: ('A' for Active; 'I' for Inactive)
REMARK    1  A    between atoms: C_2  and  C_3 
REMARK    2  A    between atoms: C_3  and  C_4 
REMARK    3  A    between atoms: C_4  and  N_5 
REMARK       I    between atoms: N_5  and  C_6 
REMARK    4  A    between atoms: C_6  and  C_7 
REMARK    5  A    between atoms: C_14  and  S_15 
REMARK    6  A    between atoms: S_15  and  N_16 
REMARK    7  A    between atoms: N_16  and  C_17 
REMARK    8  A    between atoms: C_20  and  O_21 
REMARK    9  A    between atoms: O_21  and  C_22 
ROOT
HETATM    1  C   UNL     1      40.534 -10.957   8.523  1.00  0.00     0.098 A 
HETATM    2  C   UNL     1      41.471 -11.156   7.381  1.00  0.00     0.201 A 
HETATM    3  O   UNL     1      42.524 -10.528   7.293  1.00  0.00    -0.286 OA
HETATM    4  C   UNL     1      41.097 -12.141   6.330  1.00  0.00     0.043 A 
HETATM    5  C   UNL     1      39.885 -12.845   6.461  1.00  0.00     0.046 A 
HETATM    6  N   UNL     1      39.046 -12.588   7.551  1.00  0.00    -0.364 N 
HETATM    7  C   UNL     1      41.933 -12.348   5.229  1.00  0.00     0.043 A 
HETATM    8  C   UNL     1      41.525 -13.230   4.226  1.00  0.00     0.081 A 
HETATM    9  C   UNL     1      40.323 -13.938   4.343  1.00  0.00     0.027 A 
HETATM   10  C   UNL     1      39.505 -13.740   5.458  1.00  0.00     0.032 A 
HETATM   11  C   UNL     1      39.410 -11.694   8.524  1.00  0.00     0.109 A 
HETATM   12  H   UNL     1      38.248 -13.192   7.723  1.00  0.00     0.165 HD
ENDROOT
BRANCH   8  13
HETATM   13  S   UNL     1      42.559 -13.485   2.798  1.00  0.00     0.263 S 
HETATM   14  O   UNL     1      42.401 -12.340   1.928  1.00  0.00    -0.200 OA
HETATM   15  O   UNL     1      43.863 -13.887   3.279  1.00  0.00    -0.200 OA
BRANCH  13  16
HETATM   16  N   UNL     1      41.885 -14.858   2.081  1.00  0.00    -0.281 N 
HETATM   17  H   UNL     1      41.483 -14.664   1.166  1.00  0.00     0.179 HD
BRANCH  16  18
HETATM   18  C   UNL     1      42.490 -16.126   2.295  1.00  0.00     0.042 A 
HETATM   19  C   UNL     1      43.291 -16.701   1.314  1.00  0.00     0.033 A 
HETATM   20  C   UNL     1      43.835 -17.970   1.518  1.00  0.00     0.039 A 
HETATM   21  C   UNL     1      43.572 -18.678   2.694  1.00  0.00     0.068 A 
HETATM   22  C   UNL     1      42.769 -18.096   3.676  1.00  0.00     0.039 A 
HETATM   23  C   UNL     1      42.229 -16.819   3.477  1.00  0.00     0.033 A 
BRANCH  21  24
HETATM   24  O   UNL     1      44.162 -19.908   2.759  1.00  0.00    -0.352 OA
BRANCH  24  25
HETATM   25  C   UNL     1      43.673 -20.914   1.874  1.00  0.00     0.171 C 
HETATM   26  C   UNL     1      44.600 -22.112   1.971  1.00  0.00     0.034 C 
ENDBRANCH  24  25
ENDBRANCH  21  24
ENDBRANCH  16  18
ENDBRANCH  13  16
ENDBRANCH   8  13
BRANCH   1  27
HETATM   27  C   UNL     1      40.757 -10.004   9.648  1.00  0.00     0.257 C 
HETATM   28  N   UNL     1      42.025 -10.000  10.167  1.00  0.00    -0.357 N 
HETATM   29  H   UNL     1      42.701 -10.673   9.801  1.00  0.00     0.162 HD
HETATM   30  O   UNL     1      39.859  -9.276  10.063  1.00  0.00    -0.267 OA
BRANCH  28  31
HETATM   31  C   UNL     1      42.408  -9.180  11.295  1.00  0.00     0.123 C 
BRANCH  31  32
HETATM   32  C   UNL     1      43.351  -9.905  12.257  1.00  0.00     0.019 C 
BRANCH  32  33
HETATM   33  C   UNL     1      43.338  -9.297  13.661  1.00  0.00    -0.003 C 
HETATM   34  C   UNL     1      42.420 -10.071  14.591  1.00  0.00     0.005 C 
ENDBRANCH  32  33
ENDBRANCH  31  32
ENDBRANCH  28  31
ENDBRANCH   1  27
TORSDOF 9
ENDMDL
MODEL 4
REMARK VINA RESULT:      -7.7      1.673      2.142
REMARK  9 active torsions:
REMARK  status: ('A' for Active; 'I' for Inactive)
REMARK    1  A    between atoms: C_2  and  C_3 
REMARK    2  A    between atoms: C_3  and  C_4 
REMARK    3  A    between atoms: C_4  and  N_5 
REMARK       I    between atoms: N_5  and  C_6 
REMARK    4  A    between atoms: C_6  and  C_7 
REMARK    5  A    between atoms: C_14  and  S_15 
REMARK    6  A    between atoms: S_15  and  N_16 
REMARK    7  A    between atoms: N_16  and  C_17 
REMARK    8  A    between atoms: C_20  and  O_21 
REMARK    9  A    between atoms: O_21  and  C_22 
ROOT
HETATM    1  C   UNL     1      43.547 -17.363   5.629  1.00  0.00     0.098 A 
HETATM    2  C   UNL     1      43.224 -16.661   4.354  1.00  0.00     0.201 A 
HETATM    3  O   UNL     1      43.731 -16.997   3.286  1.00  0.00    -0.286 OA
HETATM    4  C   UNL     1      42.265 -15.525   4.402  1.00  0.00     0.043 A 
HETATM    5  C   UNL     1      41.700 -15.166   5.641  1.00  0.00     0.046 A 
HETATM    6  N   UNL     1      42.069 -15.859   6.799  1.00  0.00    -0.364 N 
HETATM    7  C   UNL     1      41.946 -14.821   3.237  1.00  0.00     0.043 A 
HETATM    8  C   UNL     1      41.094 -13.719   3.324  1.00  0.00     0.081 A 
HETATM    9  C   UNL     1      40.523 -13.350   4.548  1.00  0.00     0.027 A 
HETATM   10  C   UNL     1      40.832 -14.073   5.704  1.00  0.00     0.032 A 
HETATM   11  C   UNL     1      42.937 -16.917   6.740  1.00  0.00     0.109 A 
HETATM   12  H   UNL     1      41.559 -15.698   7.663  1.00  0.00     0.165 HD
ENDROOT
BRANCH   8  13
HETATM   13  S   UNL     1      40.699 -12.788   1.856  1.00  0.00     0.263 S 
HETATM   14  O   UNL     1      39.364 -13.158   1.443  1.00  0.00    -0.200 OA
HETATM   15  O   UNL     1      41.048 -11.407   2.119  1.00  0.00    -0.200 OA
BRANCH  13  16
HETATM   16  N   UNL     1      41.832 -13.346   0.735  1.00  0.00    -0.281 N 
HETATM   17  H   UNL     1      42.637 -13.785   1.178  1.00  0.00     0.179 HD
BRANCH  16  18
HETATM   18  C   UNL     1      41.387 -13.862  -0.511  1.00  0.00     0.042 A 
HETATM   19  C   UNL     1      41.175 -15.228  -0.676  1.00  0.00     0.033 A 
HETATM   20  C   UNL     1      40.789 -15.725  -1.922  1.00  0.00     0.039 A 
HETATM   21  C   UNL     1      40.622 -14.866  -3.012  1.00  0.00     0.068 A 
HETATM   22  C   UNL     1      40.834 -13.498  -2.841  1.00  0.00     0.039 A 
HETATM   23  C   UNL     1      41.214 -12.995  -1.591  1.00  0.00     0.033 A 
BRANCH  21  24
HETATM   24  O   UNL     1      40.249 -15.487  -4.170  1.00  0.00    -0.352 OA
BRANCH  24  25
HETATM   25  C   UNL     1      39.039 -16.243  -4.145  1.00  0.00     0.171 C 
HETATM   26  C   UNL     1      37.878 -15.265  -4.128  1.00  0.00     0.034 C 
ENDBRANCH  24  25
ENDBRANCH  21  24
ENDBRANCH  16  18
ENDBRANCH  13  16
ENDBRANCH   8  13
BRANCH   1  27
HETATM   27  C   UNL     1      44.492 -18.510   5.750  1.00  0.00     0.257 C 
HETATM   28  N   UNL     1      44.142 -19.632   5.046  1.00  0.00    -0.357 N 
HETATM   29  H   UNL     1      43.251 -19.633   4.546  1.00  0.00     0.162 HD
HETATM   30  O   UNL     1      45.511 -18.434   6.431  1.00  0.00    -0.267 OA
BRANCH  28  31
HETATM   31  C   UNL     1      44.911 -20.857   5.089  1.00  0.00     0.123 C 
BRANCH  31  32
HETATM   32  C   UNL     1      44.744 -21.701   3.826  1.00  0.00     0.019 C 
BRANCH  32  33
HETATM   33  C   UNL     1      44.364 -20.861   2.605  1.00  0.00    -0.003 C 
HETATM   34  C   UNL     1      43.679 -21.705   1.543  1.00  0.00     0.005 C 
ENDBRANCH  32  33
ENDBRANCH  31  32
ENDBRANCH  28  31
ENDBRANCH   1  27
TORSDOF 9
ENDMDL
MODEL 5
REMARK VINA RESULT:      -7.6      2.841      4.860
REMARK  9 active torsions:
REMARK  status: ('A' for Active; 'I' for Inactive)
REMARK    1  A    between atoms: C_2  and  C_3 
REMARK    2  A    between atoms: C_3  and  C_4 
REMARK    3  A    between atoms: C_4  and  N_5 
REMARK       I    between atoms: N_5  and  C_6 
REMARK    4  A    between atoms: C_6  and  C_7 
REMARK    5  A    between atoms: C_14  and  S_15 
REMARK    6  A    between atoms: S_15  and  N_16 
REMARK    7  A    between atoms: N_16  and  C_17 
REMARK    8  A    between atoms: C_20  and  O_21 
REMARK    9  A    between atoms: O_21  and  C_22 
ROOT
HETATM    1  C   UNL     1      43.893 -18.290   5.740  1.00  0.00     0.098 A 
HETATM    2  C   UNL     1      43.256 -17.734   4.512  1.00  0.00     0.201 A 
HETATM    3  O   UNL     1      42.815 -18.464   3.627  1.00  0.00    -0.286 OA
HETATM    4  C   UNL     1      43.171 -16.255   4.374  1.00  0.00     0.043 A 
HETATM    5  C   UNL     1      43.685 -15.447   5.405  1.00  0.00     0.046 A 
HETATM    6  N   UNL     1      44.288 -16.042   6.519  1.00  0.00    -0.364 N 
HETATM    7  C   UNL     1      42.603 -15.686   3.230  1.00  0.00     0.043 A 
HETATM    8  C   UNL     1      42.596 -14.296   3.099  1.00  0.00     0.081 A 
HETATM    9  C   UNL     1      43.102 -13.479   4.117  1.00  0.00     0.027 A 
HETATM   10  C   UNL     1      43.648 -14.057   5.265  1.00  0.00     0.032 A 
HETATM   11  C   UNL     1      44.342 -17.405   6.646  1.00  0.00     0.109 A 
HETATM   12  H   UNL     1      44.527 -15.471   7.324  1.00  0.00     0.165 HD
ENDROOT
BRANCH   8  13
HETATM   13  S   UNL     1      41.906 -13.549   1.635  1.00  0.00     0.263 S 
HETATM   14  O   UNL     1      42.532 -12.258   1.461  1.00  0.00    -0.200 OA
HETATM   15  O   UNL     1      41.940 -14.548   0.588  1.00  0.00    -0.200 OA
BRANCH  13  16
HETATM   16  N   UNL     1      40.277 -13.357   2.039  1.00  0.00    -0.281 N 
HETATM   17  H   UNL     1      39.708 -14.152   1.758  1.00  0.00     0.179 HD
BRANCH  16  18
HETATM   18  C   UNL     1      39.929 -12.669   3.232  1.00  0.00     0.042 A 
HETATM   19  C   UNL     1      40.019 -11.282   3.301  1.00  0.00     0.033 A 
HETATM   20  C   UNL     1      39.725 -10.626   4.497  1.00  0.00     0.039 A 
HETATM   21  C   UNL     1      39.351 -11.348   5.633  1.00  0.00     0.068 A 
HETATM   22  C   UNL     1      39.260 -12.738   5.560  1.00  0.00     0.039 A 
HETATM   23  C   UNL     1      39.547 -13.399   4.359  1.00  0.00     0.033 A 
BRANCH  21  24
HETATM   24  O   UNL     1      39.097 -10.580   6.735  1.00  0.00    -0.352 OA
BRANCH  24  25
HETATM   25  C   UNL     1      39.799 -10.905   7.933  1.00  0.00     0.171 C 
HETATM   26  C   UNL     1      38.950 -10.455   9.108  1.00  0.00     0.034 C 
ENDBRANCH  24  25
ENDBRANCH  21  24
ENDBRANCH  16  18
ENDBRANCH  13  16
ENDBRANCH   8  13
BRANCH   1  27
HETATM   27  C   UNL     1      44.063 -19.744   6.024  1.00  0.00     0.257 C 
HETATM   28  N   UNL     1      44.684 -20.463   5.036  1.00  0.00    -0.357 N 
HETATM   29  H   UNL     1      44.929 -19.983   4.168  1.00  0.00     0.162 HD
HETATM   30  O   UNL     1      43.675 -20.244   7.076  1.00  0.00    -0.267 OA
BRANCH  28  31
HETATM   31  C   UNL     1      44.885 -21.893   5.115  1.00  0.00     0.123 C 
BRANCH  31  32
HETATM   32  C   UNL     1      44.613 -22.600   3.787  1.00  0.00     0.019 C 
BRANCH  32  33
HETATM   33  C   UNL     1      44.668 -21.647   2.592  1.00  0.00    -0.003 C 
HETATM   34  C   UNL     1      43.502 -21.877   1.646  1.00  0.00     0.005 C 
ENDBRANCH  32  33
ENDBRANCH  31  32
ENDBRANCH  28  31
ENDBRANCH   1  27
TORSDOF 9
ENDMDL
MODEL 6
REMARK VINA RESULT:      -7.6      3.478      6.649
REMARK  9 active torsions:
REMARK  status: ('A' for Active; 'I' for Inactive)
REMARK    1  A    between atoms: C_2  and  C_3 
REMARK    2  A    between atoms: C_3  and  C_4 
REMARK    3  A    between atoms: C_4  and  N_5 
REMARK       I    between atoms: N_5  and  C_6 
REMARK    4  A    between atoms: C_6  and  C_7 
REMARK    5  A    between atoms: C_14  and  S_15 
REMARK    6  A    between atoms: S_15  and  N_16 
REMARK    7  A    between atoms: N_16  and  C_17 
REMARK    8  A    between atoms: C_20  and  O_21 
REMARK    9  A    between atoms: O_21  and  C_22 
ROOT
HETATM    1  C   UNL     1      44.312 -14.605   6.769  1.00  0.00     0.098 A 
HETATM    2  C   UNL     1      43.629 -14.408   5.458  1.00  0.00     0.201 A 
HETATM    3  O   UNL     1      43.553 -13.300   4.930  1.00  0.00    -0.286 OA
HETATM    4  C   UNL     1      43.027 -15.596   4.795  1.00  0.00     0.043 A 
HETATM    5  C   UNL     1      43.133 -16.850   5.425  1.00  0.00     0.046 A 
HETATM    6  N   UNL     1      43.770 -16.953   6.666  1.00  0.00    -0.364 N 
HETATM    7  C   UNL     1      42.358 -15.458   3.575  1.00  0.00     0.043 A 
HETATM    8  C   UNL     1      41.747 -16.579   3.009  1.00  0.00     0.081 A 
HETATM    9  C   UNL     1      41.844 -17.833   3.623  1.00  0.00     0.027 A 
HETATM   10  C   UNL     1      42.533 -17.964   4.831  1.00  0.00     0.032 A 
HETATM   11  C   UNL     1      44.339 -15.856   7.258  1.00  0.00     0.109 A 
HETATM   12  H   UNL     1      43.973 -17.870   7.051  1.00  0.00     0.165 HD
ENDROOT
BRANCH   8  13
HETATM   13  S   UNL     1      40.861 -16.421   1.471  1.00  0.00     0.263 S 
HETATM   14  O   UNL     1      41.436 -15.312   0.742  1.00  0.00    -0.200 OA
HETATM   15  O   UNL     1      40.779 -17.743   0.886  1.00  0.00    -0.200 OA
BRANCH  13  16
HETATM   16  N   UNL     1      39.294 -16.038   1.972  1.00  0.00    -0.281 N 
HETATM   17  H   UNL     1      38.988 -16.601   2.764  1.00  0.00     0.179 HD
BRANCH  16  18
HETATM   18  C   UNL     1      38.842 -14.694   1.888  1.00  0.00     0.042 A 
HETATM   19  C   UNL     1      37.923 -14.317   0.913  1.00  0.00     0.033 A 
HETATM   20  C   UNL     1      37.529 -12.982   0.810  1.00  0.00     0.039 A 
HETATM   21  C   UNL     1      38.057 -12.014   1.669  1.00  0.00     0.068 A 
HETATM   22  C   UNL     1      38.977 -12.397   2.646  1.00  0.00     0.039 A 
HETATM   23  C   UNL     1      39.368 -13.737   2.758  1.00  0.00     0.033 A 
BRANCH  21  24
HETATM   24  O   UNL     1      37.589 -10.749   1.453  1.00  0.00    -0.352 OA
BRANCH  24  25
HETATM   25  C   UNL     1      38.547  -9.692   1.433  1.00  0.00     0.171 C 
HETATM   26  C   UNL     1      39.197  -9.678   0.061  1.00  0.00     0.034 C 
ENDBRANCH  24  25
ENDBRANCH  21  24
ENDBRANCH  16  18
ENDBRANCH  13  16
ENDBRANCH   8  13
BRANCH   1  27
HETATM   27  C   UNL     1      44.954 -13.518   7.563  1.00  0.00     0.257 C 
HETATM   28  N   UNL     1      44.193 -13.013   8.584  1.00  0.00    -0.357 N 
HETATM   29  H   UNL     1      43.238 -13.360   8.695  1.00  0.00     0.162 HD
HETATM   30  O   UNL     1      46.089 -13.122   7.310  1.00  0.00    -0.267 OA
BRANCH  28  31
HETATM   31  C   UNL     1      44.632 -11.919   9.423  1.00  0.00     0.123 C 
BRANCH  31  32
HETATM   32  C   UNL     1      44.468 -12.219  10.913  1.00  0.00     0.019 C 
BRANCH  32  33
HETATM   33  C   UNL     1      43.299 -11.456  11.540  1.00  0.00    -0.003 C 
HETATM   34  C   UNL     1      43.759 -10.146  12.157  1.00  0.00     0.005 C 
ENDBRANCH  32  33
ENDBRANCH  31  32
ENDBRANCH  28  31
ENDBRANCH   1  27
TORSDOF 9
ENDMDL
MODEL 7
REMARK VINA RESULT:      -7.6      3.338      7.343
REMARK  9 active torsions:
REMARK  status: ('A' for Active; 'I' for Inactive)
REMARK    1  A    between atoms: C_2  and  C_3 
REMARK    2  A    between atoms: C_3  and  C_4 
REMARK    3  A    between atoms: C_4  and  N_5 
REMARK       I    between atoms: N_5  and  C_6 
REMARK    4  A    between atoms: C_6  and  C_7 
REMARK    5  A    between atoms: C_14  and  S_15 
REMARK    6  A    between atoms: S_15  and  N_16 
REMARK    7  A    between atoms: N_16  and  C_17 
REMARK    8  A    between atoms: C_20  and  O_21 
REMARK    9  A    between atoms: O_21  and  C_22 
ROOT
HETATM    1  C   UNL     1      44.395 -14.231   6.977  1.00  0.00     0.098 A 
HETATM    2  C   UNL     1      43.877 -14.175   5.580  1.00  0.00     0.201 A 
HETATM    3  O   UNL     1      44.206 -13.280   4.805  1.00  0.00    -0.286 OA
HETATM    4  C   UNL     1      42.935 -15.239   5.139  1.00  0.00     0.043 A 
HETATM    5  C   UNL     1      42.579 -16.250   6.051  1.00  0.00     0.046 A 
HETATM    6  N   UNL     1      43.090 -16.224   7.353  1.00  0.00    -0.364 N 
HETATM    7  C   UNL     1      42.405 -15.218   3.846  1.00  0.00     0.043 A 
HETATM    8  C   UNL     1      41.473 -16.192   3.480  1.00  0.00     0.081 A 
HETATM    9  C   UNL     1      41.110 -17.206   4.376  1.00  0.00     0.027 A 
HETATM   10  C   UNL     1      41.661 -17.229   5.659  1.00  0.00     0.032 A 
HETATM   11  C   UNL     1      43.973 -15.251   7.743  1.00  0.00     0.109 A 
HETATM   12  H   UNL     1      42.950 -17.024   7.962  1.00  0.00     0.165 HD
ENDROOT
BRANCH   8  13
HETATM   13  S   UNL     1      40.761 -16.166   1.848  1.00  0.00     0.263 S 
HETATM   14  O   UNL     1      39.535 -16.932   1.888  1.00  0.00    -0.200 OA
HETATM   15  O   UNL     1      40.772 -14.790   1.397  1.00  0.00    -0.200 OA
BRANCH  13  16
HETATM   16  N   UNL     1      41.918 -16.969   0.915  1.00  0.00    -0.281 N 
HETATM   17  H   UNL     1      42.349 -16.362   0.220  1.00  0.00     0.179 HD
BRANCH  16  18
HETATM   18  C   UNL     1      42.717 -17.981   1.511  1.00  0.00     0.042 A 
HETATM   19  C   UNL     1      43.998 -17.691   1.971  1.00  0.00     0.033 A 
HETATM   20  C   UNL     1      44.790 -18.709   2.506  1.00  0.00     0.039 A 
HETATM   21  C   UNL     1      44.314 -20.021   2.574  1.00  0.00     0.068 A 
HETATM   22  C   UNL     1      43.029 -20.307   2.113  1.00  0.00     0.039 A 
HETATM   23  C   UNL     1      42.229 -19.286   1.584  1.00  0.00     0.033 A 
BRANCH  21  24
HETATM   24  O   UNL     1      45.195 -20.915   3.114  1.00  0.00    -0.352 OA
BRANCH  24  25
HETATM   25  C   UNL     1      45.144 -21.112   4.526  1.00  0.00     0.171 C 
HETATM   26  C   UNL     1      44.765 -22.560   4.782  1.00  0.00     0.034 C 
ENDBRANCH  24  25
ENDBRANCH  21  24
ENDBRANCH  16  18
ENDBRANCH  13  16
ENDBRANCH   8  13
BRANCH   1  27
HETATM   27  C   UNL     1      45.335 -13.239   7.574  1.00  0.00     0.257 C 
HETATM   28  N   UNL     1      44.840 -12.532   8.638  1.00  0.00    -0.357 N 
HETATM   29  H   UNL     1      43.867 -12.681   8.910  1.00  0.00     0.162 HD
HETATM   30  O   UNL     1      46.472 -13.084   7.135  1.00  0.00    -0.267 OA
BRANCH  28  31
HETATM   31  C   UNL     1      45.591 -11.491   9.306  1.00  0.00     0.123 C 
BRANCH  31  32
HETATM   32  C   UNL     1      45.203 -11.337  10.777  1.00  0.00     0.019 C 
BRANCH  32  33
HETATM   33  C   UNL     1      43.744 -11.715  11.042  1.00  0.00    -0.003 C 
HETATM   34  C   UNL     1      43.248 -11.125  12.351  1.00  0.00     0.005 C 
ENDBRANCH  32  33
ENDBRANCH  31  32
ENDBRANCH  28  31
ENDBRANCH   1  27
TORSDOF 9
ENDMDL
MODEL 8
REMARK VINA RESULT:      -7.5      3.715      8.438
REMARK  9 active torsions:
REMARK  status: ('A' for Active; 'I' for Inactive)
REMARK    1  A    between atoms: C_2  and  C_3 
REMARK    2  A    between atoms: C_3  and  C_4 
REMARK    3  A    between atoms: C_4  and  N_5 
REMARK       I    between atoms: N_5  and  C_6 
REMARK    4  A    between atoms: C_6  and  C_7 
REMARK    5  A    between atoms: C_14  and  S_15 
REMARK    6  A    between atoms: S_15  and  N_16 
REMARK    7  A    between atoms: N_16  and  C_17 
REMARK    8  A    between atoms: C_20  and  O_21 
REMARK    9  A    between atoms: O_21  and  C_22 
ROOT
HETATM    1  C   UNL     1      40.919 -10.887   6.444  1.00  0.00     0.098 A 
HETATM    2  C   UNL     1      41.362 -12.110   5.716  1.00  0.00     0.201 A 
HETATM    3  O   UNL     1      42.338 -12.761   6.082  1.00  0.00    -0.286 OA
HETATM    4  C   UNL     1      40.589 -12.531   4.516  1.00  0.00     0.043 A 
HETATM    5  C   UNL     1      39.475 -11.765   4.125  1.00  0.00     0.046 A 
HETATM    6  N   UNL     1      39.133 -10.616   4.846  1.00  0.00    -0.364 N 
HETATM    7  C   UNL     1      40.977 -13.659   3.788  1.00  0.00     0.043 A 
HETATM    8  C   UNL     1      40.273 -13.992   2.629  1.00  0.00     0.081 A 
HETATM    9  C   UNL     1      39.161 -13.241   2.227  1.00  0.00     0.027 A 
HETATM   10  C   UNL     1      38.769 -12.127   2.974  1.00  0.00     0.032 A 
HETATM   11  C   UNL     1      39.839 -10.249   5.961  1.00  0.00     0.109 A 
HETATM   12  H   UNL     1      38.253 -10.147   4.654  1.00  0.00     0.165 HD
ENDROOT
BRANCH   8  13
HETATM   13  S   UNL     1      40.770 -15.407   1.667  1.00  0.00     0.263 S 
HETATM   14  O   UNL     1      39.966 -16.533   2.089  1.00  0.00    -0.200 OA
HETATM   15  O   UNL     1      40.810 -14.989   0.281  1.00  0.00    -0.200 OA
BRANCH  13  16
HETATM   16  N   UNL     1      42.379 -15.634   2.129  1.00  0.00    -0.281 N 
HETATM   17  H   UNL     1      42.741 -14.858   2.679  1.00  0.00     0.179 HD
BRANCH  16  18
HETATM   18  C   UNL     1      42.842 -16.944   2.427  1.00  0.00     0.042 A 
HETATM   19  C   UNL     1      42.985 -17.359   3.747  1.00  0.00     0.033 A 
HETATM   20  C   UNL     1      43.492 -18.630   4.024  1.00  0.00     0.039 A 
HETATM   21  C   UNL     1      43.869 -19.488   2.988  1.00  0.00     0.068 A 
HETATM   22  C   UNL     1      43.723 -19.068   1.666  1.00  0.00     0.039 A 
HETATM   23  C   UNL     1      43.207 -17.797   1.385  1.00  0.00     0.033 A 
BRANCH  21  24
HETATM   24  O   UNL     1      44.353 -20.697   3.402  1.00  0.00    -0.352 OA
BRANCH  24  25
HETATM   25  C   UNL     1      45.005 -20.740   4.670  1.00  0.00     0.171 C 
HETATM   26  C   UNL     1      44.933 -22.167   5.182  1.00  0.00     0.034 C 
ENDBRANCH  24  25
ENDBRANCH  21  24
ENDBRANCH  16  18
ENDBRANCH  13  16
ENDBRANCH   8  13
BRANCH   1  27
HETATM   27  C   UNL     1      41.589 -10.330   7.654  1.00  0.00     0.257 C 
HETATM   28  N   UNL     1      41.667 -11.183   8.723  1.00  0.00    -0.357 N 
HETATM   29  H   UNL     1      41.221 -12.100   8.646  1.00  0.00     0.162 HD
HETATM   30  O   UNL     1      42.040  -9.187   7.672  1.00  0.00    -0.267 OA
BRANCH  28  31
HETATM   31  C   UNL     1      42.235 -10.796   9.996  1.00  0.00     0.123 C 
BRANCH  31  32
HETATM   32  C   UNL     1      43.616 -11.407  10.235  1.00  0.00     0.019 C 
BRANCH  32  33
HETATM   33  C   UNL     1      44.424 -10.639  11.283  1.00  0.00    -0.003 C 
HETATM   34  C   UNL     1      43.514  -9.931  12.274  1.00  0.00     0.005 C 
ENDBRANCH  32  33
ENDBRANCH  31  32
ENDBRANCH  28  31
ENDBRANCH   1  27
TORSDOF 9
ENDMDL
MODEL 9
REMARK VINA RESULT:      -7.4      2.701      3.395
REMARK  9 active torsions:
REMARK  status: ('A' for Active; 'I' for Inactive)
REMARK    1  A    between atoms: C_2  and  C_3 
REMARK    2  A    between atoms: C_3  and  C_4 
REMARK    3  A    between atoms: C_4  and  N_5 
REMARK       I    between atoms: N_5  and  C_6 
REMARK    4  A    between atoms: C_6  and  C_7 
REMARK    5  A    between atoms: C_14  and  S_15 
REMARK    6  A    between atoms: S_15  and  N_16 
REMARK    7  A    between atoms: N_16  and  C_17 
REMARK    8  A    between atoms: C_20  and  O_21 
REMARK    9  A    between atoms: O_21  and  C_22 
ROOT
HETATM    1  C   UNL     1      42.458 -17.134   5.369  1.00  0.00     0.098 A 
HETATM    2  C   UNL     1      41.791 -16.928   4.052  1.00  0.00     0.201 A 
HETATM    3  O   UNL     1      41.922 -17.729   3.129  1.00  0.00    -0.286 OA
HETATM    4  C   UNL     1      40.956 -15.710   3.872  1.00  0.00     0.043 A 
HETATM    5  C   UNL     1      40.825 -14.812   4.948  1.00  0.00     0.046 A 
HETATM    6  N   UNL     1      41.499 -15.063   6.148  1.00  0.00    -0.364 N 
HETATM    7  C   UNL     1      40.327 -15.461   2.648  1.00  0.00     0.043 A 
HETATM    8  C   UNL     1      39.603 -14.278   2.488  1.00  0.00     0.081 A 
HETATM    9  C   UNL     1      39.463 -13.376   3.549  1.00  0.00     0.027 A 
HETATM   10  C   UNL     1      40.077 -13.644   4.775  1.00  0.00     0.032 A 
HETATM   11  C   UNL     1      42.250 -16.198   6.310  1.00  0.00     0.109 A 
HETATM   12  H   UNL     1      41.293 -14.498   6.966  1.00  0.00     0.165 HD
ENDROOT
BRANCH   8  13
HETATM   13  S   UNL     1      38.820 -13.925   0.926  1.00  0.00     0.263 S 
HETATM   14  O   UNL     1      37.481 -14.468   0.971  1.00  0.00    -0.200 OA
HETATM   15  O   UNL     1      39.054 -12.525   0.637  1.00  0.00    -0.200 OA
BRANCH  13  16
HETATM   16  N   UNL     1      39.764 -14.789  -0.176  1.00  0.00    -0.281 N 
HETATM   17  H   UNL     1      39.410 -15.729  -0.341  1.00  0.00     0.179 HD
BRANCH  16  18
HETATM   18  C   UNL     1      40.380 -14.104  -1.257  1.00  0.00     0.042 A 
HETATM   19  C   UNL     1      41.659 -13.573  -1.120  1.00  0.00     0.033 A 
HETATM   20  C   UNL     1      42.229 -12.856  -2.174  1.00  0.00     0.039 A 
HETATM   21  C   UNL     1      41.524 -12.654  -3.363  1.00  0.00     0.068 A 
HETATM   22  C   UNL     1      40.243 -13.190  -3.496  1.00  0.00     0.039 A 
HETATM   23  C   UNL     1      39.671 -13.916  -2.445  1.00  0.00     0.033 A 
BRANCH  21  24
HETATM   24  O   UNL     1      42.199 -11.932  -4.306  1.00  0.00    -0.352 OA
BRANCH  24  25
HETATM   25  C   UNL     1      42.513 -10.576  -3.989  1.00  0.00     0.171 C 
HETATM   26  C   UNL     1      41.286  -9.732  -4.285  1.00  0.00     0.034 C 
ENDBRANCH  24  25
ENDBRANCH  21  24
ENDBRANCH  16  18
ENDBRANCH  13  16
ENDBRANCH   8  13
BRANCH   1  27
HETATM   27  C   UNL     1      43.333 -18.294   5.705  1.00  0.00     0.257 C 
HETATM   28  N   UNL     1      44.202 -18.675   4.716  1.00  0.00    -0.357 N 
HETATM   29  H   UNL     1      44.156 -18.193   3.816  1.00  0.00     0.162 HD
HETATM   30  O   UNL     1      43.271 -18.852   6.797  1.00  0.00    -0.267 OA
BRANCH  28  31
HETATM   31  C   UNL     1      45.087 -19.812   4.845  1.00  0.00     0.123 C 
BRANCH  31  32
HETATM   32  C   UNL     1      44.654 -20.996   3.980  1.00  0.00     0.019 C 
BRANCH  32  33
HETATM   33  C   UNL     1      44.361 -20.590   2.534  1.00  0.00    -0.003 C 
HETATM   34  C   UNL     1      43.952 -21.789   1.695  1.00  0.00     0.005 C 
ENDBRANCH  32  33
ENDBRANCH  31  32
ENDBRANCH  28  31
ENDBRANCH   1  27
TORSDOF 9
ENDMDL
MODEL 10
REMARK VINA RESULT:      -7.3      3.289      6.324
REMARK  9 active torsions:
REMARK  status: ('A' for Active; 'I' for Inactive)
REMARK    1  A    between atoms: C_2  and  C_3 
REMARK    2  A    between atoms: C_3  and  C_4 
REMARK    3  A    between atoms: C_4  and  N_5 
REMARK       I    between atoms: N_5  and  C_6 
REMARK    4  A    between atoms: C_6  and  C_7 
REMARK    5  A    between atoms: C_14  and  S_15 
REMARK    6  A    between atoms: S_15  and  N_16 
REMARK    7  A    between atoms: N_16  and  C_17 
REMARK    8  A    between atoms: C_20  and  O_21 
REMARK    9  A    between atoms: O_21  and  C_22 
ROOT
HETATM    1  C   UNL     1      44.264 -14.585   6.798  1.00  0.00     0.098 A 
HETATM    2  C   UNL     1      43.912 -14.565   5.349  1.00  0.00     0.201 A 
HETATM    3  O   UNL     1      44.180 -13.603   4.633  1.00  0.00    -0.286 OA
HETATM    4  C   UNL     1      43.213 -15.749   4.781  1.00  0.00     0.043 A 
HETATM    5  C   UNL     1      42.921 -16.835   5.627  1.00  0.00     0.046 A 
HETATM    6  N   UNL     1      43.263 -16.772   6.982  1.00  0.00    -0.364 N 
HETATM    7  C   UNL     1      42.843 -15.768   3.433  1.00  0.00     0.043 A 
HETATM    8  C   UNL     1      42.130 -16.864   2.943  1.00  0.00     0.081 A 
HETATM    9  C   UNL     1      41.833 -17.953   3.772  1.00  0.00     0.027 A 
HETATM   10  C   UNL     1      42.226 -17.933   5.112  1.00  0.00     0.032 A 
HETATM   11  C   UNL     1      43.925 -15.686   7.491  1.00  0.00     0.109 A 
HETATM   12  H   UNL     1      43.185 -17.605   7.558  1.00  0.00     0.165 HD
ENDROOT
BRANCH   8  13
HETATM   13  S   UNL     1      41.620 -16.896   1.236  1.00  0.00     0.263 S 
HETATM   14  O   UNL     1      42.812 -16.875   0.418  1.00  0.00    -0.200 OA
HETATM   15  O   UNL     1      40.636 -17.951   1.103  1.00  0.00    -0.200 OA
BRANCH  13  16
HETATM   16  N   UNL     1      40.770 -15.447   1.066  1.00  0.00    -0.281 N 
HETATM   17  H   UNL     1      40.344 -15.139   1.937  1.00  0.00     0.179 HD
BRANCH  16  18
HETATM   18  C   UNL     1      41.248 -14.458   0.164  1.00  0.00     0.042 A 
HETATM   19  C   UNL     1      41.844 -13.295   0.643  1.00  0.00     0.033 A 
HETATM   20  C   UNL     1      42.260 -12.309  -0.254  1.00  0.00     0.039 A 
HETATM   21  C   UNL     1      42.075 -12.472  -1.629  1.00  0.00     0.068 A 
HETATM   22  C   UNL     1      41.477 -13.640  -2.104  1.00  0.00     0.039 A 
HETATM   23  C   UNL     1      41.066 -14.634  -1.208  1.00  0.00     0.033 A 
BRANCH  21  24
HETATM   24  O   UNL     1      42.523 -11.428  -2.389  1.00  0.00    -0.352 OA
BRANCH  24  25
HETATM   25  C   UNL     1      41.648 -10.933  -3.400  1.00  0.00     0.171 C 
HETATM   26  C   UNL     1      42.357 -11.066  -4.736  1.00  0.00     0.034 C 
ENDBRANCH  24  25
ENDBRANCH  21  24
ENDBRANCH  16  18
ENDBRANCH  13  16
ENDBRANCH   8  13
BRANCH   1  27
HETATM   27  C   UNL     1      44.954 -13.478   7.519  1.00  0.00     0.257 C 
HETATM   28  N   UNL     1      44.213 -12.865   8.495  1.00  0.00    -0.357 N 
HETATM   29  H   UNL     1      43.242 -13.157   8.622  1.00  0.00     0.162 HD
HETATM   30  O   UNL     1      46.108 -13.155   7.250  1.00  0.00    -0.267 OA
BRANCH  28  31
HETATM   31  C   UNL     1      44.700 -11.737   9.259  1.00  0.00     0.123 C 
BRANCH  31  32
HETATM   32  C   UNL     1      44.660 -11.986  10.767  1.00  0.00     0.019 C 
BRANCH  32  33
HETATM   33  C   UNL     1      44.087 -10.798  11.542  1.00  0.00    -0.003 C 
HETATM   34  C   UNL     1      42.952 -11.228  12.456  1.00  0.00     0.005 C 
ENDBRANCH  32  33
ENDBRANCH  31  32
ENDBRANCH  28  31
ENDBRANCH   1  27
TORSDOF 9
ENDMDL
