MODEL 1
REMARK VINA RESULT:      -8.5      0.000      0.000
REMARK  9 active torsions:
REMARK  status: ('A' for Active; 'I' for Inactive)
REMARK       I    between atoms: C_2  and  N_3 
REMARK    1  A    between atoms: N_3  and  C_4 
REMARK    2  A    between atoms: C_6  and  O_7 
REMARK    3  A    between atoms: O_7  and  C_8 
REMARK    4  A    between atoms: C_8  and  C_9 
REMARK    5  A    between atoms: C_9  and  C_10 
REMARK    6  A    between atoms: C_10  and  C_11 
REMARK    7  A    between atoms: C_11  and  N_12 
REMARK       I    between atoms: N_12  and  C_13 
REMARK    8  A    between atoms: C_13  and  C_14 
REMARK    9  A    between atoms: C_18  and  C_19 
ROOT
HETATM    1  N   UNL     1      40.339 -13.661   5.938  1.00  0.00    -0.345 N 
HETATM    2  C   UNL     1      41.666 -13.556   5.614  1.00  0.00     0.270 C 
HETATM    3  O   UNL     1      42.201 -12.487   5.346  1.00  0.00    -0.266 OA
HETATM    4  H   UNL     1      39.918 -14.570   6.048  1.00  0.00     0.163 HD
ENDROOT
BRANCH   1   5
HETATM    5  C   UNL     1      39.470 -12.513   5.951  1.00  0.00     0.217 C 
BRANCH   5   6
HETATM    6  C   UNL     1      39.496 -11.916   7.348  1.00  0.00    -0.085 C 
BRANCH   6   7
HETATM    7  C   UNL     1      39.518 -11.405   8.548  1.00  0.00    -0.078 C 
BRANCH   7   8
HETATM    8  C   UNL     1      39.582 -10.863   9.913  1.00  0.00     0.269 C 
BRANCH   8   9
HETATM    9  O   UNL     1      40.646  -9.915   9.992  1.00  0.00    -0.339 OA
BRANCH   9  10
HETATM   10  C   UNL     1      41.872 -10.396  10.369  1.00  0.00     0.072 A 
HETATM   11  C   UNL     1      42.972 -10.595   9.526  1.00  0.00     0.066 A 
HETATM   12  C   UNL     1      44.179 -11.089  10.032  1.00  0.00     0.037 A 
HETATM   13  C   UNL     1      44.273 -11.391  11.396  1.00  0.00     0.029 A 
HETATM   14  C   UNL     1      43.179 -11.198  12.242  1.00  0.00     0.005 A 
HETATM   15  C   UNL     1      41.984 -10.702  11.726  1.00  0.00     0.037 A 
BRANCH  12  16
HETATM   16  N   UNL     1      45.330 -11.312   9.245  1.00  0.00    -0.327 N 
HETATM   17  C   UNL     1      45.646 -12.442   8.511  1.00  0.00     0.218 C 
HETATM   18  C   UNL     1      46.964 -12.312   7.789  1.00  0.00     0.117 C 
HETATM   19  O   UNL     1      44.968 -13.457   8.391  1.00  0.00    -0.274 OA
HETATM   20  H   UNL     1      45.991 -10.546   9.208  1.00  0.00     0.169 HD
ENDBRANCH  12  16
ENDBRANCH   9  10
ENDBRANCH   8   9
ENDBRANCH   7   8
ENDBRANCH   6   7
ENDBRANCH   5   6
ENDBRANCH   1   5
BRANCH   2  21
HETATM   21  C   UNL     1      42.389 -14.800   5.608  1.00  0.00     0.120 A 
HETATM   22  N   UNL     1      43.288 -15.114   6.587  1.00  0.00    -0.272 N 
HETATM   23  H   UNL     1      43.536 -14.543   7.390  1.00  0.00     0.189 HD
HETATM   24  N   UNL     1      43.883 -16.305   6.429  1.00  0.00    -0.174 NA
HETATM   25  C   UNL     1      43.346 -16.810   5.307  1.00  0.00     0.089 A 
HETATM   26  C   UNL     1      42.403 -15.893   4.763  1.00  0.00     0.071 A 
BRANCH  25  27
HETATM   27  C   UNL     1      43.743 -18.124   4.785  1.00  0.00    -0.003 A 
HETATM   28  C   UNL     1      43.419 -18.485   3.465  1.00  0.00     0.053 A 
HETATM   29  C   UNL     1      43.795 -19.733   3.013  1.00  0.00     0.106 A 
HETATM   30  C   UNL     1      44.474 -20.620   3.814  1.00  0.00     0.105 A 
HETATM   31  O   UNL     1      43.554 -20.236   1.772  1.00  0.00    -0.323 OA
HETATM   32  O   UNL     1      44.745 -21.791   3.179  1.00  0.00    -0.323 OA
HETATM   33  C   UNL     1      44.817 -20.308   5.109  1.00  0.00     0.040 A 
HETATM   34  C   UNL     1      44.159 -21.540   1.885  1.00  0.00     0.352 A 
HETATM   35  C   UNL     1      44.447 -19.047   5.596  1.00  0.00     0.017 A 
ENDBRANCH  25  27
ENDBRANCH   2  21
TORSDOF 9
ENDMDL
MODEL 2
REMARK VINA RESULT:      -8.5      2.865     11.086
REMARK  9 active torsions:
REMARK  status: ('A' for Active; 'I' for Inactive)
REMARK       I    between atoms: C_2  and  N_3 
REMARK    1  A    between atoms: N_3  and  C_4 
REMARK    2  A    between atoms: C_6  and  O_7 
REMARK    3  A    between atoms: O_7  and  C_8 
REMARK    4  A    between atoms: C_8  and  C_9 
REMARK    5  A    between atoms: C_9  and  C_10 
REMARK    6  A    between atoms: C_10  and  C_11 
REMARK    7  A    between atoms: C_11  and  N_12 
REMARK       I    between atoms: N_12  and  C_13 
REMARK    8  A    between atoms: C_13  and  C_14 
REMARK    9  A    between atoms: C_18  and  C_19 
ROOT
HETATM    1  N   UNL     1      44.195 -13.215   8.015  1.00  0.00    -0.345 N 
HETATM    2  C   UNL     1      45.050 -12.547   8.853  1.00  0.00     0.270 C 
HETATM    3  O   UNL     1      46.235 -12.377   8.591  1.00  0.00    -0.266 OA
HETATM    4  H   UNL     1      43.255 -13.423   8.317  1.00  0.00     0.163 HD
ENDROOT
BRANCH   1   5
HETATM    5  C   UNL     1      44.646 -13.795   6.778  1.00  0.00     0.217 C 
BRANCH   5   6
HETATM    6  C   UNL     1      43.495 -14.587   6.180  1.00  0.00    -0.085 C 
BRANCH   6   7
HETATM    7  C   UNL     1      42.507 -15.266   5.666  1.00  0.00    -0.078 C 
BRANCH   7   8
HETATM    8  C   UNL     1      41.429 -16.053   5.052  1.00  0.00     0.269 C 
BRANCH   8   9
HETATM    9  O   UNL     1      41.578 -16.027   3.633  1.00  0.00    -0.339 OA
BRANCH   9  10
HETATM   10  C   UNL     1      42.388 -16.984   3.081  1.00  0.00     0.072 A 
HETATM   11  C   UNL     1      42.802 -18.168   3.701  1.00  0.00     0.066 A 
HETATM   12  C   UNL     1      43.630 -19.074   3.030  1.00  0.00     0.037 A 
HETATM   13  C   UNL     1      44.047 -18.778   1.726  1.00  0.00     0.029 A 
HETATM   14  C   UNL     1      43.640 -17.598   1.102  1.00  0.00     0.005 A 
HETATM   15  C   UNL     1      42.812 -16.706   1.781  1.00  0.00     0.037 A 
BRANCH  12  16
HETATM   16  N   UNL     1      44.085 -20.288   3.589  1.00  0.00    -0.327 N 
HETATM   17  C   UNL     1      44.691 -20.477   4.819  1.00  0.00     0.218 C 
HETATM   18  C   UNL     1      45.036 -21.922   5.078  1.00  0.00     0.117 C 
HETATM   19  O   UNL     1      44.926 -19.619   5.665  1.00  0.00    -0.274 OA
HETATM   20  H   UNL     1      43.936 -21.114   3.025  1.00  0.00     0.169 HD
ENDBRANCH  12  16
ENDBRANCH   9  10
ENDBRANCH   8   9
ENDBRANCH   7   8
ENDBRANCH   6   7
ENDBRANCH   5   6
ENDBRANCH   1   5
BRANCH   2  21
HETATM   21  C   UNL     1      44.454 -12.062  10.068  1.00  0.00     0.120 A 
HETATM   22  N   UNL     1      44.185 -12.893  11.119  1.00  0.00    -0.272 N 
HETATM   23  H   UNL     1      44.367 -13.891  11.166  1.00  0.00     0.189 HD
HETATM   24  N   UNL     1      43.621 -12.285  12.173  1.00  0.00    -0.174 NA
HETATM   25  C   UNL     1      43.525 -10.995  11.814  1.00  0.00     0.089 A 
HETATM   26  C   UNL     1      44.038 -10.816  10.497  1.00  0.00     0.071 A 
BRANCH  25  27
HETATM   27  C   UNL     1      42.950  -9.985  12.710  1.00  0.00    -0.003 A 
HETATM   28  C   UNL     1      42.459 -10.359  13.973  1.00  0.00     0.053 A 
HETATM   29  C   UNL     1      41.913  -9.385  14.783  1.00  0.00     0.106 A 
HETATM   30  C   UNL     1      41.840  -8.071  14.389  1.00  0.00     0.105 A 
HETATM   31  O   UNL     1      41.391  -9.583  16.024  1.00  0.00    -0.323 OA
HETATM   32  O   UNL     1      41.265  -7.276  15.329  1.00  0.00    -0.323 OA
HETATM   33  C   UNL     1      42.313  -7.657  13.164  1.00  0.00     0.040 A 
HETATM   34  C   UNL     1      40.982  -8.242  16.363  1.00  0.00     0.352 A 
HETATM   35  C   UNL     1      42.873  -8.625  12.320  1.00  0.00     0.017 A 
ENDBRANCH  25  27
ENDBRANCH   2  21
TORSDOF 9
ENDMDL
MODEL 3
REMARK VINA RESULT:      -8.2      1.754      2.893
REMARK  9 active torsions:
REMARK  status: ('A' for Active; 'I' for Inactive)
REMARK       I    between atoms: C_2  and  N_3 
REMARK    1  A    between atoms: N_3  and  C_4 
REMARK    2  A    between atoms: C_6  and  O_7 
REMARK    3  A    between atoms: O_7  and  C_8 
REMARK    4  A    between atoms: C_8  and  C_9 
REMARK    5  A    between atoms: C_9  and  C_10 
REMARK    6  A    between atoms: C_10  and  C_11 
REMARK    7  A    between atoms: C_11  and  N_12 
REMARK       I    between atoms: N_12  and  C_13 
REMARK    8  A    between atoms: C_13  and  C_14 
REMARK    9  A    between atoms: C_18  and  C_19 
ROOT
HETATM    1  N   UNL     1      40.039 -13.948   6.237  1.00  0.00    -0.345 N 
HETATM    2  C   UNL     1      41.030 -14.060   5.298  1.00  0.00     0.270 C 
HETATM    3  O   UNL     1      41.251 -13.193   4.460  1.00  0.00    -0.266 OA
HETATM    4  H   UNL     1      39.825 -14.729   6.838  1.00  0.00     0.163 HD
ENDROOT
BRANCH   1   5
HETATM    5  C   UNL     1      39.161 -12.808   6.279  1.00  0.00     0.217 C 
BRANCH   5   6
HETATM    6  C   UNL     1      39.925 -11.645   6.889  1.00  0.00    -0.085 C 
BRANCH   6   7
HETATM    7  C   UNL     1      40.581 -10.647   7.414  1.00  0.00    -0.078 C 
BRANCH   7   8
HETATM    8  C   UNL     1      41.311  -9.544   8.054  1.00  0.00     0.269 C 
BRANCH   8   9
HETATM    9  O   UNL     1      42.666  -9.940   8.269  1.00  0.00    -0.339 OA
BRANCH   9  10
HETATM   10  C   UNL     1      42.949 -10.542   9.466  1.00  0.00     0.072 A 
HETATM   11  C   UNL     1      42.335 -10.262  10.692  1.00  0.00     0.066 A 
HETATM   12  C   UNL     1      42.709 -10.950  11.852  1.00  0.00     0.037 A 
HETATM   13  C   UNL     1      43.714 -11.921  11.772  1.00  0.00     0.029 A 
HETATM   14  C   UNL     1      44.333 -12.203  10.554  1.00  0.00     0.005 A 
HETATM   15  C   UNL     1      43.949 -11.512   9.406  1.00  0.00     0.037 A 
BRANCH  12  16
HETATM   16  N   UNL     1      42.132 -10.726  13.121  1.00  0.00    -0.327 N 
HETATM   17  C   UNL     1      42.596  -9.893  14.125  1.00  0.00     0.218 C 
HETATM   18  C   UNL     1      41.709  -9.907  15.344  1.00  0.00     0.117 C 
HETATM   19  O   UNL     1      43.590  -9.176  14.086  1.00  0.00    -0.274 OA
HETATM   20  H   UNL     1      41.272 -11.225  13.307  1.00  0.00     0.169 HD
ENDBRANCH  12  16
ENDBRANCH   9  10
ENDBRANCH   8   9
ENDBRANCH   7   8
ENDBRANCH   6   7
ENDBRANCH   5   6
ENDBRANCH   1   5
BRANCH   2  21
HETATM   21  C   UNL     1      41.795 -15.276   5.363  1.00  0.00     0.120 A 
HETATM   22  N   UNL     1      42.502 -15.622   6.481  1.00  0.00    -0.272 N 
HETATM   23  H   UNL     1      42.564 -15.095   7.347  1.00  0.00     0.189 HD
HETATM   24  N   UNL     1      43.167 -16.781   6.376  1.00  0.00    -0.174 NA
HETATM   25  C   UNL     1      42.880 -17.231   5.145  1.00  0.00     0.089 A 
HETATM   26  C   UNL     1      42.020 -16.313   4.478  1.00  0.00     0.071 A 
BRANCH  25  27
HETATM   27  C   UNL     1      43.427 -18.496   4.638  1.00  0.00    -0.003 A 
HETATM   28  C   UNL     1      43.182 -18.889   3.310  1.00  0.00     0.053 A 
HETATM   29  C   UNL     1      43.700 -20.090   2.873  1.00  0.00     0.106 A 
HETATM   30  C   UNL     1      44.445 -20.902   3.695  1.00  0.00     0.105 A 
HETATM   31  O   UNL     1      43.550 -20.615   1.626  1.00  0.00    -0.323 OA
HETATM   32  O   UNL     1      44.856 -22.037   3.072  1.00  0.00    -0.323 OA
HETATM   33  C   UNL     1      44.715 -20.555   4.999  1.00  0.00     0.040 A 
HETATM   34  C   UNL     1      44.285 -21.849   1.761  1.00  0.00     0.352 A 
HETATM   35  C   UNL     1      44.200 -19.340   5.472  1.00  0.00     0.017 A 
ENDBRANCH  25  27
ENDBRANCH   2  21
TORSDOF 9
ENDMDL
MODEL 4
REMARK VINA RESULT:      -8.1      1.407      1.796
REMARK  9 active torsions:
REMARK  status: ('A' for Active; 'I' for Inactive)
REMARK       I    between atoms: C_2  and  N_3 
REMARK    1  A    between atoms: N_3  and  C_4 
REMARK    2  A    between atoms: C_6  and  O_7 
REMARK    3  A    between atoms: O_7  and  C_8 
REMARK    4  A    between atoms: C_8  and  C_9 
REMARK    5  A    between atoms: C_9  and  C_10 
REMARK    6  A    between atoms: C_10  and  C_11 
REMARK    7  A    between atoms: C_11  and  N_12 
REMARK       I    between atoms: N_12  and  C_13 
REMARK    8  A    between atoms: C_13  and  C_14 
REMARK    9  A    between atoms: C_18  and  C_19 
ROOT
HETATM    1  N   UNL     1      40.008 -12.763   6.145  1.00  0.00    -0.345 N 
HETATM    2  C   UNL     1      39.972 -13.478   4.976  1.00  0.00     0.270 C 
HETATM    3  O   UNL     1      39.482 -13.035   3.943  1.00  0.00    -0.266 OA
HETATM    4  H   UNL     1      40.324 -13.204   6.995  1.00  0.00     0.163 HD
ENDROOT
BRANCH   1   5
HETATM    5  C   UNL     1      39.435 -11.446   6.245  1.00  0.00     0.217 C 
BRANCH   5   6
HETATM    6  C   UNL     1      39.543 -10.993   7.692  1.00  0.00    -0.085 C 
BRANCH   6   7
HETATM    7  C   UNL     1      39.635 -10.605   8.933  1.00  0.00    -0.078 C 
BRANCH   7   8
HETATM    8  C   UNL     1      39.750 -10.219  10.347  1.00  0.00     0.269 C 
BRANCH   8   9
HETATM    9  O   UNL     1      40.977  -9.517  10.543  1.00  0.00    -0.339 OA
BRANCH   9  10
HETATM   10  C   UNL     1      42.096 -10.280  10.751  1.00  0.00     0.072 A 
HETATM   11  C   UNL     1      43.183 -10.399   9.879  1.00  0.00     0.066 A 
HETATM   12  C   UNL     1      44.276 -11.209  10.206  1.00  0.00     0.037 A 
HETATM   13  C   UNL     1      44.266 -11.908  11.419  1.00  0.00     0.029 A 
HETATM   14  C   UNL     1      43.184 -11.796  12.292  1.00  0.00     0.005 A 
HETATM   15  C   UNL     1      42.103 -10.984  11.956  1.00  0.00     0.037 A 
BRANCH  12  16
HETATM   16  N   UNL     1      45.409 -11.375   9.378  1.00  0.00    -0.327 N 
HETATM   17  C   UNL     1      45.696 -12.441   8.544  1.00  0.00     0.218 C 
HETATM   18  C   UNL     1      47.001 -12.263   7.808  1.00  0.00     0.117 C 
HETATM   19  O   UNL     1      45.003 -13.434   8.352  1.00  0.00    -0.274 OA
HETATM   20  H   UNL     1      46.078 -10.616   9.393  1.00  0.00     0.169 HD
ENDBRANCH  12  16
ENDBRANCH   9  10
ENDBRANCH   8   9
ENDBRANCH   7   8
ENDBRANCH   6   7
ENDBRANCH   5   6
ENDBRANCH   1   5
BRANCH   2  21
HETATM   21  C   UNL     1      40.550 -14.792   5.050  1.00  0.00     0.120 A 
HETATM   22  N   UNL     1      40.193 -15.681   6.025  1.00  0.00    -0.272 N 
HETATM   23  H   UNL     1      39.516 -15.530   6.766  1.00  0.00     0.189 HD
HETATM   24  N   UNL     1      40.831 -16.858   5.958  1.00  0.00    -0.174 NA
HETATM   25  C   UNL     1      41.633 -16.754   4.887  1.00  0.00     0.089 A 
HETATM   26  C   UNL     1      41.484 -15.470   4.290  1.00  0.00     0.071 A 
BRANCH  25  27
HETATM   27  C   UNL     1      42.513 -17.853   4.470  1.00  0.00    -0.003 A 
HETATM   28  C   UNL     1      42.983 -18.779   5.418  1.00  0.00     0.053 A 
HETATM   29  C   UNL     1      43.819 -19.791   4.992  1.00  0.00     0.106 A 
HETATM   30  C   UNL     1      44.196 -19.914   3.677  1.00  0.00     0.105 A 
HETATM   31  O   UNL     1      44.362 -20.758   5.780  1.00  0.00    -0.323 OA
HETATM   32  O   UNL     1      45.023 -20.973   3.470  1.00  0.00    -0.323 OA
HETATM   33  C   UNL     1      43.756 -19.036   2.713  1.00  0.00     0.040 A 
HETATM   34  C   UNL     1      45.124 -21.503   4.808  1.00  0.00     0.352 A 
HETATM   35  C   UNL     1      42.906 -17.997   3.117  1.00  0.00     0.017 A 
ENDBRANCH  25  27
ENDBRANCH   2  21
TORSDOF 9
ENDMDL
MODEL 5
REMARK VINA RESULT:      -8.1      2.905      9.053
REMARK  9 active torsions:
REMARK  status: ('A' for Active; 'I' for Inactive)
REMARK       I    between atoms: C_2  and  N_3 
REMARK    1  A    between atoms: N_3  and  C_4 
REMARK    2  A    between atoms: C_6  and  O_7 
REMARK    3  A    between atoms: O_7  and  C_8 
REMARK    4  A    between atoms: C_8  and  C_9 
REMARK    5  A    between atoms: C_9  and  C_10 
REMARK    6  A    between atoms: C_10  and  C_11 
REMARK    7  A    between atoms: C_11  and  N_12 
REMARK       I    between atoms: N_12  and  C_13 
REMARK    8  A    between atoms: C_13  and  C_14 
REMARK    9  A    between atoms: C_18  and  C_19 
ROOT
HETATM    1  N   UNL     1      42.119 -16.588   2.424  1.00  0.00    -0.345 N 
HETATM    2  C   UNL     1      40.838 -16.163   2.663  1.00  0.00     0.270 C 
HETATM    3  O   UNL     1      39.893 -16.468   1.944  1.00  0.00    -0.266 OA
HETATM    4  H   UNL     1      42.880 -16.228   2.978  1.00  0.00     0.163 HD
ENDROOT
BRANCH   1   5
HETATM    5  C   UNL     1      42.446 -17.400   1.281  1.00  0.00     0.217 C 
BRANCH   5   6
HETATM    6  C   UNL     1      43.122 -18.667   1.780  1.00  0.00    -0.085 C 
BRANCH   6   7
HETATM    7  C   UNL     1      43.702 -19.754   2.208  1.00  0.00    -0.078 C 
BRANCH   7   8
HETATM    8  C   UNL     1      44.310 -21.007   2.677  1.00  0.00     0.269 C 
BRANCH   8   9
HETATM    9  O   UNL     1      45.295 -20.710   3.666  1.00  0.00    -0.339 OA
BRANCH   9  10
HETATM   10  C   UNL     1      44.839 -20.216   4.860  1.00  0.00     0.072 A 
HETATM   11  C   UNL     1      44.903 -18.881   5.275  1.00  0.00     0.066 A 
HETATM   12  C   UNL     1      44.398 -18.496   6.521  1.00  0.00     0.037 A 
HETATM   13  C   UNL     1      43.830 -19.467   7.355  1.00  0.00     0.029 A 
HETATM   14  C   UNL     1      43.765 -20.800   6.949  1.00  0.00     0.005 A 
HETATM   15  C   UNL     1      44.270 -21.170   5.704  1.00  0.00     0.037 A 
BRANCH  12  16
HETATM   16  N   UNL     1      44.424 -17.169   7.006  1.00  0.00    -0.327 N 
HETATM   17  C   UNL     1      44.024 -16.021   6.345  1.00  0.00     0.218 C 
HETATM   18  C   UNL     1      44.194 -14.780   7.187  1.00  0.00     0.117 C 
HETATM   19  O   UNL     1      43.549 -15.947   5.217  1.00  0.00    -0.274 OA
HETATM   20  H   UNL     1      44.764 -17.054   7.952  1.00  0.00     0.169 HD
ENDBRANCH  12  16
ENDBRANCH   9  10
ENDBRANCH   8   9
ENDBRANCH   7   8
ENDBRANCH   6   7
ENDBRANCH   5   6
ENDBRANCH   1   5
BRANCH   2  21
HETATM   21  C   UNL     1      40.682 -15.326   3.822  1.00  0.00     0.120 A 
HETATM   22  N   UNL     1      40.499 -15.852   5.069  1.00  0.00    -0.272 N 
HETATM   23  H   UNL     1      40.457 -16.837   5.313  1.00  0.00     0.189 HD
HETATM   24  N   UNL     1      40.362 -14.937   6.039  1.00  0.00    -0.174 NA
HETATM   25  C   UNL     1      40.474 -13.755   5.414  1.00  0.00     0.089 A 
HETATM   26  C   UNL     1      40.677 -13.958   4.019  1.00  0.00     0.071 A 
BRANCH  25  27
HETATM   27  C   UNL     1      40.378 -12.483   6.142  1.00  0.00    -0.003 A 
HETATM   28  C   UNL     1      41.250 -11.425   5.832  1.00  0.00     0.053 A 
HETATM   29  C   UNL     1      41.140 -10.250   6.546  1.00  0.00     0.106 A 
HETATM   30  C   UNL     1      40.206 -10.091   7.542  1.00  0.00     0.105 A 
HETATM   31  O   UNL     1      41.908  -9.139   6.375  1.00  0.00    -0.323 OA
HETATM   32  O   UNL     1      40.267  -8.863   8.122  1.00  0.00    -0.323 OA
HETATM   33  C   UNL     1      39.328 -11.097   7.876  1.00  0.00     0.040 A 
HETATM   34  C   UNL     1      41.349  -8.266   7.377  1.00  0.00     0.352 A 
HETATM   35  C   UNL     1      39.417 -12.302   7.167  1.00  0.00     0.017 A 
ENDBRANCH  25  27
ENDBRANCH   2  21
TORSDOF 9
ENDMDL
MODEL 6
REMARK VINA RESULT:      -7.8      4.600      8.768
REMARK  9 active torsions:
REMARK  status: ('A' for Active; 'I' for Inactive)
REMARK       I    between atoms: C_2  and  N_3 
REMARK    1  A    between atoms: N_3  and  C_4 
REMARK    2  A    between atoms: C_6  and  O_7 
REMARK    3  A    between atoms: O_7  and  C_8 
REMARK    4  A    between atoms: C_8  and  C_9 
REMARK    5  A    between atoms: C_9  and  C_10 
REMARK    6  A    between atoms: C_10  and  C_11 
REMARK    7  A    between atoms: C_11  and  N_12 
REMARK       I    between atoms: N_12  and  C_13 
REMARK    8  A    between atoms: C_13  and  C_14 
REMARK    9  A    between atoms: C_18  and  C_19 
ROOT
HETATM    1  N   UNL     1      43.801 -13.749   5.104  1.00  0.00    -0.345 N 
HETATM    2  C   UNL     1      42.532 -13.243   5.005  1.00  0.00     0.270 C 
HETATM    3  O   UNL     1      41.824 -13.032   5.983  1.00  0.00    -0.266 OA
HETATM    4  H   UNL     1      44.307 -14.005   4.271  1.00  0.00     0.163 HD
ENDROOT
BRANCH   1   5
HETATM    5  C   UNL     1      44.379 -14.102   6.375  1.00  0.00     0.217 C 
BRANCH   5   6
HETATM    6  C   UNL     1      44.264 -15.607   6.544  1.00  0.00    -0.085 C 
BRANCH   6   7
HETATM    7  C   UNL     1      44.167 -16.900   6.689  1.00  0.00    -0.078 C 
BRANCH   7   8
HETATM    8  C   UNL     1      44.005 -18.350   6.870  1.00  0.00     0.269 C 
BRANCH   8   9
HETATM    9  O   UNL     1      44.936 -19.034   6.031  1.00  0.00    -0.339 OA
BRANCH   9  10
HETATM   10  C   UNL     1      44.496 -19.386   4.783  1.00  0.00     0.072 A 
HETATM   11  C   UNL     1      43.589 -18.666   3.997  1.00  0.00     0.066 A 
HETATM   12  C   UNL     1      43.219 -19.128   2.730  1.00  0.00     0.037 A 
HETATM   13  C   UNL     1      43.763 -20.328   2.257  1.00  0.00     0.029 A 
HETATM   14  C   UNL     1      44.666 -21.053   3.036  1.00  0.00     0.005 A 
HETATM   15  C   UNL     1      45.029 -20.580   4.296  1.00  0.00     0.037 A 
BRANCH  12  16
HETATM   16  N   UNL     1      42.314 -18.455   1.880  1.00  0.00    -0.327 N 
HETATM   17  C   UNL     1      42.527 -17.279   1.181  1.00  0.00     0.218 C 
HETATM   18  C   UNL     1      41.325 -16.864   0.368  1.00  0.00     0.117 C 
HETATM   19  O   UNL     1      43.556 -16.613   1.155  1.00  0.00    -0.274 OA
HETATM   20  H   UNL     1      41.411 -18.896   1.763  1.00  0.00     0.169 HD
ENDBRANCH  12  16
ENDBRANCH   9  10
ENDBRANCH   8   9
ENDBRANCH   7   8
ENDBRANCH   6   7
ENDBRANCH   5   6
ENDBRANCH   1   5
BRANCH   2  21
HETATM   21  C   UNL     1      42.086 -12.979   3.663  1.00  0.00     0.120 A 
HETATM   22  N   UNL     1      41.779 -11.716   3.243  1.00  0.00    -0.272 N 
HETATM   23  H   UNL     1      41.829 -10.864   3.793  1.00  0.00     0.189 HD
HETATM   24  N   UNL     1      41.371 -11.643   1.968  1.00  0.00    -0.174 NA
HETATM   25  C   UNL     1      41.424 -12.906   1.518  1.00  0.00     0.089 A 
HETATM   26  C   UNL     1      41.869 -13.775   2.555  1.00  0.00     0.071 A 
BRANCH  25  27
HETATM   27  C   UNL     1      41.047 -13.252   0.141  1.00  0.00    -0.003 A 
HETATM   28  C   UNL     1      39.708 -13.542  -0.172  1.00  0.00     0.053 A 
HETATM   29  C   UNL     1      39.394 -13.877  -1.473  1.00  0.00     0.106 A 
HETATM   30  C   UNL     1      40.349 -13.931  -2.459  1.00  0.00     0.105 A 
HETATM   31  O   UNL     1      38.153 -14.189  -1.937  1.00  0.00    -0.323 OA
HETATM   32  O   UNL     1      39.832 -14.283  -3.666  1.00  0.00    -0.323 OA
HETATM   33  C   UNL     1      41.671 -13.650  -2.200  1.00  0.00     0.040 A 
HETATM   34  C   UNL     1      38.439 -14.445  -3.327  1.00  0.00     0.352 A 
HETATM   35  C   UNL     1      42.020 -13.308  -0.887  1.00  0.00     0.017 A 
ENDBRANCH  25  27
ENDBRANCH   2  21
TORSDOF 9
ENDMDL
MODEL 7
REMARK VINA RESULT:      -7.6      3.677      7.203
REMARK  9 active torsions:
REMARK  status: ('A' for Active; 'I' for Inactive)
REMARK       I    between atoms: C_2  and  N_3 
REMARK    1  A    between atoms: N_3  and  C_4 
REMARK    2  A    between atoms: C_6  and  O_7 
REMARK    3  A    between atoms: O_7  and  C_8 
REMARK    4  A    between atoms: C_8  and  C_9 
REMARK    5  A    between atoms: C_9  and  C_10 
REMARK    6  A    between atoms: C_10  and  C_11 
REMARK    7  A    between atoms: C_11  and  N_12 
REMARK       I    between atoms: N_12  and  C_13 
REMARK    8  A    between atoms: C_13  and  C_14 
REMARK    9  A    between atoms: C_18  and  C_19 
ROOT
HETATM    1  N   UNL     1      40.151 -13.135   5.589  1.00  0.00    -0.345 N 
HETATM    2  C   UNL     1      41.480 -12.895   5.822  1.00  0.00     0.270 C 
HETATM    3  O   UNL     1      41.955 -11.765   5.846  1.00  0.00    -0.266 OA
HETATM    4  H   UNL     1      39.824 -14.082   5.474  1.00  0.00     0.163 HD
ENDROOT
BRANCH   1   5
HETATM    5  C   UNL     1      39.224 -12.067   5.319  1.00  0.00     0.217 C 
BRANCH   5   6
HETATM    6  C   UNL     1      38.929 -12.064   3.828  1.00  0.00    -0.085 C 
BRANCH   6   7
HETATM    7  C   UNL     1      38.674 -12.062   2.549  1.00  0.00    -0.078 C 
BRANCH   7   8
HETATM    8  C   UNL     1      38.356 -12.015   1.115  1.00  0.00     0.269 C 
BRANCH   8   9
HETATM    9  O   UNL     1      38.061 -13.334   0.656  1.00  0.00    -0.339 OA
BRANCH   9  10
HETATM   10  C   UNL     1      39.040 -13.970  -0.059  1.00  0.00     0.072 A 
HETATM   11  C   UNL     1      40.147 -14.639   0.476  1.00  0.00     0.066 A 
HETATM   12  C   UNL     1      41.081 -15.258  -0.362  1.00  0.00     0.037 A 
HETATM   13  C   UNL     1      40.900 -15.194  -1.748  1.00  0.00     0.029 A 
HETATM   14  C   UNL     1      39.801 -14.526  -2.289  1.00  0.00     0.005 A 
HETATM   15  C   UNL     1      38.876 -13.916  -1.444  1.00  0.00     0.037 A 
BRANCH  12  16
HETATM   16  N   UNL     1      42.218 -15.953   0.105  1.00  0.00    -0.327 N 
HETATM   17  C   UNL     1      42.248 -17.127   0.839  1.00  0.00     0.218 C 
HETATM   18  C   UNL     1      43.654 -17.576   1.154  1.00  0.00     0.117 C 
HETATM   19  O   UNL     1      41.285 -17.795   1.201  1.00  0.00    -0.274 OA
HETATM   20  H   UNL     1      43.112 -15.547  -0.139  1.00  0.00     0.169 HD
ENDBRANCH  12  16
ENDBRANCH   9  10
ENDBRANCH   8   9
ENDBRANCH   7   8
ENDBRANCH   6   7
ENDBRANCH   5   6
ENDBRANCH   1   5
BRANCH   2  21
HETATM   21  C   UNL     1      42.281 -14.070   6.035  1.00  0.00     0.120 A 
HETATM   22  N   UNL     1      43.519 -14.001   6.610  1.00  0.00    -0.272 N 
HETATM   23  H   UNL     1      43.991 -13.164   6.938  1.00  0.00     0.189 HD
HETATM   24  N   UNL     1      44.139 -15.184   6.728  1.00  0.00    -0.174 NA
HETATM   25  C   UNL     1      43.271 -16.077   6.227  1.00  0.00     0.089 A 
HETATM   26  C   UNL     1      42.092 -15.414   5.781  1.00  0.00     0.071 A 
BRANCH  25  27
HETATM   27  C   UNL     1      43.582 -17.511   6.175  1.00  0.00    -0.003 A 
HETATM   28  C   UNL     1      44.028 -18.093   4.976  1.00  0.00     0.053 A 
HETATM   29  C   UNL     1      44.298 -19.447   4.961  1.00  0.00     0.106 A 
HETATM   30  C   UNL     1      44.144 -20.229   6.080  1.00  0.00     0.105 A 
HETATM   31  O   UNL     1      44.728 -20.161   3.885  1.00  0.00    -0.323 OA
HETATM   32  O   UNL     1      44.458 -21.532   5.851  1.00  0.00    -0.323 OA
HETATM   33  C   UNL     1      43.716 -19.702   7.277  1.00  0.00     0.040 A 
HETATM   34  C   UNL     1      44.827 -21.480   4.457  1.00  0.00     0.352 A 
HETATM   35  C   UNL     1      43.434 -18.330   7.321  1.00  0.00     0.017 A 
ENDBRANCH  25  27
ENDBRANCH   2  21
TORSDOF 9
ENDMDL
MODEL 8
REMARK VINA RESULT:      -7.5      3.791      5.132
REMARK  9 active torsions:
REMARK  status: ('A' for Active; 'I' for Inactive)
REMARK       I    between atoms: C_2  and  N_3 
REMARK    1  A    between atoms: N_3  and  C_4 
REMARK    2  A    between atoms: C_6  and  O_7 
REMARK    3  A    between atoms: O_7  and  C_8 
REMARK    4  A    between atoms: C_8  and  C_9 
REMARK    5  A    between atoms: C_9  and  C_10 
REMARK    6  A    between atoms: C_10  and  C_11 
REMARK    7  A    between atoms: C_11  and  N_12 
REMARK       I    between atoms: N_12  and  C_13 
REMARK    8  A    between atoms: C_13  and  C_14 
REMARK    9  A    between atoms: C_18  and  C_19 
ROOT
HETATM    1  N   UNL     1      41.940 -13.858   0.454  1.00  0.00    -0.345 N 
HETATM    2  C   UNL     1      41.303 -15.043   0.714  1.00  0.00     0.270 C 
HETATM    3  O   UNL     1      40.127 -15.241   0.429  1.00  0.00    -0.266 OA
HETATM    4  H   UNL     1      42.874 -13.702   0.800  1.00  0.00     0.163 HD
ENDROOT
BRANCH   1   5
HETATM    5  C   UNL     1      41.252 -12.744  -0.144  1.00  0.00     0.217 C 
BRANCH   5   6
HETATM    6  C   UNL     1      40.982 -11.716   0.942  1.00  0.00    -0.085 C 
BRANCH   6   7
HETATM    7  C   UNL     1      40.751 -10.834   1.874  1.00  0.00    -0.078 C 
BRANCH   7   8
HETATM    8  C   UNL     1      40.468  -9.807   2.887  1.00  0.00     0.269 C 
BRANCH   8   9
HETATM    9  O   UNL     1      41.232 -10.083   4.061  1.00  0.00    -0.339 OA
BRANCH   9  10
HETATM   10  C   UNL     1      40.892 -11.205   4.768  1.00  0.00     0.072 A 
HETATM   11  C   UNL     1      41.737 -12.282   5.058  1.00  0.00     0.066 A 
HETATM   12  C   UNL     1      41.273 -13.376   5.797  1.00  0.00     0.037 A 
HETATM   13  C   UNL     1      39.945 -13.384   6.239  1.00  0.00     0.029 A 
HETATM   14  C   UNL     1      39.095 -12.315   5.951  1.00  0.00     0.005 A 
HETATM   15  C   UNL     1      39.571 -11.231   5.217  1.00  0.00     0.037 A 
BRANCH  12  16
HETATM   16  N   UNL     1      42.068 -14.495   6.130  1.00  0.00    -0.327 N 
HETATM   17  C   UNL     1      42.014 -15.764   5.580  1.00  0.00     0.218 C 
HETATM   18  C   UNL     1      43.027 -16.702   6.189  1.00  0.00     0.117 C 
HETATM   19  O   UNL     1      41.274 -16.146   4.680  1.00  0.00    -0.274 OA
HETATM   20  H   UNL     1      42.765 -14.340   6.847  1.00  0.00     0.169 HD
ENDBRANCH  12  16
ENDBRANCH   9  10
ENDBRANCH   8   9
ENDBRANCH   7   8
ENDBRANCH   6   7
ENDBRANCH   5   6
ENDBRANCH   1   5
BRANCH   2  21
HETATM   21  C   UNL     1      42.117 -16.043   1.351  1.00  0.00     0.120 A 
HETATM   22  N   UNL     1      43.217 -15.710   2.092  1.00  0.00    -0.272 N 
HETATM   23  H   UNL     1      43.567 -14.774   2.272  1.00  0.00     0.189 HD
HETATM   24  N   UNL     1      43.871 -16.759   2.610  1.00  0.00    -0.174 NA
HETATM   25  C   UNL     1      43.169 -17.832   2.211  1.00  0.00     0.089 A 
HETATM   26  C   UNL     1      42.060 -17.422   1.419  1.00  0.00     0.071 A 
BRANCH  25  27
HETATM   27  C   UNL     1      43.569 -19.196   2.579  1.00  0.00    -0.003 A 
HETATM   28  C   UNL     1      44.022 -19.472   3.880  1.00  0.00     0.053 A 
HETATM   29  C   UNL     1      44.402 -20.763   4.186  1.00  0.00     0.106 A 
HETATM   30  C   UNL     1      44.346 -21.775   3.257  1.00  0.00     0.105 A 
HETATM   31  O   UNL     1      44.867 -21.192   5.391  1.00  0.00    -0.323 OA
HETATM   32  O   UNL     1      44.767 -22.966   3.759  1.00  0.00    -0.323 OA
HETATM   33  C   UNL     1      43.904 -21.553   1.973  1.00  0.00     0.040 A 
HETATM   34  C   UNL     1      45.096 -22.588   5.112  1.00  0.00     0.352 A 
HETATM   35  C   UNL     1      43.512 -20.250   1.634  1.00  0.00     0.017 A 
ENDBRANCH  25  27
ENDBRANCH   2  21
TORSDOF 9
ENDMDL
MODEL 9
REMARK VINA RESULT:      -7.5      3.458      6.778
REMARK  9 active torsions:
REMARK  status: ('A' for Active; 'I' for Inactive)
REMARK       I    between atoms: C_2  and  N_3 
REMARK    1  A    between atoms: N_3  and  C_4 
REMARK    2  A    between atoms: C_6  and  O_7 
REMARK    3  A    between atoms: O_7  and  C_8 
REMARK    4  A    between atoms: C_8  and  C_9 
REMARK    5  A    between atoms: C_9  and  C_10 
REMARK    6  A    between atoms: C_10  and  C_11 
REMARK    7  A    between atoms: C_11  and  N_12 
REMARK       I    between atoms: N_12  and  C_13 
REMARK    8  A    between atoms: C_13  and  C_14 
REMARK    9  A    between atoms: C_18  and  C_19 
ROOT
HETATM    1  N   UNL     1      41.028 -14.412   6.030  1.00  0.00    -0.345 N 
HETATM    2  C   UNL     1      42.397 -14.351   6.045  1.00  0.00     0.270 C 
HETATM    3  O   UNL     1      43.012 -13.297   6.160  1.00  0.00    -0.266 OA
HETATM    4  H   UNL     1      40.566 -15.285   5.828  1.00  0.00     0.163 HD
ENDROOT
BRANCH   1   5
HETATM    5  C   UNL     1      40.216 -13.227   6.113  1.00  0.00     0.217 C 
BRANCH   5   6
HETATM    6  C   UNL     1      40.146 -12.603   4.730  1.00  0.00    -0.085 C 
BRANCH   6   7
HETATM    7  C   UNL     1      40.086 -12.068   3.542  1.00  0.00    -0.078 C 
BRANCH   7   8
HETATM    8  C   UNL     1      40.001 -11.417   2.227  1.00  0.00     0.269 C 
BRANCH   8   9
HETATM    9  O   UNL     1      39.083 -12.137   1.405  1.00  0.00    -0.339 OA
BRANCH   9  10
HETATM   10  C   UNL     1      39.617 -13.074   0.560  1.00  0.00     0.072 A 
HETATM   11  C   UNL     1      40.714 -13.898   0.835  1.00  0.00     0.066 A 
HETATM   12  C   UNL     1      41.166 -14.825  -0.111  1.00  0.00     0.037 A 
HETATM   13  C   UNL     1      40.509 -14.914  -1.344  1.00  0.00     0.029 A 
HETATM   14  C   UNL     1      39.417 -14.093  -1.626  1.00  0.00     0.005 A 
HETATM   15  C   UNL     1      38.975 -13.176  -0.674  1.00  0.00     0.037 A 
BRANCH  12  16
HETATM   16  N   UNL     1      42.262 -15.691   0.097  1.00  0.00    -0.327 N 
HETATM   17  C   UNL     1      42.247 -16.949   0.673  1.00  0.00     0.218 C 
HETATM   18  C   UNL     1      43.616 -17.580   0.720  1.00  0.00     0.117 C 
HETATM   19  O   UNL     1      41.267 -17.556   1.092  1.00  0.00    -0.274 OA
HETATM   20  H   UNL     1      43.158 -15.350  -0.227  1.00  0.00     0.169 HD
ENDBRANCH  12  16
ENDBRANCH   9  10
ENDBRANCH   8   9
ENDBRANCH   7   8
ENDBRANCH   6   7
ENDBRANCH   5   6
ENDBRANCH   1   5
BRANCH   2  21
HETATM   21  C   UNL     1      43.064 -15.618   5.912  1.00  0.00     0.120 A 
HETATM   22  N   UNL     1      44.135 -15.952   6.691  1.00  0.00    -0.272 N 
HETATM   23  H   UNL     1      44.561 -15.381   7.415  1.00  0.00     0.189 HD
HETATM   24  N   UNL     1      44.647 -17.165   6.436  1.00  0.00    -0.174 NA
HETATM   25  C   UNL     1      43.874 -17.664   5.458  1.00  0.00     0.089 A 
HETATM   26  C   UNL     1      42.868 -16.721   5.103  1.00  0.00     0.071 A 
BRANCH  25  27
HETATM   27  C   UNL     1      44.113 -18.996   4.889  1.00  0.00    -0.003 A 
HETATM   28  C   UNL     1      43.946 -19.215   3.510  1.00  0.00     0.053 A 
HETATM   29  C   UNL     1      44.165 -20.483   3.013  1.00  0.00     0.106 A 
HETATM   30  C   UNL     1      44.540 -21.526   3.826  1.00  0.00     0.105 A 
HETATM   31  O   UNL     1      44.041 -20.860   1.712  1.00  0.00    -0.323 OA
HETATM   32  O   UNL     1      44.701 -22.688   3.140  1.00  0.00    -0.323 OA
HETATM   33  C   UNL     1      44.722 -21.357   5.180  1.00  0.00     0.040 A 
HETATM   34  C   UNL     1      44.382 -22.258   1.800  1.00  0.00     0.352 A 
HETATM   35  C   UNL     1      44.505 -20.079   5.713  1.00  0.00     0.017 A 
ENDBRANCH  25  27
ENDBRANCH   2  21
TORSDOF 9
ENDMDL
MODEL 10
REMARK VINA RESULT:      -7.5      5.948      8.541
REMARK  9 active torsions:
REMARK  status: ('A' for Active; 'I' for Inactive)
REMARK       I    between atoms: C_2  and  N_3 
REMARK    1  A    between atoms: N_3  and  C_4 
REMARK    2  A    between atoms: C_6  and  O_7 
REMARK    3  A    between atoms: O_7  and  C_8 
REMARK    4  A    between atoms: C_8  and  C_9 
REMARK    5  A    between atoms: C_9  and  C_10 
REMARK    6  A    between atoms: C_10  and  C_11 
REMARK    7  A    between atoms: C_11  and  N_12 
REMARK       I    between atoms: N_12  and  C_13 
REMARK    8  A    between atoms: C_13  and  C_14 
REMARK    9  A    between atoms: C_18  and  C_19 
ROOT
HETATM    1  N   UNL     1      39.639 -12.752   1.137  1.00  0.00    -0.345 N 
HETATM    2  C   UNL     1      39.610 -13.334   2.376  1.00  0.00     0.270 C 
HETATM    3  O   UNL     1      39.185 -12.756   3.370  1.00  0.00    -0.266 OA
HETATM    4  H   UNL     1      40.093 -13.223   0.370  1.00  0.00     0.163 HD
ENDROOT
BRANCH   1   5
HETATM    5  C   UNL     1      39.202 -11.397   0.926  1.00  0.00     0.217 C 
BRANCH   5   6
HETATM    6  C   UNL     1      40.425 -10.546   0.629  1.00  0.00    -0.085 C 
BRANCH   6   7
HETATM    7  C   UNL     1      41.475  -9.816   0.374  1.00  0.00    -0.078 C 
BRANCH   7   8
HETATM    8  C   UNL     1      42.691  -9.036   0.098  1.00  0.00     0.269 C 
BRANCH   8   9
HETATM    9  O   UNL     1      43.633  -9.862  -0.585  1.00  0.00    -0.339 OA
BRANCH   9  10
HETATM   10  C   UNL     1      43.181 -10.526  -1.694  1.00  0.00     0.072 A 
HETATM   11  C   UNL     1      42.868 -11.888  -1.767  1.00  0.00     0.066 A 
HETATM   12  C   UNL     1      42.408 -12.452  -2.962  1.00  0.00     0.037 A 
HETATM   13  C   UNL     1      42.269 -11.636  -4.091  1.00  0.00     0.029 A 
HETATM   14  C   UNL     1      42.582 -10.277  -4.026  1.00  0.00     0.005 A 
HETATM   15  C   UNL     1      43.036  -9.727  -2.829  1.00  0.00     0.037 A 
BRANCH  12  16
HETATM   16  N   UNL     1      42.069 -13.815  -3.110  1.00  0.00    -0.327 N 
HETATM   17  C   UNL     1      41.044 -14.503  -2.485  1.00  0.00     0.218 C 
HETATM   18  C   UNL     1      40.986 -15.954  -2.897  1.00  0.00     0.117 C 
HETATM   19  O   UNL     1      40.220 -14.046  -1.699  1.00  0.00    -0.274 OA
HETATM   20  H   UNL     1      42.640 -14.341  -3.759  1.00  0.00     0.169 HD
ENDBRANCH  12  16
ENDBRANCH   9  10
ENDBRANCH   8   9
ENDBRANCH   7   8
ENDBRANCH   6   7
ENDBRANCH   5   6
ENDBRANCH   1   5
BRANCH   2  21
HETATM   21  C   UNL     1      40.119 -14.678   2.428  1.00  0.00     0.120 A 
HETATM   22  N   UNL     1      39.390 -15.741   1.974  1.00  0.00    -0.272 N 
HETATM   23  H   UNL     1      38.460 -15.710   1.567  1.00  0.00     0.189 HD
HETATM   24  N   UNL     1      40.003 -16.926   2.102  1.00  0.00    -0.174 NA
HETATM   25  C   UNL     1      41.194 -16.638   2.650  1.00  0.00     0.089 A 
HETATM   26  C   UNL     1      41.304 -15.235   2.869  1.00  0.00     0.071 A 
BRANCH  25  27
HETATM   27  C   UNL     1      42.178 -17.685   2.954  1.00  0.00    -0.003 A 
HETATM   28  C   UNL     1      42.422 -18.714   2.029  1.00  0.00     0.053 A 
HETATM   29  C   UNL     1      43.343 -19.689   2.355  1.00  0.00     0.106 A 
HETATM   30  C   UNL     1      44.021 -19.675   3.550  1.00  0.00     0.105 A 
HETATM   31  O   UNL     1      43.687 -20.751   1.577  1.00  0.00    -0.323 OA
HETATM   32  O   UNL     1      44.877 -20.723   3.675  1.00  0.00    -0.323 OA
HETATM   33  C   UNL     1      43.820 -18.683   4.483  1.00  0.00     0.040 A 
HETATM   34  C   UNL     1      44.659 -21.401   2.420  1.00  0.00     0.352 A 
HETATM   35  C   UNL     1      42.889 -17.680   4.179  1.00  0.00     0.017 A 
ENDBRANCH  25  27
ENDBRANCH   2  21
TORSDOF 9
ENDMDL
