MODEL 1
REMARK VINA RESULT:      -7.8      0.000      0.000
REMARK  11 active torsions:
REMARK  status: ('A' for Active; 'I' for Inactive)
REMARK    1  A    between atoms: C_3  and  C_4 
REMARK    2  A    between atoms: C_4  and  O_5 
REMARK    3  A    between atoms: C_12  and  C_13 
REMARK    4  A    between atoms: C_13  and  C_14 
REMARK    5  A    between atoms: C_15  and  C_16 
REMARK    6  A    between atoms: C_18  and  N_19 
REMARK    7  A    between atoms: N_25  and  C_26 
REMARK    8  A    between atoms: C_26  and  C_27 
REMARK    9  A    between atoms: C_27  and  C_28 
REMARK   10  A    between atoms: C_28  and  N_29 
REMARK   11  A    between atoms: C_38  and  O_39 
ROOT
HETATM    1  C   UNL     1      40.622 -15.078   2.717  1.00  0.00     0.059 C 
HETATM    2  C   UNL     1      41.052 -14.176   1.585  1.00  0.00     0.161 C 
HETATM    3  N   UNL     1      40.917 -12.859   2.189  1.00  0.00    -0.333 N 
HETATM    4  C   UNL     1      40.550 -12.961   3.514  1.00  0.00     0.278 C 
HETATM    5  O   UNL     1      40.556 -12.041   4.318  1.00  0.00    -0.265 OA
HETATM    6  C   UNL     1      40.219 -14.380   3.790  1.00  0.00     0.146 C 
ENDROOT
BRANCH   1   7
HETATM    7  C   UNL     1      40.738 -16.535   2.460  1.00  0.00     0.196 C 
HETATM    8  O   UNL     1      39.844 -17.122   1.861  1.00  0.00    -0.287 OA
BRANCH   7   9
HETATM    9  C   UNL     1      41.933 -17.233   2.927  1.00  0.00     0.045 A 
HETATM   10  C   UNL     1      42.090 -17.836   4.229  1.00  0.00    -0.013 A 
HETATM   11  C   UNL     1      41.085 -17.794   5.336  1.00  0.00     0.052 C 
HETATM   12  C   UNL     1      43.314 -18.499   4.242  1.00  0.00     0.115 A 
HETATM   13  N   UNL     1      43.907 -18.263   3.024  1.00  0.00    -0.354 N 
HETATM   14  H   UNL     1      44.809 -18.652   2.766  1.00  0.00     0.166 HD
HETATM   15  C   UNL     1      43.062 -17.572   2.191  1.00  0.00     0.020 A 
HETATM   16  C   UNL     1      43.439 -17.372   0.764  1.00  0.00     0.069 C 
BRANCH  12  17
HETATM   17  C   UNL     1      43.976 -19.336   5.222  1.00  0.00     0.310 C 
HETATM   18  O   UNL     1      43.759 -19.273   6.425  1.00  0.00    -0.258 OA
BRANCH  17  19
HETATM   19  O   UNL     1      44.887 -20.153   4.632  1.00  0.00    -0.321 OA
HETATM   20  C   UNL     1      44.806 -21.516   5.048  1.00  0.00     0.213 C 
ENDBRANCH  17  19
ENDBRANCH  12  17
ENDBRANCH   7   9
ENDBRANCH   1   7
BRANCH   2  21
HETATM   21  C   UNL     1      40.229 -14.256   0.309  1.00  0.00    -0.028 A 
HETATM   22  C   UNL     1      40.752 -14.780  -0.887  1.00  0.00     0.045 A 
HETATM   23  C   UNL     1      39.962 -14.811  -2.049  1.00  0.00     0.103 A 
HETATM   24  C   UNL     1      38.643 -14.347  -2.030  1.00  0.00     0.036 A 
HETATM   25  C   UNL     1      38.114 -13.845  -0.843  1.00  0.00     0.003 A 
HETATM   26  C   UNL     1      38.899 -13.799   0.313  1.00  0.00     0.010 A 
BRANCH  23  27
HETATM   27  N   UNL     1      40.532 -15.341  -3.295  1.00  0.00    -0.116 N 
HETATM   28  O   UNL     1      39.748 -15.563  -4.229  1.00  0.00    -0.532 OA
HETATM   29  O   UNL     1      41.756 -15.512  -3.346  1.00  0.00    -0.532 OA
ENDBRANCH  23  27
ENDBRANCH   2  21
BRANCH   6  30
HETATM   30  O   UNL     1      39.684 -14.769   4.978  1.00  0.00    -0.355 OA
HETATM   31  H   UNL     1      40.364 -14.771   5.675  1.00  0.00     0.218 HD
ENDBRANCH   6  30
BRANCH   3  32
HETATM   32  C   UNL     1      41.563 -11.685   1.629  1.00  0.00     0.129 C 
BRANCH  32  33
HETATM   33  C   UNL     1      40.611 -10.697   0.946  1.00  0.00     0.048 C 
BRANCH  33  34
HETATM   34  C   UNL     1      41.059 -10.046  -0.368  1.00  0.00     0.236 C 
BRANCH  34  35
HETATM   35  N   UNL     1      41.180 -11.005  -1.518  1.00  0.00    -0.067 N 
HETATM   36  H   UNL     1      40.843 -11.921  -1.156  1.00  0.00     0.280 HD
HETATM   37  C   UNL     1      40.424 -10.621  -2.777  1.00  0.00     0.261 C 
HETATM   38  C   UNL     1      40.600 -11.709  -3.842  1.00  0.00     0.195 C 
HETATM   39  O   UNL     1      41.983 -11.928  -4.132  1.00  0.00    -0.388 OA
HETATM   40  C   UNL     1      42.702 -12.357  -2.968  1.00  0.00     0.195 C 
HETATM   41  C   UNL     1      42.642 -11.292  -1.866  1.00  0.00     0.261 C 
ENDBRANCH  34  35
ENDBRANCH  33  34
ENDBRANCH  32  33
ENDBRANCH   3  32
TORSDOF 11
ENDMDL
MODEL 2
REMARK VINA RESULT:      -7.8      3.142      5.671
REMARK  11 active torsions:
REMARK  status: ('A' for Active; 'I' for Inactive)
REMARK    1  A    between atoms: C_3  and  C_4 
REMARK    2  A    between atoms: C_4  and  O_5 
REMARK    3  A    between atoms: C_12  and  C_13 
REMARK    4  A    between atoms: C_13  and  C_14 
REMARK    5  A    between atoms: C_15  and  C_16 
REMARK    6  A    between atoms: C_18  and  N_19 
REMARK    7  A    between atoms: N_25  and  C_26 
REMARK    8  A    between atoms: C_26  and  C_27 
REMARK    9  A    between atoms: C_27  and  C_28 
REMARK   10  A    between atoms: C_28  and  N_29 
REMARK   11  A    between atoms: C_38  and  O_39 
ROOT
HETATM    1  C   UNL     1      41.626 -13.793   4.680  1.00  0.00     0.059 C 
HETATM    2  C   UNL     1      41.255 -12.652   3.763  1.00  0.00     0.161 C 
HETATM    3  N   UNL     1      39.956 -12.260   4.288  1.00  0.00    -0.333 N 
HETATM    4  C   UNL     1      39.637 -12.995   5.409  1.00  0.00     0.278 C 
HETATM    5  O   UNL     1      38.712 -12.752   6.171  1.00  0.00    -0.265 OA
HETATM    6  C   UNL     1      40.647 -14.072   5.555  1.00  0.00     0.146 C 
ENDROOT
BRANCH   1   7
HETATM    7  C   UNL     1      42.976 -14.373   4.475  1.00  0.00     0.196 C 
HETATM    8  O   UNL     1      43.944 -13.633   4.338  1.00  0.00    -0.287 OA
BRANCH   7   9
HETATM    9  C   UNL     1      43.114 -15.826   4.450  1.00  0.00     0.045 A 
HETATM   10  C   UNL     1      43.125 -16.642   3.260  1.00  0.00    -0.013 A 
HETATM   11  C   UNL     1      42.932 -16.146   1.862  1.00  0.00     0.052 C 
HETATM   12  C   UNL     1      43.393 -17.952   3.648  1.00  0.00     0.115 A 
HETATM   13  N   UNL     1      43.486 -17.949   5.020  1.00  0.00    -0.354 N 
HETATM   14  H   UNL     1      43.696 -18.783   5.560  1.00  0.00     0.166 HD
HETATM   15  C   UNL     1      43.400 -16.671   5.516  1.00  0.00     0.020 A 
HETATM   16  C   UNL     1      43.658 -16.427   6.963  1.00  0.00     0.069 C 
BRANCH  12  17
HETATM   17  C   UNL     1      43.602 -19.181   2.909  1.00  0.00     0.310 C 
HETATM   18  O   UNL     1      42.927 -19.514   1.944  1.00  0.00    -0.258 OA
BRANCH  17  19
HETATM   19  O   UNL     1      44.603 -19.917   3.457  1.00  0.00    -0.321 OA
HETATM   20  C   UNL     1      44.592 -21.294   3.078  1.00  0.00     0.213 C 
ENDBRANCH  17  19
ENDBRANCH  12  17
ENDBRANCH   7   9
ENDBRANCH   1   7
BRANCH   2  21
HETATM   21  C   UNL     1      41.145 -12.985   2.283  1.00  0.00    -0.028 A 
HETATM   22  C   UNL     1      42.002 -12.418   1.322  1.00  0.00     0.045 A 
HETATM   23  C   UNL     1      41.848 -12.735  -0.037  1.00  0.00     0.103 A 
HETATM   24  C   UNL     1      40.860 -13.634  -0.455  1.00  0.00     0.036 A 
HETATM   25  C   UNL     1      40.021 -14.213   0.495  1.00  0.00     0.003 A 
HETATM   26  C   UNL     1      40.161 -13.891   1.848  1.00  0.00     0.010 A 
BRANCH  23  27
HETATM   27  N   UNL     1      42.738 -12.117  -1.029  1.00  0.00    -0.116 N 
HETATM   28  O   UNL     1      42.793 -12.644  -2.150  1.00  0.00    -0.532 OA
HETATM   29  O   UNL     1      43.358 -11.099  -0.696  1.00  0.00    -0.532 OA
ENDBRANCH  23  27
ENDBRANCH   2  21
BRANCH   6  30
HETATM   30  O   UNL     1      40.517 -15.051   6.490  1.00  0.00    -0.355 OA
HETATM   31  H   UNL     1      39.724 -14.899   7.035  1.00  0.00     0.218 HD
ENDBRANCH   6  30
BRANCH   3  32
HETATM   32  C   UNL     1      39.359 -10.972   3.982  1.00  0.00     0.129 C 
BRANCH  32  33
HETATM   33  C   UNL     1      40.055  -9.774   4.638  1.00  0.00     0.048 C 
BRANCH  33  34
HETATM   34  C   UNL     1      39.548  -9.297   6.004  1.00  0.00     0.236 C 
BRANCH  34  35
HETATM   35  N   UNL     1      40.140 -10.036   7.171  1.00  0.00    -0.067 N 
HETATM   36  H   UNL     1      40.112 -11.043   6.909  1.00  0.00     0.280 HD
HETATM   37  C   UNL     1      41.549  -9.628   7.561  1.00  0.00     0.261 C 
HETATM   38  C   UNL     1      42.037 -10.494   8.728  1.00  0.00     0.195 C 
HETATM   39  O   UNL     1      41.154 -10.393   9.849  1.00  0.00    -0.388 OA
HETATM   40  C   UNL     1      39.832 -10.839   9.518  1.00  0.00     0.195 C 
HETATM   41  C   UNL     1      39.230  -9.978   8.400  1.00  0.00     0.261 C 
ENDBRANCH  34  35
ENDBRANCH  33  34
ENDBRANCH  32  33
ENDBRANCH   3  32
TORSDOF 11
ENDMDL
MODEL 3
REMARK VINA RESULT:      -7.7      3.824      8.481
REMARK  11 active torsions:
REMARK  status: ('A' for Active; 'I' for Inactive)
REMARK    1  A    between atoms: C_3  and  C_4 
REMARK    2  A    between atoms: C_4  and  O_5 
REMARK    3  A    between atoms: C_12  and  C_13 
REMARK    4  A    between atoms: C_13  and  C_14 
REMARK    5  A    between atoms: C_15  and  C_16 
REMARK    6  A    between atoms: C_18  and  N_19 
REMARK    7  A    between atoms: N_25  and  C_26 
REMARK    8  A    between atoms: C_26  and  C_27 
REMARK    9  A    between atoms: C_27  and  C_28 
REMARK   10  A    between atoms: C_28  and  N_29 
REMARK   11  A    between atoms: C_38  and  O_39 
ROOT
HETATM    1  C   UNL     1      41.525 -13.178   3.005  1.00  0.00     0.059 C 
HETATM    2  C   UNL     1      40.862 -13.879   4.166  1.00  0.00     0.161 C 
HETATM    3  N   UNL     1      40.110 -12.794   4.777  1.00  0.00    -0.333 N 
HETATM    4  C   UNL     1      40.231 -11.636   4.039  1.00  0.00     0.278 C 
HETATM    5  O   UNL     1      39.559 -10.628   4.197  1.00  0.00    -0.265 OA
HETATM    6  C   UNL     1      41.260 -11.862   2.995  1.00  0.00     0.146 C 
ENDROOT
BRANCH   1   7
HETATM    7  C   UNL     1      42.311 -14.045   2.092  1.00  0.00     0.196 C 
HETATM    8  O   UNL     1      43.484 -14.293   2.346  1.00  0.00    -0.287 OA
BRANCH   7   9
HETATM    9  C   UNL     1      41.653 -14.589   0.908  1.00  0.00     0.045 A 
HETATM   10  C   UNL     1      41.606 -13.953  -0.387  1.00  0.00    -0.013 A 
HETATM   11  C   UNL     1      42.167 -12.606  -0.715  1.00  0.00     0.052 C 
HETATM   12  C   UNL     1      40.995 -14.837  -1.270  1.00  0.00     0.115 A 
HETATM   13  N   UNL     1      40.631 -15.943  -0.538  1.00  0.00    -0.354 N 
HETATM   14  H   UNL     1      40.178 -16.753  -0.951  1.00  0.00     0.166 HD
HETATM   15  C   UNL     1      41.086 -15.849   0.754  1.00  0.00     0.020 A 
HETATM   16  C   UNL     1      40.956 -17.020   1.665  1.00  0.00     0.069 C 
BRANCH  12  17
HETATM   17  C   UNL     1      40.740 -14.795  -2.696  1.00  0.00     0.310 C 
HETATM   18  O   UNL     1      41.448 -15.346  -3.528  1.00  0.00    -0.258 OA
BRANCH  17  19
HETATM   19  O   UNL     1      39.650 -14.034  -2.975  1.00  0.00    -0.321 OA
HETATM   20  C   UNL     1      38.505 -14.782  -3.388  1.00  0.00     0.213 C 
ENDBRANCH  17  19
ENDBRANCH  12  17
ENDBRANCH   7   9
ENDBRANCH   1   7
BRANCH   2  21
HETATM   21  C   UNL     1      41.790 -14.517   5.188  1.00  0.00    -0.028 A 
HETATM   22  C   UNL     1      42.897 -13.833   5.723  1.00  0.00     0.045 A 
HETATM   23  C   UNL     1      43.743 -14.470   6.646  1.00  0.00     0.103 A 
HETATM   24  C   UNL     1      43.486 -15.780   7.066  1.00  0.00     0.036 A 
HETATM   25  C   UNL     1      42.380 -16.455   6.553  1.00  0.00     0.003 A 
HETATM   26  C   UNL     1      41.543 -15.831   5.624  1.00  0.00     0.010 A 
BRANCH  23  27
HETATM   27  N   UNL     1      44.906 -13.748   7.178  1.00  0.00    -0.116 N 
HETATM   28  O   UNL     1      45.811 -13.463   6.381  1.00  0.00    -0.532 OA
HETATM   29  O   UNL     1      44.903 -13.450   8.379  1.00  0.00    -0.532 OA
ENDBRANCH  23  27
ENDBRANCH   2  21
BRANCH   6  30
HETATM   30  O   UNL     1      41.705 -10.852   2.200  1.00  0.00    -0.355 OA
HETATM   31  H   UNL     1      42.439 -10.378   2.630  1.00  0.00     0.218 HD
ENDBRANCH   6  30
BRANCH   3  32
HETATM   32  C   UNL     1      39.019 -13.039   5.703  1.00  0.00     0.129 C 
BRANCH  32  33
HETATM   33  C   UNL     1      39.364 -12.794   7.176  1.00  0.00     0.048 C 
BRANCH  33  34
HETATM   34  C   UNL     1      39.699 -11.363   7.616  1.00  0.00     0.236 C 
BRANCH  34  35
HETATM   35  N   UNL     1      40.760 -11.280   8.678  1.00  0.00    -0.067 N 
HETATM   36  H   UNL     1      40.924 -12.261   8.987  1.00  0.00     0.280 HD
HETATM   37  C   UNL     1      42.064 -10.631   8.254  1.00  0.00     0.261 C 
HETATM   38  C   UNL     1      43.061 -10.660   9.418  1.00  0.00     0.195 C 
HETATM   39  O   UNL     1      42.525 -10.007  10.573  1.00  0.00    -0.388 OA
HETATM   40  C   UNL     1      41.327 -10.648  11.029  1.00  0.00     0.195 C 
HETATM   41  C   UNL     1      40.239 -10.604   9.948  1.00  0.00     0.261 C 
ENDBRANCH  34  35
ENDBRANCH  33  34
ENDBRANCH  32  33
ENDBRANCH   3  32
TORSDOF 11
ENDMDL
MODEL 4
REMARK VINA RESULT:      -7.5      2.134      3.338
REMARK  11 active torsions:
REMARK  status: ('A' for Active; 'I' for Inactive)
REMARK    1  A    between atoms: C_3  and  C_4 
REMARK    2  A    between atoms: C_4  and  O_5 
REMARK    3  A    between atoms: C_12  and  C_13 
REMARK    4  A    between atoms: C_13  and  C_14 
REMARK    5  A    between atoms: C_15  and  C_16 
REMARK    6  A    between atoms: C_18  and  N_19 
REMARK    7  A    between atoms: N_25  and  C_26 
REMARK    8  A    between atoms: C_26  and  C_27 
REMARK    9  A    between atoms: C_27  and  C_28 
REMARK   10  A    between atoms: C_28  and  N_29 
REMARK   11  A    between atoms: C_38  and  O_39 
ROOT
HETATM    1  C   UNL     1      41.584 -14.035   4.781  1.00  0.00     0.059 C 
HETATM    2  C   UNL     1      41.391 -12.963   3.736  1.00  0.00     0.161 C 
HETATM    3  N   UNL     1      40.102 -12.406   4.119  1.00  0.00    -0.333 N 
HETATM    4  C   UNL     1      39.636 -12.994   5.275  1.00  0.00     0.278 C 
HETATM    5  O   UNL     1      38.688 -12.595   5.935  1.00  0.00    -0.265 OA
HETATM    6  C   UNL     1      40.524 -14.137   5.598  1.00  0.00     0.146 C 
ENDROOT
BRANCH   1   7
HETATM    7  C   UNL     1      42.883 -14.752   4.738  1.00  0.00     0.196 C 
HETATM    8  O   UNL     1      43.930 -14.124   4.842  1.00  0.00    -0.287 OA
BRANCH   7   9
HETATM    9  C   UNL     1      42.874 -16.203   4.580  1.00  0.00     0.045 A 
HETATM   10  C   UNL     1      43.238 -16.912   3.376  1.00  0.00    -0.013 A 
HETATM   11  C   UNL     1      43.623 -16.281   2.076  1.00  0.00     0.052 C 
HETATM   12  C   UNL     1      43.213 -18.274   3.664  1.00  0.00     0.115 A 
HETATM   13  N   UNL     1      42.796 -18.397   4.969  1.00  0.00    -0.354 N 
HETATM   14  H   UNL     1      42.709 -19.293   5.437  1.00  0.00     0.166 HD
HETATM   15  C   UNL     1      42.663 -17.165   5.561  1.00  0.00     0.020 A 
HETATM   16  C   UNL     1      42.396 -17.078   7.024  1.00  0.00     0.069 C 
BRANCH  12  17
HETATM   17  C   UNL     1      43.553 -19.456   2.897  1.00  0.00     0.310 C 
HETATM   18  O   UNL     1      42.951 -19.806   1.891  1.00  0.00    -0.258 OA
BRANCH  17  19
HETATM   19  O   UNL     1      44.586 -20.128   3.467  1.00  0.00    -0.321 OA
HETATM   20  C   UNL     1      44.603 -21.527   3.180  1.00  0.00     0.213 C 
ENDBRANCH  17  19
ENDBRANCH  12  17
ENDBRANCH   7   9
ENDBRANCH   1   7
BRANCH   2  21
HETATM   21  C   UNL     1      41.353 -13.430   2.289  1.00  0.00    -0.028 A 
HETATM   22  C   UNL     1      42.053 -12.762   1.268  1.00  0.00     0.045 A 
HETATM   23  C   UNL     1      41.968 -13.215  -0.059  1.00  0.00     0.103 A 
HETATM   24  C   UNL     1      41.211 -14.346  -0.382  1.00  0.00     0.036 A 
HETATM   25  C   UNL     1      40.532 -15.022   0.628  1.00  0.00     0.003 A 
HETATM   26  C   UNL     1      40.601 -14.569   1.949  1.00  0.00     0.010 A 
BRANCH  23  27
HETATM   27  N   UNL     1      42.688 -12.492  -1.116  1.00  0.00    -0.116 N 
HETATM   28  O   UNL     1      42.685 -12.992  -2.250  1.00  0.00    -0.532 OA
HETATM   29  O   UNL     1      43.232 -11.421  -0.818  1.00  0.00    -0.532 OA
ENDBRANCH  23  27
ENDBRANCH   2  21
BRANCH   6  30
HETATM   30  O   UNL     1      40.235 -15.003   6.607  1.00  0.00    -0.355 OA
HETATM   31  H   UNL     1      41.045 -15.439   6.925  1.00  0.00     0.218 HD
ENDBRANCH   6  30
BRANCH   3  32
HETATM   32  C   UNL     1      39.655 -11.106   3.649  1.00  0.00     0.129 C 
BRANCH  32  33
HETATM   33  C   UNL     1      38.573 -11.158   2.565  1.00  0.00     0.048 C 
BRANCH  33  34
HETATM   34  C   UNL     1      38.888 -10.547   1.194  1.00  0.00     0.236 C 
BRANCH  34  35
HETATM   35  N   UNL     1      38.880 -11.538   0.064  1.00  0.00    -0.067 N 
HETATM   36  H   UNL     1      39.740 -12.112   0.188  1.00  0.00     0.280 HD
HETATM   37  C   UNL     1      37.655 -12.429  -0.020  1.00  0.00     0.261 C 
HETATM   38  C   UNL     1      37.808 -13.416  -1.183  1.00  0.00     0.195 C 
HETATM   39  O   UNL     1      38.015 -12.726  -2.419  1.00  0.00    -0.388 OA
HETATM   40  C   UNL     1      39.206 -11.930  -2.383  1.00  0.00     0.195 C 
HETATM   41  C   UNL     1      39.114 -10.860  -1.287  1.00  0.00     0.261 C 
ENDBRANCH  34  35
ENDBRANCH  33  34
ENDBRANCH  32  33
ENDBRANCH   3  32
TORSDOF 11
ENDMDL
MODEL 5
REMARK VINA RESULT:      -7.5      3.095      5.527
REMARK  11 active torsions:
REMARK  status: ('A' for Active; 'I' for Inactive)
REMARK    1  A    between atoms: C_3  and  C_4 
REMARK    2  A    between atoms: C_4  and  O_5 
REMARK    3  A    between atoms: C_12  and  C_13 
REMARK    4  A    between atoms: C_13  and  C_14 
REMARK    5  A    between atoms: C_15  and  C_16 
REMARK    6  A    between atoms: C_18  and  N_19 
REMARK    7  A    between atoms: N_25  and  C_26 
REMARK    8  A    between atoms: C_26  and  C_27 
REMARK    9  A    between atoms: C_27  and  C_28 
REMARK   10  A    between atoms: C_28  and  N_29 
REMARK   11  A    between atoms: C_38  and  O_39 
ROOT
HETATM    1  C   UNL     1      41.879 -17.089   4.377  1.00  0.00     0.059 C 
HETATM    2  C   UNL     1      41.097 -16.557   3.200  1.00  0.00     0.161 C 
HETATM    3  N   UNL     1      41.622 -17.363   2.107  1.00  0.00    -0.333 N 
HETATM    4  C   UNL     1      42.517 -18.301   2.575  1.00  0.00     0.278 C 
HETATM    5  O   UNL     1      42.960 -19.236   1.924  1.00  0.00    -0.265 OA
HETATM    6  C   UNL     1      42.781 -18.011   4.005  1.00  0.00     0.146 C 
ENDROOT
BRANCH   1   7
HETATM    7  C   UNL     1      41.507 -16.534   5.702  1.00  0.00     0.196 C 
HETATM    8  O   UNL     1      40.596 -17.044   6.344  1.00  0.00    -0.287 OA
BRANCH   7   9
HETATM    9  C   UNL     1      42.255 -15.388   6.213  1.00  0.00     0.045 A 
HETATM   10  C   UNL     1      43.641 -15.411   6.616  1.00  0.00    -0.013 A 
HETATM   11  C   UNL     1      44.521 -16.620   6.640  1.00  0.00     0.052 C 
HETATM   12  C   UNL     1      44.012 -14.106   6.927  1.00  0.00     0.115 A 
HETATM   13  N   UNL     1      42.889 -13.327   6.776  1.00  0.00    -0.354 N 
HETATM   14  H   UNL     1      42.891 -12.323   6.925  1.00  0.00     0.166 HD
HETATM   15  C   UNL     1      41.844 -14.062   6.272  1.00  0.00     0.020 A 
HETATM   16  C   UNL     1      40.589 -13.371   5.864  1.00  0.00     0.069 C 
BRANCH  12  17
HETATM   17  C   UNL     1      45.270 -13.498   7.311  1.00  0.00     0.310 C 
HETATM   18  O   UNL     1      46.200 -13.319   6.535  1.00  0.00    -0.258 OA
BRANCH  17  19
HETATM   19  O   UNL     1      45.287 -13.204   8.636  1.00  0.00    -0.321 OA
HETATM   20  C   UNL     1      45.720 -11.877   8.935  1.00  0.00     0.213 C 
ENDBRANCH  17  19
ENDBRANCH  12  17
ENDBRANCH   7   9
ENDBRANCH   1   7
BRANCH   2  21
HETATM   21  C   UNL     1      41.268 -15.078   2.891  1.00  0.00    -0.028 A 
HETATM   22  C   UNL     1      40.170 -14.229   2.661  1.00  0.00     0.045 A 
HETATM   23  C   UNL     1      40.377 -12.874   2.354  1.00  0.00     0.103 A 
HETATM   24  C   UNL     1      41.669 -12.343   2.295  1.00  0.00     0.036 A 
HETATM   25  C   UNL     1      42.760 -13.175   2.540  1.00  0.00     0.003 A 
HETATM   26  C   UNL     1      42.561 -14.527   2.833  1.00  0.00     0.010 A 
BRANCH  23  27
HETATM   27  N   UNL     1      39.219 -12.007   2.096  1.00  0.00    -0.116 N 
HETATM   28  O   UNL     1      38.153 -12.559   1.789  1.00  0.00    -0.532 OA
HETATM   29  O   UNL     1      39.372 -10.785   2.222  1.00  0.00    -0.532 OA
ENDBRANCH  23  27
ENDBRANCH   2  21
BRANCH   6  30
HETATM   30  O   UNL     1      43.736 -18.681   4.705  1.00  0.00    -0.355 OA
HETATM   31  H   UNL     1      44.221 -18.071   5.290  1.00  0.00     0.218 HD
ENDBRANCH   6  30
BRANCH   3  32
HETATM   32  C   UNL     1      40.925 -17.487   0.840  1.00  0.00     0.129 C 
BRANCH  32  33
HETATM   33  C   UNL     1      41.586 -16.743  -0.327  1.00  0.00     0.048 C 
BRANCH  33  34
HETATM   34  C   UNL     1      41.105 -15.323  -0.647  1.00  0.00     0.236 C 
BRANCH  34  35
HETATM   35  N   UNL     1      39.936 -15.269  -1.591  1.00  0.00    -0.067 N 
HETATM   36  H   UNL     1      39.318 -16.062  -1.317  1.00  0.00     0.280 HD
HETATM   37  C   UNL     1      39.157 -13.967  -1.598  1.00  0.00     0.261 C 
HETATM   38  C   UNL     1      37.972 -14.075  -2.565  1.00  0.00     0.195 C 
HETATM   39  O   UNL     1      38.414 -14.406  -3.885  1.00  0.00    -0.388 OA
HETATM   40  C   UNL     1      39.094 -15.667  -3.910  1.00  0.00     0.195 C 
HETATM   41  C   UNL     1      40.343 -15.631  -3.020  1.00  0.00     0.261 C 
ENDBRANCH  34  35
ENDBRANCH  33  34
ENDBRANCH  32  33
ENDBRANCH   3  32
TORSDOF 11
ENDMDL
MODEL 6
REMARK VINA RESULT:      -7.5      3.124      5.658
REMARK  11 active torsions:
REMARK  status: ('A' for Active; 'I' for Inactive)
REMARK    1  A    between atoms: C_3  and  C_4 
REMARK    2  A    between atoms: C_4  and  O_5 
REMARK    3  A    between atoms: C_12  and  C_13 
REMARK    4  A    between atoms: C_13  and  C_14 
REMARK    5  A    between atoms: C_15  and  C_16 
REMARK    6  A    between atoms: C_18  and  N_19 
REMARK    7  A    between atoms: N_25  and  C_26 
REMARK    8  A    between atoms: C_26  and  C_27 
REMARK    9  A    between atoms: C_27  and  C_28 
REMARK   10  A    between atoms: C_28  and  N_29 
REMARK   11  A    between atoms: C_38  and  O_39 
ROOT
HETATM    1  C   UNL     1      40.957 -15.775   4.006  1.00  0.00     0.059 C 
HETATM    2  C   UNL     1      39.868 -14.890   3.448  1.00  0.00     0.161 C 
HETATM    3  N   UNL     1      39.812 -15.328   2.061  1.00  0.00    -0.333 N 
HETATM    4  C   UNL     1      40.674 -16.381   1.843  1.00  0.00     0.278 C 
HETATM    5  O   UNL     1      40.695 -17.077   0.839  1.00  0.00    -0.265 OA
HETATM    6  C   UNL     1      41.505 -16.553   3.059  1.00  0.00     0.146 C 
ENDROOT
BRANCH   1   7
HETATM    7  C   UNL     1      41.206 -15.651   5.464  1.00  0.00     0.196 C 
HETATM    8  O   UNL     1      40.272 -15.740   6.252  1.00  0.00    -0.287 OA
BRANCH   7   9
HETATM    9  C   UNL     1      42.575 -15.433   5.921  1.00  0.00     0.045 A 
HETATM   10  C   UNL     1      43.153 -14.149   6.239  1.00  0.00    -0.013 A 
HETATM   11  C   UNL     1      42.470 -12.826   6.093  1.00  0.00     0.052 C 
HETATM   12  C   UNL     1      44.429 -14.374   6.746  1.00  0.00     0.115 A 
HETATM   13  N   UNL     1      44.647 -15.730   6.688  1.00  0.00    -0.354 N 
HETATM   14  H   UNL     1      45.503 -16.166   7.018  1.00  0.00     0.166 HD
HETATM   15  C   UNL     1      43.519 -16.392   6.270  1.00  0.00     0.020 A 
HETATM   16  C   UNL     1      43.483 -17.881   6.311  1.00  0.00     0.069 C 
BRANCH  12  17
HETATM   17  C   UNL     1      45.444 -13.499   7.299  1.00  0.00     0.310 C 
HETATM   18  O   UNL     1      46.407 -13.092   6.663  1.00  0.00    -0.258 OA
BRANCH  17  19
HETATM   19  O   UNL     1      45.203 -13.237   8.610  1.00  0.00    -0.321 OA
HETATM   20  C   UNL     1      45.439 -11.881   8.988  1.00  0.00     0.213 C 
ENDBRANCH  17  19
ENDBRANCH  12  17
ENDBRANCH   7   9
ENDBRANCH   1   7
BRANCH   2  21
HETATM   21  C   UNL     1      40.117 -13.391   3.517  1.00  0.00    -0.028 A 
HETATM   22  C   UNL     1      39.324 -12.537   4.304  1.00  0.00     0.045 A 
HETATM   23  C   UNL     1      39.575 -11.154   4.317  1.00  0.00     0.103 A 
HETATM   24  C   UNL     1      40.625 -10.610   3.571  1.00  0.00     0.036 A 
HETATM   25  C   UNL     1      41.425 -11.455   2.804  1.00  0.00     0.003 A 
HETATM   26  C   UNL     1      41.172 -12.830   2.776  1.00  0.00     0.010 A 
BRANCH  23  27
HETATM   27  N   UNL     1      38.724 -10.273   5.129  1.00  0.00    -0.116 N 
HETATM   28  O   UNL     1      37.788  -9.700   4.554  1.00  0.00    -0.532 OA
HETATM   29  O   UNL     1      38.978 -10.175   6.336  1.00  0.00    -0.532 OA
ENDBRANCH  23  27
ENDBRANCH   2  21
BRANCH   6  30
HETATM   30  O   UNL     1      42.549 -17.424   3.093  1.00  0.00    -0.355 OA
HETATM   31  H   UNL     1      42.354 -18.212   2.554  1.00  0.00     0.218 HD
ENDBRANCH   6  30
BRANCH   3  32
HETATM   32  C   UNL     1      38.672 -15.040   1.209  1.00  0.00     0.129 C 
BRANCH  32  33
HETATM   33  C   UNL     1      38.554 -13.575   0.775  1.00  0.00     0.048 C 
BRANCH  33  34
HETATM   34  C   UNL     1      39.091 -13.180  -0.605  1.00  0.00     0.236 C 
BRANCH  34  35
HETATM   35  N   UNL     1      39.207 -14.327  -1.570  1.00  0.00    -0.067 N 
HETATM   36  H   UNL     1      38.914 -15.172  -1.037  1.00  0.00     0.280 HD
HETATM   37  C   UNL     1      38.398 -14.197  -2.847  1.00  0.00     0.261 C 
HETATM   38  C   UNL     1      38.576 -15.454  -3.706  1.00  0.00     0.195 C 
HETATM   39  O   UNL     1      39.956 -15.682  -4.005  1.00  0.00    -0.388 OA
HETATM   40  C   UNL     1      40.727 -15.876  -2.812  1.00  0.00     0.195 C 
HETATM   41  C   UNL     1      40.667 -14.632  -1.916  1.00  0.00     0.261 C 
ENDBRANCH  34  35
ENDBRANCH  33  34
ENDBRANCH  32  33
ENDBRANCH   3  32
TORSDOF 11
ENDMDL
MODEL 7
REMARK VINA RESULT:      -7.4      3.247      4.656
REMARK  11 active torsions:
REMARK  status: ('A' for Active; 'I' for Inactive)
REMARK    1  A    between atoms: C_3  and  C_4 
REMARK    2  A    between atoms: C_4  and  O_5 
REMARK    3  A    between atoms: C_12  and  C_13 
REMARK    4  A    between atoms: C_13  and  C_14 
REMARK    5  A    between atoms: C_15  and  C_16 
REMARK    6  A    between atoms: C_18  and  N_19 
REMARK    7  A    between atoms: N_25  and  C_26 
REMARK    8  A    between atoms: C_26  and  C_27 
REMARK    9  A    between atoms: C_27  and  C_28 
REMARK   10  A    between atoms: C_28  and  N_29 
REMARK   11  A    between atoms: C_38  and  O_39 
ROOT
HETATM    1  C   UNL     1      41.660 -13.661   4.621  1.00  0.00     0.059 C 
HETATM    2  C   UNL     1      41.314 -12.575   3.631  1.00  0.00     0.161 C 
HETATM    3  N   UNL     1      40.011 -12.140   4.112  1.00  0.00    -0.333 N 
HETATM    4  C   UNL     1      39.669 -12.802   5.271  1.00  0.00     0.278 C 
HETATM    5  O   UNL     1      38.736 -12.504   6.002  1.00  0.00    -0.265 OA
HETATM    6  C   UNL     1      40.665 -13.877   5.497  1.00  0.00     0.146 C 
ENDROOT
BRANCH   1   7
HETATM    7  C   UNL     1      43.007 -14.266   4.472  1.00  0.00     0.196 C 
HETATM    8  O   UNL     1      43.985 -13.544   4.318  1.00  0.00    -0.287 OA
BRANCH   7   9
HETATM    9  C   UNL     1      43.128 -15.720   4.523  1.00  0.00     0.045 A 
HETATM   10  C   UNL     1      43.199 -16.591   3.374  1.00  0.00    -0.013 A 
HETATM   11  C   UNL     1      43.097 -16.159   1.946  1.00  0.00     0.052 C 
HETATM   12  C   UNL     1      43.428 -17.883   3.838  1.00  0.00     0.115 A 
HETATM   13  N   UNL     1      43.439 -17.817   5.211  1.00  0.00    -0.354 N 
HETATM   14  H   UNL     1      43.606 -18.627   5.800  1.00  0.00     0.166 HD
HETATM   15  C   UNL     1      43.340 -16.517   5.642  1.00  0.00     0.020 A 
HETATM   16  C   UNL     1      43.514 -16.208   7.088  1.00  0.00     0.069 C 
BRANCH  12  17
HETATM   17  C   UNL     1      43.665 -19.148   3.170  1.00  0.00     0.310 C 
HETATM   18  O   UNL     1      42.933 -19.602   2.301  1.00  0.00    -0.258 OA
BRANCH  17  19
HETATM   19  O   UNL     1      44.768 -19.764   3.667  1.00  0.00    -0.321 OA
HETATM   20  C   UNL     1      44.675 -21.189   3.707  1.00  0.00     0.213 C 
ENDBRANCH  17  19
ENDBRANCH  12  17
ENDBRANCH   7   9
ENDBRANCH   1   7
BRANCH   2  21
HETATM   21  C   UNL     1      41.222 -12.997   2.173  1.00  0.00    -0.028 A 
HETATM   22  C   UNL     1      42.048 -12.442   1.179  1.00  0.00     0.045 A 
HETATM   23  C   UNL     1      41.911 -12.843  -0.160  1.00  0.00     0.103 A 
HETATM   24  C   UNL     1      40.971 -13.814  -0.523  1.00  0.00     0.036 A 
HETATM   25  C   UNL     1      40.163 -14.381   0.460  1.00  0.00     0.003 A 
HETATM   26  C   UNL     1      40.286 -13.976   1.793  1.00  0.00     0.010 A 
BRANCH  23  27
HETATM   27  N   UNL     1      42.768 -12.237  -1.188  1.00  0.00    -0.116 N 
HETATM   28  O   UNL     1      43.436 -11.247  -0.859  1.00  0.00    -0.532 OA
HETATM   29  O   UNL     1      42.789 -12.763  -2.308  1.00  0.00    -0.532 OA
ENDBRANCH  23  27
ENDBRANCH   2  21
BRANCH   6  30
HETATM   30  O   UNL     1      40.512 -14.796   6.488  1.00  0.00    -0.355 OA
HETATM   31  H   UNL     1      41.237 -14.724   7.135  1.00  0.00     0.218 HD
ENDBRANCH   6  30
BRANCH   3  32
HETATM   32  C   UNL     1      39.432 -10.868   3.720  1.00  0.00     0.129 C 
BRANCH  32  33
HETATM   33  C   UNL     1      38.151 -10.980   2.885  1.00  0.00     0.048 C 
BRANCH  33  34
HETATM   34  C   UNL     1      37.292  -9.724   2.699  1.00  0.00     0.236 C 
BRANCH  34  35
HETATM   35  N   UNL     1      35.844 -10.008   2.410  1.00  0.00    -0.067 N 
HETATM   36  H   UNL     1      35.627 -10.895   2.910  1.00  0.00     0.280 HD
HETATM   37  C   UNL     1      34.868  -8.918   2.812  1.00  0.00     0.261 C 
HETATM   38  C   UNL     1      33.434  -9.365   2.502  1.00  0.00     0.195 C 
HETATM   39  O   UNL     1      33.284  -9.690   1.117  1.00  0.00    -0.388 OA
HETATM   40  C   UNL     1      34.151 -10.765   0.734  1.00  0.00     0.195 C 
HETATM   41  C   UNL     1      35.622 -10.380   0.942  1.00  0.00     0.261 C 
ENDBRANCH  34  35
ENDBRANCH  33  34
ENDBRANCH  32  33
ENDBRANCH   3  32
TORSDOF 11
ENDMDL
MODEL 8
REMARK VINA RESULT:      -7.3      2.301      4.218
REMARK  11 active torsions:
REMARK  status: ('A' for Active; 'I' for Inactive)
REMARK    1  A    between atoms: C_3  and  C_4 
REMARK    2  A    between atoms: C_4  and  O_5 
REMARK    3  A    between atoms: C_12  and  C_13 
REMARK    4  A    between atoms: C_13  and  C_14 
REMARK    5  A    between atoms: C_15  and  C_16 
REMARK    6  A    between atoms: C_18  and  N_19 
REMARK    7  A    between atoms: N_25  and  C_26 
REMARK    8  A    between atoms: C_26  and  C_27 
REMARK    9  A    between atoms: C_27  and  C_28 
REMARK   10  A    between atoms: C_28  and  N_29 
REMARK   11  A    between atoms: C_38  and  O_39 
ROOT
HETATM    1  C   UNL     1      40.682 -14.564   1.966  1.00  0.00     0.059 C 
HETATM    2  C   UNL     1      40.448 -13.159   1.466  1.00  0.00     0.161 C 
HETATM    3  N   UNL     1      39.067 -13.232   1.013  1.00  0.00    -0.333 N 
HETATM    4  C   UNL     1      38.526 -14.470   1.285  1.00  0.00     0.278 C 
HETATM    5  O   UNL     1      37.340 -14.752   1.201  1.00  0.00    -0.265 OA
HETATM    6  C   UNL     1      39.618 -15.355   1.757  1.00  0.00     0.146 C 
ENDROOT
BRANCH   1   7
HETATM    7  C   UNL     1      41.999 -14.811   2.603  1.00  0.00     0.196 C 
HETATM    8  O   UNL     1      42.809 -13.897   2.706  1.00  0.00    -0.287 OA
BRANCH   7   9
HETATM    9  C   UNL     1      42.292 -16.151   3.104  1.00  0.00     0.045 A 
HETATM   10  C   UNL     1      42.914 -17.208   2.342  1.00  0.00    -0.013 A 
HETATM   11  C   UNL     1      43.304 -17.128   0.900  1.00  0.00     0.052 C 
HETATM   12  C   UNL     1      43.125 -18.281   3.203  1.00  0.00     0.115 A 
HETATM   13  N   UNL     1      42.604 -17.921   4.423  1.00  0.00    -0.354 N 
HETATM   14  H   UNL     1      42.644 -18.524   5.239  1.00  0.00     0.166 HD
HETATM   15  C   UNL     1      42.169 -16.618   4.407  1.00  0.00     0.020 A 
HETATM   16  C   UNL     1      41.736 -15.974   5.678  1.00  0.00     0.069 C 
BRANCH  12  17
HETATM   17  C   UNL     1      43.770 -19.569   3.040  1.00  0.00     0.310 C 
HETATM   18  O   UNL     1      44.724 -19.938   3.713  1.00  0.00    -0.258 OA
BRANCH  17  19
HETATM   19  O   UNL     1      43.206 -20.274   2.027  1.00  0.00    -0.321 OA
HETATM   20  C   UNL     1      43.812 -21.545   1.790  1.00  0.00     0.213 C 
ENDBRANCH  17  19
ENDBRANCH  12  17
ENDBRANCH   7   9
ENDBRANCH   1   7
BRANCH   2  21
HETATM   21  C   UNL     1      41.349 -12.687   0.334  1.00  0.00    -0.028 A 
HETATM   22  C   UNL     1      41.988 -11.435   0.359  1.00  0.00     0.045 A 
HETATM   23  C   UNL     1      42.791 -11.030  -0.721  1.00  0.00     0.103 A 
HETATM   24  C   UNL     1      42.987 -11.871  -1.821  1.00  0.00     0.036 A 
HETATM   25  C   UNL     1      42.371 -13.121  -1.842  1.00  0.00     0.003 A 
HETATM   26  C   UNL     1      41.560 -13.524  -0.777  1.00  0.00     0.010 A 
BRANCH  23  27
HETATM   27  N   UNL     1      43.433  -9.710  -0.689  1.00  0.00    -0.116 N 
HETATM   28  O   UNL     1      44.416  -9.537  -1.424  1.00  0.00    -0.532 OA
HETATM   29  O   UNL     1      42.943  -8.845   0.049  1.00  0.00    -0.532 OA
ENDBRANCH  23  27
ENDBRANCH   2  21
BRANCH   6  30
HETATM   30  O   UNL     1      39.419 -16.684   1.967  1.00  0.00    -0.355 OA
HETATM   31  H   UNL     1      38.466 -16.888   1.982  1.00  0.00     0.218 HD
ENDBRANCH   6  30
BRANCH   3  32
HETATM   32  C   UNL     1      38.266 -12.042   0.792  1.00  0.00     0.129 C 
BRANCH  32  33
HETATM   33  C   UNL     1      37.576 -11.982  -0.576  1.00  0.00     0.048 C 
BRANCH  33  34
HETATM   34  C   UNL     1      38.455 -11.914  -1.831  1.00  0.00     0.236 C 
BRANCH  34  35
HETATM   35  N   UNL     1      38.060 -12.884  -2.909  1.00  0.00    -0.067 N 
HETATM   36  H   UNL     1      38.711 -12.702  -3.702  1.00  0.00     0.280 HD
HETATM   37  C   UNL     1      38.094 -14.350  -2.519  1.00  0.00     0.261 C 
HETATM   38  C   UNL     1      37.718 -15.217  -3.726  1.00  0.00     0.195 C 
HETATM   39  O   UNL     1      36.429 -14.861  -4.234  1.00  0.00    -0.388 OA
HETATM   40  C   UNL     1      36.396 -13.496  -4.671  1.00  0.00     0.195 C 
HETATM   41  C   UNL     1      36.693 -12.543  -3.506  1.00  0.00     0.261 C 
ENDBRANCH  34  35
ENDBRANCH  33  34
ENDBRANCH  32  33
ENDBRANCH   3  32
TORSDOF 11
ENDMDL
MODEL 9
REMARK VINA RESULT:      -7.3      2.193      4.995
REMARK  11 active torsions:
REMARK  status: ('A' for Active; 'I' for Inactive)
REMARK    1  A    between atoms: C_3  and  C_4 
REMARK    2  A    between atoms: C_4  and  O_5 
REMARK    3  A    between atoms: C_12  and  C_13 
REMARK    4  A    between atoms: C_13  and  C_14 
REMARK    5  A    between atoms: C_15  and  C_16 
REMARK    6  A    between atoms: C_18  and  N_19 
REMARK    7  A    between atoms: N_25  and  C_26 
REMARK    8  A    between atoms: C_26  and  C_27 
REMARK    9  A    between atoms: C_27  and  C_28 
REMARK   10  A    between atoms: C_28  and  N_29 
REMARK   11  A    between atoms: C_38  and  O_39 
ROOT
HETATM    1  C   UNL     1      41.174 -15.891   1.586  1.00  0.00     0.059 C 
HETATM    2  C   UNL     1      40.519 -14.567   1.900  1.00  0.00     0.161 C 
HETATM    3  N   UNL     1      40.928 -13.757   0.762  1.00  0.00    -0.333 N 
HETATM    4  C   UNL     1      41.645 -14.509  -0.144  1.00  0.00     0.278 C 
HETATM    5  O   UNL     1      41.942 -14.153  -1.275  1.00  0.00    -0.265 OA
HETATM    6  C   UNL     1      41.920 -15.830   0.472  1.00  0.00     0.146 C 
ENDROOT
BRANCH   1   7
HETATM    7  C   UNL     1      40.870 -17.000   2.524  1.00  0.00     0.196 C 
HETATM    8  O   UNL     1      39.780 -17.558   2.474  1.00  0.00    -0.287 OA
BRANCH   7   9
HETATM    9  C   UNL     1      41.894 -17.403   3.483  1.00  0.00     0.045 A 
HETATM   10  C   UNL     1      41.825 -17.200   4.910  1.00  0.00    -0.013 A 
HETATM   11  C   UNL     1      40.728 -16.487   5.637  1.00  0.00     0.052 C 
HETATM   12  C   UNL     1      42.930 -17.826   5.480  1.00  0.00     0.115 A 
HETATM   13  N   UNL     1      43.673 -18.340   4.444  1.00  0.00    -0.354 N 
HETATM   14  H   UNL     1      44.529 -18.866   4.589  1.00  0.00     0.166 HD
HETATM   15  C   UNL     1      43.030 -18.167   3.243  1.00  0.00     0.020 A 
HETATM   16  C   UNL     1      43.578 -18.812   2.017  1.00  0.00     0.069 C 
BRANCH  12  17
HETATM   17  C   UNL     1      43.357 -18.028   6.850  1.00  0.00     0.310 C 
HETATM   18  O   UNL     1      43.594 -19.128   7.330  1.00  0.00    -0.258 OA
BRANCH  17  19
HETATM   19  O   UNL     1      43.411 -16.850   7.524  1.00  0.00    -0.321 OA
HETATM   20  C   UNL     1      44.346 -15.913   6.990  1.00  0.00     0.213 C 
ENDBRANCH  17  19
ENDBRANCH  12  17
ENDBRANCH   7   9
ENDBRANCH   1   7
BRANCH   2  21
HETATM   21  C   UNL     1      40.940 -13.898   3.200  1.00  0.00    -0.028 A 
HETATM   22  C   UNL     1      40.010 -13.289   4.062  1.00  0.00     0.045 A 
HETATM   23  C   UNL     1      40.447 -12.660   5.240  1.00  0.00     0.103 A 
HETATM   24  C   UNL     1      41.803 -12.651   5.586  1.00  0.00     0.036 A 
HETATM   25  C   UNL     1      42.725 -13.269   4.744  1.00  0.00     0.003 A 
HETATM   26  C   UNL     1      42.298 -13.884   3.564  1.00  0.00     0.010 A 
BRANCH  23  27
HETATM   27  N   UNL     1      39.466 -12.010   6.119  1.00  0.00    -0.116 N 
HETATM   28  O   UNL     1      38.462 -11.518   5.584  1.00  0.00    -0.532 OA
HETATM   29  O   UNL     1      39.687 -12.013   7.337  1.00  0.00    -0.532 OA
ENDBRANCH  23  27
ENDBRANCH   2  21
BRANCH   6  30
HETATM   30  O   UNL     1      42.735 -16.740  -0.126  1.00  0.00    -0.355 OA
HETATM   31  H   UNL     1      42.577 -16.760  -1.087  1.00  0.00     0.218 HD
ENDBRANCH   6  30
BRANCH   3  32
HETATM   32  C   UNL     1      40.251 -12.521   0.414  1.00  0.00     0.129 C 
BRANCH  32  33
HETATM   33  C   UNL     1      38.900 -12.709  -0.286  1.00  0.00     0.048 C 
BRANCH  33  34
HETATM   34  C   UNL     1      38.824 -12.461  -1.798  1.00  0.00     0.236 C 
BRANCH  34  35
HETATM   35  N   UNL     1      38.124 -13.549  -2.564  1.00  0.00    -0.067 N 
HETATM   36  H   UNL     1      37.661 -14.144  -1.846  1.00  0.00     0.280 HD
HETATM   37  C   UNL     1      37.116 -13.081  -3.597  1.00  0.00     0.261 C 
HETATM   38  C   UNL     1      36.451 -14.293  -4.260  1.00  0.00     0.195 C 
HETATM   39  O   UNL     1      37.426 -15.151  -4.860  1.00  0.00    -0.388 OA
HETATM   40  C   UNL     1      38.349 -15.658  -3.887  1.00  0.00     0.195 C 
HETATM   41  C   UNL     1      39.118 -14.512  -3.216  1.00  0.00     0.261 C 
ENDBRANCH  34  35
ENDBRANCH  33  34
ENDBRANCH  32  33
ENDBRANCH   3  32
TORSDOF 11
ENDMDL
MODEL 10
REMARK VINA RESULT:      -7.1      2.206      3.327
REMARK  11 active torsions:
REMARK  status: ('A' for Active; 'I' for Inactive)
REMARK    1  A    between atoms: C_3  and  C_4 
REMARK    2  A    between atoms: C_4  and  O_5 
REMARK    3  A    between atoms: C_12  and  C_13 
REMARK    4  A    between atoms: C_13  and  C_14 
REMARK    5  A    between atoms: C_15  and  C_16 
REMARK    6  A    between atoms: C_18  and  N_19 
REMARK    7  A    between atoms: N_25  and  C_26 
REMARK    8  A    between atoms: C_26  and  C_27 
REMARK    9  A    between atoms: C_27  and  C_28 
REMARK   10  A    between atoms: C_28  and  N_29 
REMARK   11  A    between atoms: C_38  and  O_39 
ROOT
HETATM    1  C   UNL     1      39.770 -13.384   1.198  1.00  0.00     0.059 C 
HETATM    2  C   UNL     1      40.806 -13.538   0.110  1.00  0.00     0.161 C 
HETATM    3  N   UNL     1      41.168 -12.153  -0.152  1.00  0.00    -0.333 N 
HETATM    4  C   UNL     1      40.514 -11.302   0.714  1.00  0.00     0.278 C 
HETATM    5  O   UNL     1      40.770 -10.116   0.861  1.00  0.00    -0.265 OA
HETATM    6  C   UNL     1      39.512 -12.095   1.467  1.00  0.00     0.146 C 
ENDROOT
BRANCH   1   7
HETATM    7  C   UNL     1      39.250 -14.648   1.777  1.00  0.00     0.196 C 
HETATM    8  O   UNL     1      38.163 -15.083   1.416  1.00  0.00    -0.287 OA
BRANCH   7   9
HETATM    9  C   UNL     1      40.065 -15.349   2.766  1.00  0.00     0.045 A 
HETATM   10  C   UNL     1      40.840 -16.540   2.513  1.00  0.00    -0.013 A 
HETATM   11  C   UNL     1      40.888 -17.289   1.219  1.00  0.00     0.052 C 
HETATM   12  C   UNL     1      41.563 -16.826   3.668  1.00  0.00     0.115 A 
HETATM   13  N   UNL     1      41.203 -15.887   4.605  1.00  0.00    -0.354 N 
HETATM   14  H   UNL     1      41.602 -15.859   5.538  1.00  0.00     0.166 HD
HETATM   15  C   UNL     1      40.365 -14.944   4.061  1.00  0.00     0.020 A 
HETATM   16  C   UNL     1      40.002 -13.739   4.857  1.00  0.00     0.069 C 
BRANCH  12  17
HETATM   17  C   UNL     1      42.554 -17.833   3.991  1.00  0.00     0.310 C 
HETATM   18  O   UNL     1      42.427 -18.640   4.902  1.00  0.00    -0.258 OA
BRANCH  17  19
HETATM   19  O   UNL     1      43.642 -17.724   3.186  1.00  0.00    -0.321 OA
HETATM   20  C   UNL     1      44.021 -18.944   2.547  1.00  0.00     0.213 C 
ENDBRANCH  17  19
ENDBRANCH  12  17
ENDBRANCH   7   9
ENDBRANCH   1   7
BRANCH   2  21
HETATM   21  C   UNL     1      40.341 -14.211  -1.173  1.00  0.00    -0.028 A 
HETATM   22  C   UNL     1      39.159 -13.830  -1.832  1.00  0.00     0.045 A 
HETATM   23  C   UNL     1      38.755 -14.498  -3.001  1.00  0.00     0.103 A 
HETATM   24  C   UNL     1      39.531 -15.530  -3.539  1.00  0.00     0.036 A 
HETATM   25  C   UNL     1      40.713 -15.898  -2.900  1.00  0.00     0.003 A 
HETATM   26  C   UNL     1      41.113 -15.247  -1.729  1.00  0.00     0.010 A 
BRANCH  23  27
HETATM   27  N   UNL     1      37.506 -14.101  -3.664  1.00  0.00    -0.116 N 
HETATM   28  O   UNL     1      37.200 -12.901  -3.629  1.00  0.00    -0.532 OA
HETATM   29  O   UNL     1      36.850 -14.981  -4.236  1.00  0.00    -0.532 OA
ENDBRANCH  23  27
ENDBRANCH   2  21
BRANCH   6  30
HETATM   30  O   UNL     1      38.612 -11.503   2.297  1.00  0.00    -0.355 OA
HETATM   31  H   UNL     1      38.032 -12.171   2.704  1.00  0.00     0.218 HD
ENDBRANCH   6  30
BRANCH   3  32
HETATM   32  C   UNL     1      42.389 -11.796  -0.851  1.00  0.00     0.129 C 
BRANCH  32  33
HETATM   33  C   UNL     1      42.172 -11.101  -2.200  1.00  0.00     0.048 C 
BRANCH  33  34
HETATM   34  C   UNL     1      42.111 -11.969  -3.463  1.00  0.00     0.236 C 
BRANCH  34  35
HETATM   35  N   UNL     1      41.267 -11.390  -4.565  1.00  0.00    -0.067 N 
HETATM   36  H   UNL     1      41.093 -12.175  -5.226  1.00  0.00     0.280 HD
HETATM   37  C   UNL     1      39.956 -10.763  -4.128  1.00  0.00     0.261 C 
HETATM   38  C   UNL     1      39.185 -10.263  -5.355  1.00  0.00     0.195 C 
HETATM   39  O   UNL     1      39.965  -9.328  -6.107  1.00  0.00    -0.388 OA
HETATM   40  C   UNL     1      41.178  -9.923  -6.586  1.00  0.00     0.195 C 
HETATM   41  C   UNL     1      42.054 -10.393  -5.417  1.00  0.00     0.261 C 
ENDBRANCH  34  35
ENDBRANCH  33  34
ENDBRANCH  32  33
ENDBRANCH   3  32
TORSDOF 11
ENDMDL
