MODEL 1
REMARK VINA RESULT:      -8.4      0.000      0.000
REMARK  7 active torsions:
REMARK  status: ('A' for Active; 'I' for Inactive)
REMARK    1  A    between atoms: C_2  and  O_3 
REMARK    2  A    between atoms: O_3  and  C_4 
REMARK    3  A    between atoms: C_5  and  N_6 
REMARK    4  A    between atoms: N_9  and  C_11 
REMARK    5  A    between atoms: C_11  and  C_12 
REMARK       I    between atoms: C_12  and  N_13 
REMARK    6  A    between atoms: N_13  and  C_14 
REMARK    7  A    between atoms: C_15  and  C_16 
ROOT
HETATM    1  C   UNL     1      41.044 -14.988   3.621  1.00  0.00     0.275 C 
HETATM    2  C   UNL     1      40.257 -14.799   4.917  1.00  0.00     0.050 C 
ENDROOT
BRANCH   1   3
HETATM    3  N   UNL     1      40.310 -14.220   2.487  1.00  0.00    -0.056 N 
HETATM    4  C   UNL     1      41.137 -13.990   1.208  1.00  0.00     0.255 C 
HETATM    5  C   UNL     1      40.333 -13.118   0.211  1.00  0.00     0.150 C 
HETATM    6  N   UNL     1      39.020 -13.744  -0.067  1.00  0.00    -0.375 N 
HETATM    7  C   UNL     1      38.199 -14.012   1.124  1.00  0.00     0.150 C 
HETATM    8  C   UNL     1      38.984 -14.885   2.118  1.00  0.00     0.255 C 
HETATM    9  H   UNL     1      40.082 -13.292   2.857  1.00  0.00     0.281 HD
BRANCH   6  10
HETATM   10  C   UNL     1      38.368 -13.280  -1.230  1.00  0.00     0.064 A 
HETATM   11  C   UNL     1      38.479 -13.970  -2.469  1.00  0.00     0.095 A 
HETATM   12  C   UNL     1      37.786 -13.508  -3.600  1.00  0.00     0.039 A 
HETATM   13  C   UNL     1      36.978 -12.374  -3.528  1.00  0.00     0.003 A 
HETATM   14  C   UNL     1      36.855 -11.691  -2.328  1.00  0.00     0.002 A 
HETATM   15  C   UNL     1      37.540 -12.140  -1.196  1.00  0.00     0.032 A 
BRANCH  11  16
HETATM   16  O   UNL     1      39.244 -15.117  -2.472  1.00  0.00    -0.349 OA
BRANCH  16  17
HETATM   17  C   UNL     1      40.210 -15.258  -3.516  1.00  0.00     0.171 C 
HETATM   18  C   UNL     1      41.435 -14.441  -3.142  1.00  0.00     0.034 C 
ENDBRANCH  16  17
ENDBRANCH  11  16
ENDBRANCH   6  10
ENDBRANCH   1   3
BRANCH   1  19
HETATM   19  C   UNL     1      42.514 -14.548   3.796  1.00  0.00     0.253 C 
HETATM   20  N   UNL     1      43.547 -15.335   3.362  1.00  0.00    -0.325 N 
HETATM   21  H   UNL     1      44.396 -14.798   3.203  1.00  0.00     0.169 HD
HETATM   22  O   UNL     1      42.774 -13.391   4.144  1.00  0.00    -0.271 OA
BRANCH  20  23
HETATM   23  C   UNL     1      43.548 -16.669   2.914  1.00  0.00     0.045 A 
HETATM   24  C   UNL     1      43.437 -17.804   3.753  1.00  0.00     0.001 A 
HETATM   25  C   UNL     1      43.347 -19.067   3.125  1.00  0.00     0.014 A 
HETATM   26  C   UNL     1      43.409 -19.206   1.738  1.00  0.00     0.001 A 
HETATM   27  C   UNL     1      43.606 -18.088   0.940  1.00  0.00     0.002 A 
HETATM   28  C   UNL     1      43.697 -16.829   1.527  1.00  0.00     0.030 A 
BRANCH  24  29
HETATM   29  C   UNL     1      43.552 -17.762   5.230  1.00  0.00    -0.024 A 
HETATM   30  C   UNL     1      42.455 -17.414   6.042  1.00  0.00     0.012 A 
HETATM   31  C   UNL     1      42.554 -17.424   7.437  1.00  0.00     0.001 A 
HETATM   32  C   UNL     1      43.751 -17.785   8.048  1.00  0.00     0.000 A 
HETATM   33  C   UNL     1      44.846 -18.139   7.267  1.00  0.00     0.001 A 
HETATM   34  C   UNL     1      44.746 -18.131   5.874  1.00  0.00     0.012 A 
ENDBRANCH  24  29
ENDBRANCH  20  23
ENDBRANCH   1  19
TORSDOF 7
ENDMDL
MODEL 2
REMARK VINA RESULT:      -8.1      2.322      9.099
REMARK  7 active torsions:
REMARK  status: ('A' for Active; 'I' for Inactive)
REMARK    1  A    between atoms: C_2  and  O_3 
REMARK    2  A    between atoms: O_3  and  C_4 
REMARK    3  A    between atoms: C_5  and  N_6 
REMARK    4  A    between atoms: N_9  and  C_11 
REMARK    5  A    between atoms: C_11  and  C_12 
REMARK       I    between atoms: C_12  and  N_13 
REMARK    6  A    between atoms: N_13  and  C_14 
REMARK    7  A    between atoms: C_15  and  C_16 
ROOT
HETATM    1  C   UNL     1      42.188 -14.588   1.780  1.00  0.00     0.275 C 
HETATM    2  C   UNL     1      42.675 -13.869   3.037  1.00  0.00     0.050 C 
ENDROOT
BRANCH   1   3
HETATM    3  N   UNL     1      42.440 -16.111   1.959  1.00  0.00    -0.056 N 
HETATM    4  C   UNL     1      43.789 -16.621   1.420  1.00  0.00     0.255 C 
HETATM    5  C   UNL     1      43.862 -18.163   1.556  1.00  0.00     0.150 C 
HETATM    6  N   UNL     1      43.626 -18.559   2.963  1.00  0.00    -0.375 N 
HETATM    7  C   UNL     1      42.362 -18.075   3.538  1.00  0.00     0.150 C 
HETATM    8  C   UNL     1      42.283 -16.543   3.416  1.00  0.00     0.255 C 
HETATM    9  H   UNL     1      41.712 -16.597   1.427  1.00  0.00     0.281 HD
BRANCH   6  10
HETATM   10  C   UNL     1      44.048 -19.865   3.298  1.00  0.00     0.064 A 
HETATM   11  C   UNL     1      44.563 -20.172   4.588  1.00  0.00     0.095 A 
HETATM   12  C   UNL     1      44.936 -21.488   4.905  1.00  0.00     0.039 A 
HETATM   13  C   UNL     1      44.807 -22.513   3.969  1.00  0.00     0.003 A 
HETATM   14  C   UNL     1      44.304 -22.233   2.708  1.00  0.00     0.002 A 
HETATM   15  C   UNL     1      43.929 -20.928   2.379  1.00  0.00     0.032 A 
BRANCH  11  16
HETATM   16  O   UNL     1      44.617 -19.135   5.495  1.00  0.00    -0.349 OA
BRANCH  16  17
HETATM   17  C   UNL     1      44.002 -19.344   6.767  1.00  0.00     0.171 C 
HETATM   18  C   UNL     1      43.201 -18.101   7.116  1.00  0.00     0.034 C 
ENDBRANCH  16  17
ENDBRANCH  11  16
ENDBRANCH   6  10
ENDBRANCH   1   3
BRANCH   1  19
HETATM   19  C   UNL     1      40.710 -14.252   1.486  1.00  0.00     0.253 C 
HETATM   20  N   UNL     1      40.345 -13.599   0.339  1.00  0.00    -0.325 N 
HETATM   21  H   UNL     1      39.370 -13.762   0.100  1.00  0.00     0.169 HD
HETATM   22  O   UNL     1      39.814 -14.744   2.181  1.00  0.00    -0.271 OA
BRANCH  20  23
HETATM   23  C   UNL     1      41.135 -12.950  -0.629  1.00  0.00     0.045 A 
HETATM   24  C   UNL     1      40.990 -13.107  -2.029  1.00  0.00     0.001 A 
HETATM   25  C   UNL     1      41.797 -12.298  -2.858  1.00  0.00     0.014 A 
HETATM   26  C   UNL     1      42.734 -11.408  -2.332  1.00  0.00     0.001 A 
HETATM   27  C   UNL     1      42.921 -11.333  -0.958  1.00  0.00     0.002 A 
HETATM   28  C   UNL     1      42.140 -12.117  -0.113  1.00  0.00     0.030 A 
BRANCH  24  29
HETATM   29  C   UNL     1      40.159 -14.156  -2.667  1.00  0.00    -0.024 A 
HETATM   30  C   UNL     1      38.847 -13.888  -3.105  1.00  0.00     0.012 A 
HETATM   31  C   UNL     1      38.084 -14.865  -3.751  1.00  0.00     0.001 A 
HETATM   32  C   UNL     1      38.619 -16.130  -3.976  1.00  0.00     0.000 A 
HETATM   33  C   UNL     1      39.915 -16.417  -3.558  1.00  0.00     0.001 A 
HETATM   34  C   UNL     1      40.677 -15.439  -2.914  1.00  0.00     0.012 A 
ENDBRANCH  24  29
ENDBRANCH  20  23
ENDBRANCH   1  19
TORSDOF 7
ENDMDL
MODEL 3
REMARK VINA RESULT:      -8.1      2.694      4.341
REMARK  7 active torsions:
REMARK  status: ('A' for Active; 'I' for Inactive)
REMARK    1  A    between atoms: C_2  and  O_3 
REMARK    2  A    between atoms: O_3  and  C_4 
REMARK    3  A    between atoms: C_5  and  N_6 
REMARK    4  A    between atoms: N_9  and  C_11 
REMARK    5  A    between atoms: C_11  and  C_12 
REMARK       I    between atoms: C_12  and  N_13 
REMARK    6  A    between atoms: N_13  and  C_14 
REMARK    7  A    between atoms: C_15  and  C_16 
ROOT
HETATM    1  C   UNL     1      42.230 -15.685   2.970  1.00  0.00     0.275 C 
HETATM    2  C   UNL     1      43.710 -15.962   2.708  1.00  0.00     0.050 C 
ENDROOT
BRANCH   1   3
HETATM    3  N   UNL     1      41.675 -14.841   1.789  1.00  0.00    -0.056 N 
HETATM    4  C   UNL     1      42.080 -13.355   1.796  1.00  0.00     0.255 C 
HETATM    5  C   UNL     1      41.370 -12.610   0.638  1.00  0.00     0.150 C 
HETATM    6  N   UNL     1      41.668 -13.274  -0.651  1.00  0.00    -0.375 N 
HETATM    7  C   UNL     1      41.326 -14.702  -0.705  1.00  0.00     0.150 C 
HETATM    8  C   UNL     1      42.033 -15.455   0.436  1.00  0.00     0.255 C 
HETATM    9  H   UNL     1      40.653 -14.864   1.862  1.00  0.00     0.281 HD
BRANCH   6  10
HETATM   10  C   UNL     1      41.422 -12.490  -1.800  1.00  0.00     0.064 A 
HETATM   11  C   UNL     1      42.317 -11.461  -2.204  1.00  0.00     0.095 A 
HETATM   12  C   UNL     1      42.068 -10.726  -3.374  1.00  0.00     0.039 A 
HETATM   13  C   UNL     1      40.947 -10.992  -4.159  1.00  0.00     0.003 A 
HETATM   14  C   UNL     1      40.066 -11.994  -3.784  1.00  0.00     0.002 A 
HETATM   15  C   UNL     1      40.302 -12.732  -2.622  1.00  0.00     0.032 A 
BRANCH  11  16
HETATM   16  O   UNL     1      43.439 -11.277  -1.424  1.00  0.00    -0.349 OA
BRANCH  16  17
HETATM   17  C   UNL     1      43.861  -9.932  -1.190  1.00  0.00     0.171 C 
HETATM   18  C   UNL     1      42.889  -9.294  -0.212  1.00  0.00     0.034 C 
ENDBRANCH  16  17
ENDBRANCH  11  16
ENDBRANCH   6  10
ENDBRANCH   1   3
BRANCH   1  19
HETATM   19  C   UNL     1      41.451 -17.000   3.191  1.00  0.00     0.253 C 
HETATM   20  N   UNL     1      41.768 -17.849   4.217  1.00  0.00    -0.325 N 
HETATM   21  H   UNL     1      40.989 -18.453   4.468  1.00  0.00     0.169 HD
HETATM   22  O   UNL     1      40.402 -17.208   2.571  1.00  0.00    -0.271 OA
BRANCH  20  23
HETATM   23  C   UNL     1      42.880 -17.857   5.081  1.00  0.00     0.045 A 
HETATM   24  C   UNL     1      44.026 -18.671   4.915  1.00  0.00     0.001 A 
HETATM   25  C   UNL     1      45.096 -18.474   5.816  1.00  0.00     0.014 A 
HETATM   26  C   UNL     1      45.020 -17.548   6.858  1.00  0.00     0.001 A 
HETATM   27  C   UNL     1      43.853 -16.823   7.054  1.00  0.00     0.002 A 
HETATM   28  C   UNL     1      42.781 -16.993   6.183  1.00  0.00     0.030 A 
BRANCH  24  29
HETATM   29  C   UNL     1      44.114 -19.800   3.958  1.00  0.00    -0.024 A 
HETATM   30  C   UNL     1      44.570 -21.070   4.362  1.00  0.00     0.012 A 
HETATM   31  C   UNL     1      44.604 -22.146   3.469  1.00  0.00     0.001 A 
HETATM   32  C   UNL     1      44.180 -21.974   2.155  1.00  0.00     0.000 A 
HETATM   33  C   UNL     1      43.719 -20.730   1.734  1.00  0.00     0.001 A 
HETATM   34  C   UNL     1      43.684 -19.657   2.628  1.00  0.00     0.012 A 
ENDBRANCH  24  29
ENDBRANCH  20  23
ENDBRANCH   1  19
TORSDOF 7
ENDMDL
MODEL 4
REMARK VINA RESULT:      -8.0      4.535      8.106
REMARK  7 active torsions:
REMARK  status: ('A' for Active; 'I' for Inactive)
REMARK    1  A    between atoms: C_2  and  O_3 
REMARK    2  A    between atoms: O_3  and  C_4 
REMARK    3  A    between atoms: C_5  and  N_6 
REMARK    4  A    between atoms: N_9  and  C_11 
REMARK    5  A    between atoms: C_11  and  C_12 
REMARK       I    between atoms: C_12  and  N_13 
REMARK    6  A    between atoms: N_13  and  C_14 
REMARK    7  A    between atoms: C_15  and  C_16 
ROOT
HETATM    1  C   UNL     1      40.783 -12.413   6.368  1.00  0.00     0.275 C 
HETATM    2  C   UNL     1      39.260 -12.438   6.237  1.00  0.00     0.050 C 
ENDROOT
BRANCH   1   3
HETATM    3  N   UNL     1      41.381 -13.376   5.306  1.00  0.00    -0.056 N 
HETATM    4  C   UNL     1      42.808 -13.875   5.600  1.00  0.00     0.255 C 
HETATM    5  C   UNL     1      43.323 -14.728   4.414  1.00  0.00     0.150 C 
HETATM    6  N   UNL     1      42.380 -15.835   4.137  1.00  0.00    -0.375 N 
HETATM    7  C   UNL     1      40.995 -15.416   3.875  1.00  0.00     0.150 C 
HETATM    8  C   UNL     1      40.469 -14.576   5.051  1.00  0.00     0.255 C 
HETATM    9  H   UNL     1      41.432 -12.853   4.426  1.00  0.00     0.281 HD
BRANCH   6  10
HETATM   10  C   UNL     1      42.908 -16.895   3.367  1.00  0.00     0.064 A 
HETATM   11  C   UNL     1      43.104 -18.190   3.922  1.00  0.00     0.095 A 
HETATM   12  C   UNL     1      43.592 -19.236   3.121  1.00  0.00     0.039 A 
HETATM   13  C   UNL     1      43.888 -19.026   1.775  1.00  0.00     0.003 A 
HETATM   14  C   UNL     1      43.699 -17.771   1.216  1.00  0.00     0.002 A 
HETATM   15  C   UNL     1      43.215 -16.723   2.002  1.00  0.00     0.032 A 
BRANCH  11  16
HETATM   16  O   UNL     1      42.743 -18.359   5.242  1.00  0.00    -0.349 OA
BRANCH  16  17
HETATM   17  C   UNL     1      43.727 -18.896   6.127  1.00  0.00     0.171 C 
HETATM   18  C   UNL     1      44.712 -17.791   6.467  1.00  0.00     0.034 C 
ENDBRANCH  16  17
ENDBRANCH  11  16
ENDBRANCH   6  10
ENDBRANCH   1   3
BRANCH   1  19
HETATM   19  C   UNL     1      41.326 -10.972   6.250  1.00  0.00     0.253 C 
HETATM   20  N   UNL     1      41.606 -10.226   7.364  1.00  0.00    -0.325 N 
HETATM   21  H   UNL     1      42.270  -9.481   7.168  1.00  0.00     0.169 HD
HETATM   22  O   UNL     1      41.707 -10.543   5.155  1.00  0.00    -0.271 OA
BRANCH  20  23
HETATM   23  C   UNL     1      41.298 -10.460   8.717  1.00  0.00     0.045 A 
HETATM   24  C   UNL     1      42.238 -10.841   9.706  1.00  0.00     0.001 A 
HETATM   25  C   UNL     1      41.776 -10.930  11.037  1.00  0.00     0.014 A 
HETATM   26  C   UNL     1      40.440 -10.699  11.371  1.00  0.00     0.001 A 
HETATM   27  C   UNL     1      39.519 -10.412  10.374  1.00  0.00     0.002 A 
HETATM   28  C   UNL     1      39.942 -10.315   9.051  1.00  0.00     0.030 A 
BRANCH  24  29
HETATM   29  C   UNL     1      43.621 -11.285   9.412  1.00  0.00    -0.024 A 
HETATM   30  C   UNL     1      43.877 -12.371   8.552  1.00  0.00     0.012 A 
HETATM   31  C   UNL     1      45.184 -12.755   8.238  1.00  0.00     0.001 A 
HETATM   32  C   UNL     1      46.262 -12.059   8.775  1.00  0.00     0.000 A 
HETATM   33  C   UNL     1      46.035 -10.978   9.621  1.00  0.00     0.001 A 
HETATM   34  C   UNL     1      44.729 -10.594   9.933  1.00  0.00     0.012 A 
ENDBRANCH  24  29
ENDBRANCH  20  23
ENDBRANCH   1  19
TORSDOF 7
ENDMDL
MODEL 5
REMARK VINA RESULT:      -7.9      2.984      4.618
REMARK  7 active torsions:
REMARK  status: ('A' for Active; 'I' for Inactive)
REMARK    1  A    between atoms: C_2  and  O_3 
REMARK    2  A    between atoms: O_3  and  C_4 
REMARK    3  A    between atoms: C_5  and  N_6 
REMARK    4  A    between atoms: N_9  and  C_11 
REMARK    5  A    between atoms: C_11  and  C_12 
REMARK       I    between atoms: C_12  and  N_13 
REMARK    6  A    between atoms: N_13  and  C_14 
REMARK    7  A    between atoms: C_15  and  C_16 
ROOT
HETATM    1  C   UNL     1      42.645 -16.297   2.480  1.00  0.00     0.275 C 
HETATM    2  C   UNL     1      43.235 -16.720   1.134  1.00  0.00     0.050 C 
ENDROOT
BRANCH   1   3
HETATM    3  N   UNL     1      41.984 -14.902   2.306  1.00  0.00    -0.056 N 
HETATM    4  C   UNL     1      42.742 -13.730   2.959  1.00  0.00     0.255 C 
HETATM    5  C   UNL     1      41.921 -12.424   2.812  1.00  0.00     0.150 C 
HETATM    6  N   UNL     1      41.612 -12.177   1.385  1.00  0.00    -0.375 N 
HETATM    7  C   UNL     1      40.912 -13.276   0.705  1.00  0.00     0.150 C 
HETATM    8  C   UNL     1      41.723 -14.577   0.836  1.00  0.00     0.255 C 
HETATM    9  H   UNL     1      41.069 -14.947   2.765  1.00  0.00     0.281 HD
BRANCH   6  10
HETATM   10  C   UNL     1      41.227 -10.854   1.075  1.00  0.00     0.064 A 
HETATM   11  C   UNL     1      42.015 -10.031   0.224  1.00  0.00     0.095 A 
HETATM   12  C   UNL     1      41.586  -8.733  -0.100  1.00  0.00     0.039 A 
HETATM   13  C   UNL     1      40.385  -8.233   0.400  1.00  0.00     0.003 A 
HETATM   14  C   UNL     1      39.602  -9.022   1.228  1.00  0.00     0.002 A 
HETATM   15  C   UNL     1      40.018 -10.314   1.559  1.00  0.00     0.032 A 
BRANCH  11  16
HETATM   16  O   UNL     1      43.164 -10.593  -0.289  1.00  0.00    -0.349 OA
BRANCH  16  17
HETATM   17  C   UNL     1      43.278 -10.670  -1.711  1.00  0.00     0.171 C 
HETATM   18  C   UNL     1      42.873 -12.069  -2.144  1.00  0.00     0.034 C 
ENDBRANCH  16  17
ENDBRANCH  11  16
ENDBRANCH   6  10
ENDBRANCH   1   3
BRANCH   1  19
HETATM   19  C   UNL     1      41.668 -17.365   3.018  1.00  0.00     0.253 C 
HETATM   20  N   UNL     1      41.889 -17.989   4.217  1.00  0.00    -0.325 N 
HETATM   21  H   UNL     1      41.034 -18.371   4.612  1.00  0.00     0.169 HD
HETATM   22  O   UNL     1      40.570 -17.527   2.475  1.00  0.00    -0.271 OA
BRANCH  20  23
HETATM   23  C   UNL     1      43.025 -17.987   5.048  1.00  0.00     0.045 A 
HETATM   24  C   UNL     1      44.151 -18.829   4.880  1.00  0.00     0.001 A 
HETATM   25  C   UNL     1      45.250 -18.619   5.742  1.00  0.00     0.014 A 
HETATM   26  C   UNL     1      45.221 -17.655   6.751  1.00  0.00     0.001 A 
HETATM   27  C   UNL     1      44.074 -16.901   6.953  1.00  0.00     0.002 A 
HETATM   28  C   UNL     1      42.974 -17.081   6.120  1.00  0.00     0.030 A 
BRANCH  24  29
HETATM   29  C   UNL     1      44.191 -19.994   3.964  1.00  0.00    -0.024 A 
HETATM   30  C   UNL     1      43.962 -19.849   2.582  1.00  0.00     0.012 A 
HETATM   31  C   UNL     1      44.050 -20.941   1.714  1.00  0.00     0.001 A 
HETATM   32  C   UNL     1      44.370 -22.201   2.210  1.00  0.00     0.000 A 
HETATM   33  C   UNL     1      44.607 -22.368   3.571  1.00  0.00     0.001 A 
HETATM   34  C   UNL     1      44.522 -21.275   4.437  1.00  0.00     0.012 A 
ENDBRANCH  24  29
ENDBRANCH  20  23
ENDBRANCH   1  19
TORSDOF 7
ENDMDL
MODEL 6
REMARK VINA RESULT:      -7.9      2.174      4.033
REMARK  7 active torsions:
REMARK  status: ('A' for Active; 'I' for Inactive)
REMARK    1  A    between atoms: C_2  and  O_3 
REMARK    2  A    between atoms: O_3  and  C_4 
REMARK    3  A    between atoms: C_5  and  N_6 
REMARK    4  A    between atoms: N_9  and  C_11 
REMARK    5  A    between atoms: C_11  and  C_12 
REMARK       I    between atoms: C_12  and  N_13 
REMARK    6  A    between atoms: N_13  and  C_14 
REMARK    7  A    between atoms: C_15  and  C_16 
ROOT
HETATM    1  C   UNL     1      42.281 -15.850   2.897  1.00  0.00     0.275 C 
HETATM    2  C   UNL     1      43.738 -16.198   2.588  1.00  0.00     0.050 C 
ENDROOT
BRANCH   1   3
HETATM    3  N   UNL     1      41.706 -15.047   1.698  1.00  0.00    -0.056 N 
HETATM    4  C   UNL     1      42.161 -13.578   1.612  1.00  0.00     0.255 C 
HETATM    5  C   UNL     1      41.429 -12.866   0.447  1.00  0.00     0.150 C 
HETATM    6  N   UNL     1      41.649 -13.604  -0.817  1.00  0.00    -0.375 N 
HETATM    7  C   UNL     1      41.256 -15.020  -0.783  1.00  0.00     0.150 C 
HETATM    8  C   UNL     1      41.985 -15.740   0.365  1.00  0.00     0.255 C 
HETATM    9  H   UNL     1      40.688 -15.029   1.813  1.00  0.00     0.281 HD
BRANCH   6  10
HETATM   10  C   UNL     1      41.381 -12.871  -1.994  1.00  0.00     0.064 A 
HETATM   11  C   UNL     1      40.071 -12.799  -2.543  1.00  0.00     0.095 A 
HETATM   12  C   UNL     1      39.826 -12.029  -3.691  1.00  0.00     0.039 A 
HETATM   13  C   UNL     1      40.855 -11.321  -4.309  1.00  0.00     0.003 A 
HETATM   14  C   UNL     1      42.138 -11.376  -3.787  1.00  0.00     0.002 A 
HETATM   15  C   UNL     1      42.395 -12.139  -2.645  1.00  0.00     0.032 A 
BRANCH  11  16
HETATM   16  O   UNL     1      39.078 -13.471  -1.861  1.00  0.00    -0.349 OA
BRANCH  16  17
HETATM   17  C   UNL     1      38.091 -12.682  -1.194  1.00  0.00     0.171 C 
HETATM   18  C   UNL     1      37.746 -13.365   0.118  1.00  0.00     0.034 C 
ENDBRANCH  16  17
ENDBRANCH  11  16
ENDBRANCH   6  10
ENDBRANCH   1   3
BRANCH   1  19
HETATM   19  C   UNL     1      41.465 -17.120   3.221  1.00  0.00     0.253 C 
HETATM   20  N   UNL     1      41.786 -17.917   4.286  1.00  0.00    -0.325 N 
HETATM   21  H   UNL     1      40.995 -18.477   4.597  1.00  0.00     0.169 HD
HETATM   22  O   UNL     1      40.390 -17.326   2.647  1.00  0.00    -0.271 OA
BRANCH  20  23
HETATM   23  C   UNL     1      42.924 -17.915   5.114  1.00  0.00     0.045 A 
HETATM   24  C   UNL     1      44.057 -18.745   4.933  1.00  0.00     0.001 A 
HETATM   25  C   UNL     1      45.157 -18.536   5.795  1.00  0.00     0.014 A 
HETATM   26  C   UNL     1      45.123 -17.584   6.815  1.00  0.00     0.001 A 
HETATM   27  C   UNL     1      43.970 -16.842   7.029  1.00  0.00     0.002 A 
HETATM   28  C   UNL     1      42.869 -17.023   6.197  1.00  0.00     0.030 A 
BRANCH  24  29
HETATM   29  C   UNL     1      44.104 -19.899   4.004  1.00  0.00    -0.024 A 
HETATM   30  C   UNL     1      43.768 -19.759   2.643  1.00  0.00     0.012 A 
HETATM   31  C   UNL     1      43.861 -20.838   1.759  1.00  0.00     0.001 A 
HETATM   32  C   UNL     1      44.296 -22.079   2.217  1.00  0.00     0.000 A 
HETATM   33  C   UNL     1      44.640 -22.239   3.555  1.00  0.00     0.001 A 
HETATM   34  C   UNL     1      44.548 -21.160   4.437  1.00  0.00     0.012 A 
ENDBRANCH  24  29
ENDBRANCH  20  23
ENDBRANCH   1  19
TORSDOF 7
ENDMDL
MODEL 7
REMARK VINA RESULT:      -7.8      1.086      2.138
REMARK  7 active torsions:
REMARK  status: ('A' for Active; 'I' for Inactive)
REMARK    1  A    between atoms: C_2  and  O_3 
REMARK    2  A    between atoms: O_3  and  C_4 
REMARK    3  A    between atoms: C_5  and  N_6 
REMARK    4  A    between atoms: N_9  and  C_11 
REMARK    5  A    between atoms: C_11  and  C_12 
REMARK       I    between atoms: C_12  and  N_13 
REMARK    6  A    between atoms: N_13  and  C_14 
REMARK    7  A    between atoms: C_15  and  C_16 
ROOT
HETATM    1  C   UNL     1      40.956 -14.978   3.548  1.00  0.00     0.275 C 
HETATM    2  C   UNL     1      40.144 -14.738   4.821  1.00  0.00     0.050 C 
ENDROOT
BRANCH   1   3
HETATM    3  N   UNL     1      40.227 -14.282   2.365  1.00  0.00    -0.056 N 
HETATM    4  C   UNL     1      41.058 -14.132   1.078  1.00  0.00     0.255 C 
HETATM    5  C   UNL     1      40.259 -13.324   0.025  1.00  0.00     0.150 C 
HETATM    6  N   UNL     1      38.946 -13.966  -0.218  1.00  0.00    -0.375 N 
HETATM    7  C   UNL     1      38.121 -14.158   0.984  1.00  0.00     0.150 C 
HETATM    8  C   UNL     1      38.902 -14.968   2.034  1.00  0.00     0.255 C 
HETATM    9  H   UNL     1      39.998 -13.332   2.676  1.00  0.00     0.281 HD
BRANCH   6  10
HETATM   10  C   UNL     1      38.299 -13.575  -1.410  1.00  0.00     0.064 A 
HETATM   11  C   UNL     1      37.727 -12.280  -1.555  1.00  0.00     0.095 A 
HETATM   12  C   UNL     1      37.125 -11.904  -2.767  1.00  0.00     0.039 A 
HETATM   13  C   UNL     1      37.081 -12.786  -3.846  1.00  0.00     0.003 A 
HETATM   14  C   UNL     1      37.637 -14.050  -3.724  1.00  0.00     0.002 A 
HETATM   15  C   UNL     1      38.238 -14.437  -2.524  1.00  0.00     0.032 A 
BRANCH  11  16
HETATM   16  O   UNL     1      37.847 -11.427  -0.478  1.00  0.00    -0.349 OA
BRANCH  16  17
HETATM   17  C   UNL     1      36.769 -10.522  -0.235  1.00  0.00     0.171 C 
HETATM   18  C   UNL     1      35.768 -11.210   0.677  1.00  0.00     0.034 C 
ENDBRANCH  16  17
ENDBRANCH  11  16
ENDBRANCH   6  10
ENDBRANCH   1   3
BRANCH   1  19
HETATM   19  C   UNL     1      42.414 -14.502   3.722  1.00  0.00     0.253 C 
HETATM   20  N   UNL     1      43.467 -15.274   3.307  1.00  0.00    -0.325 N 
HETATM   21  H   UNL     1      44.305 -14.721   3.143  1.00  0.00     0.169 HD
HETATM   22  O   UNL     1      42.648 -13.334   4.053  1.00  0.00    -0.271 OA
BRANCH  20  23
HETATM   23  C   UNL     1      43.500 -16.615   2.881  1.00  0.00     0.045 A 
HETATM   24  C   UNL     1      43.402 -17.738   3.738  1.00  0.00     0.001 A 
HETATM   25  C   UNL     1      43.345 -19.012   3.131  1.00  0.00     0.014 A 
HETATM   26  C   UNL     1      43.425 -19.173   1.747  1.00  0.00     0.001 A 
HETATM   27  C   UNL     1      43.608 -18.065   0.932  1.00  0.00     0.002 A 
HETATM   28  C   UNL     1      43.667 -16.794   1.499  1.00  0.00     0.030 A 
BRANCH  24  29
HETATM   29  C   UNL     1      43.500 -17.669   5.216  1.00  0.00    -0.024 A 
HETATM   30  C   UNL     1      42.383 -17.348   6.011  1.00  0.00     0.012 A 
HETATM   31  C   UNL     1      42.467 -17.333   7.407  1.00  0.00     0.001 A 
HETATM   32  C   UNL     1      43.670 -17.640   8.035  1.00  0.00     0.000 A 
HETATM   33  C   UNL     1      44.786 -17.967   7.271  1.00  0.00     0.001 A 
HETATM   34  C   UNL     1      44.700 -17.984   5.877  1.00  0.00     0.012 A 
ENDBRANCH  24  29
ENDBRANCH  20  23
ENDBRANCH   1  19
TORSDOF 7
ENDMDL
MODEL 8
REMARK VINA RESULT:      -7.8      1.594      3.501
REMARK  7 active torsions:
REMARK  status: ('A' for Active; 'I' for Inactive)
REMARK    1  A    between atoms: C_2  and  O_3 
REMARK    2  A    between atoms: O_3  and  C_4 
REMARK    3  A    between atoms: C_5  and  N_6 
REMARK    4  A    between atoms: N_9  and  C_11 
REMARK    5  A    between atoms: C_11  and  C_12 
REMARK       I    between atoms: C_12  and  N_13 
REMARK    6  A    between atoms: N_13  and  C_14 
REMARK    7  A    between atoms: C_15  and  C_16 
ROOT
HETATM    1  C   UNL     1      41.601 -15.324   4.391  1.00  0.00     0.275 C 
HETATM    2  C   UNL     1      41.059 -14.399   5.481  1.00  0.00     0.050 C 
ENDROOT
BRANCH   1   3
HETATM    3  N   UNL     1      40.799 -15.064   3.086  1.00  0.00    -0.056 N 
HETATM    4  C   UNL     1      40.532 -13.582   2.764  1.00  0.00     0.255 C 
HETATM    5  C   UNL     1      39.630 -13.470   1.509  1.00  0.00     0.150 C 
HETATM    6  N   UNL     1      40.246 -14.196   0.375  1.00  0.00    -0.375 N 
HETATM    7  C   UNL     1      40.547 -15.611   0.638  1.00  0.00     0.150 C 
HETATM    8  C   UNL     1      41.450 -15.734   1.877  1.00  0.00     0.255 C 
HETATM    9  H   UNL     1      39.882 -15.504   3.209  1.00  0.00     0.281 HD
BRANCH   6  10
HETATM   10  C   UNL     1      39.747 -13.851  -0.901  1.00  0.00     0.064 A 
HETATM   11  C   UNL     1      40.618 -13.527  -1.977  1.00  0.00     0.095 A 
HETATM   12  C   UNL     1      40.095 -13.229  -3.245  1.00  0.00     0.039 A 
HETATM   13  C   UNL     1      38.720 -13.248  -3.473  1.00  0.00     0.003 A 
HETATM   14  C   UNL     1      37.855 -13.566  -2.437  1.00  0.00     0.002 A 
HETATM   15  C   UNL     1      38.363 -13.864  -1.170  1.00  0.00     0.032 A 
BRANCH  11  16
HETATM   16  O   UNL     1      41.971 -13.577  -1.714  1.00  0.00    -0.349 OA
BRANCH  16  17
HETATM   17  C   UNL     1      42.782 -12.530  -2.249  1.00  0.00     0.171 C 
HETATM   18  C   UNL     1      42.909 -11.443  -1.196  1.00  0.00     0.034 C 
ENDBRANCH  16  17
ENDBRANCH  11  16
ENDBRANCH   6  10
ENDBRANCH   1   3
BRANCH   1  19
HETATM   19  C   UNL     1      43.123 -15.135   4.212  1.00  0.00     0.253 C 
HETATM   20  N   UNL     1      44.019 -15.956   4.844  1.00  0.00    -0.325 N 
HETATM   21  H   UNL     1      44.922 -15.968   4.377  1.00  0.00     0.169 HD
HETATM   22  O   UNL     1      43.553 -14.373   3.339  1.00  0.00    -0.271 OA
BRANCH  20  23
HETATM   23  C   UNL     1      43.820 -16.908   5.861  1.00  0.00     0.045 A 
HETATM   24  C   UNL     1      43.845 -18.311   5.672  1.00  0.00     0.001 A 
HETATM   25  C   UNL     1      43.732 -19.122   6.822  1.00  0.00     0.014 A 
HETATM   26  C   UNL     1      43.558 -18.575   8.095  1.00  0.00     0.001 A 
HETATM   27  C   UNL     1      43.450 -17.200   8.247  1.00  0.00     0.002 A 
HETATM   28  C   UNL     1      43.558 -16.372   7.132  1.00  0.00     0.030 A 
BRANCH  24  29
HETATM   29  C   UNL     1      43.837 -18.972   4.345  1.00  0.00    -0.024 A 
HETATM   30  C   UNL     1      44.758 -19.988   4.025  1.00  0.00     0.012 A 
HETATM   31  C   UNL     1      44.716 -20.644   2.791  1.00  0.00     0.001 A 
HETATM   32  C   UNL     1      43.748 -20.299   1.852  1.00  0.00     0.000 A 
HETATM   33  C   UNL     1      42.822 -19.303   2.148  1.00  0.00     0.001 A 
HETATM   34  C   UNL     1      42.865 -18.650   3.382  1.00  0.00     0.012 A 
ENDBRANCH  24  29
ENDBRANCH  20  23
ENDBRANCH   1  19
TORSDOF 7
ENDMDL
MODEL 9
REMARK VINA RESULT:      -7.7      2.025      2.669
REMARK  7 active torsions:
REMARK  status: ('A' for Active; 'I' for Inactive)
REMARK    1  A    between atoms: C_2  and  O_3 
REMARK    2  A    between atoms: O_3  and  C_4 
REMARK    3  A    between atoms: C_5  and  N_6 
REMARK    4  A    between atoms: N_9  and  C_11 
REMARK    5  A    between atoms: C_11  and  C_12 
REMARK       I    between atoms: C_12  and  N_13 
REMARK    6  A    between atoms: N_13  and  C_14 
REMARK    7  A    between atoms: C_15  and  C_16 
ROOT
HETATM    1  C   UNL     1      41.172 -15.003   3.280  1.00  0.00     0.275 C 
HETATM    2  C   UNL     1      40.189 -14.588   4.375  1.00  0.00     0.050 C 
ENDROOT
BRANCH   1   3
HETATM    3  N   UNL     1      40.723 -14.346   1.946  1.00  0.00    -0.056 N 
HETATM    4  C   UNL     1      40.839 -12.811   1.898  1.00  0.00     0.255 C 
HETATM    5  C   UNL     1      40.253 -12.280   0.565  1.00  0.00     0.150 C 
HETATM    6  N   UNL     1      40.922 -12.937  -0.581  1.00  0.00    -0.375 N 
HETATM    7  C   UNL     1      40.865 -14.406  -0.571  1.00  0.00     0.150 C 
HETATM    8  C   UNL     1      41.453 -14.946   0.745  1.00  0.00     0.255 C 
HETATM    9  H   UNL     1      39.729 -14.566   1.827  1.00  0.00     0.281 HD
BRANCH   6  10
HETATM   10  C   UNL     1      40.774 -12.277  -1.821  1.00  0.00     0.064 A 
HETATM   11  C   UNL     1      41.845 -11.545  -2.405  1.00  0.00     0.095 A 
HETATM   12  C   UNL     1      41.682 -10.934  -3.659  1.00  0.00     0.039 A 
HETATM   13  C   UNL     1      40.476 -11.035  -4.352  1.00  0.00     0.003 A 
HETATM   14  C   UNL     1      39.423 -11.747  -3.799  1.00  0.00     0.002 A 
HETATM   15  C   UNL     1      39.572 -12.360  -2.553  1.00  0.00     0.032 A 
BRANCH  11  16
HETATM   16  O   UNL     1      43.033 -11.523  -1.706  1.00  0.00    -0.349 OA
BRANCH  16  17
HETATM   17  C   UNL     1      43.608 -10.245  -1.430  1.00  0.00     0.171 C 
HETATM   18  C   UNL     1      42.834  -9.616  -0.284  1.00  0.00     0.034 C 
ENDBRANCH  16  17
ENDBRANCH  11  16
ENDBRANCH   6  10
ENDBRANCH   1   3
BRANCH   1  19
HETATM   19  C   UNL     1      42.622 -14.643   3.672  1.00  0.00     0.253 C 
HETATM   20  N   UNL     1      43.661 -15.494   3.407  1.00  0.00    -0.325 N 
HETATM   21  H   UNL     1      44.554 -15.009   3.374  1.00  0.00     0.169 HD
HETATM   22  O   UNL     1      42.894 -13.497   4.047  1.00  0.00    -0.271 OA
BRANCH  20  23
HETATM   23  C   UNL     1      43.651 -16.834   2.974  1.00  0.00     0.045 A 
HETATM   24  C   UNL     1      43.472 -17.955   3.820  1.00  0.00     0.001 A 
HETATM   25  C   UNL     1      43.382 -19.223   3.204  1.00  0.00     0.014 A 
HETATM   26  C   UNL     1      43.509 -19.381   1.823  1.00  0.00     0.001 A 
HETATM   27  C   UNL     1      43.772 -18.279   1.022  1.00  0.00     0.002 A 
HETATM   28  C   UNL     1      43.864 -17.015   1.598  1.00  0.00     0.030 A 
BRANCH  24  29
HETATM   29  C   UNL     1      43.516 -17.897   5.301  1.00  0.00    -0.024 A 
HETATM   30  C   UNL     1      44.687 -18.218   6.013  1.00  0.00     0.012 A 
HETATM   31  C   UNL     1      44.740 -18.113   7.407  1.00  0.00     0.001 A 
HETATM   32  C   UNL     1      43.623 -17.683   8.115  1.00  0.00     0.000 A 
HETATM   33  C   UNL     1      42.456 -17.353   7.433  1.00  0.00     0.001 A 
HETATM   34  C   UNL     1      42.405 -17.456   6.041  1.00  0.00     0.012 A 
ENDBRANCH  24  29
ENDBRANCH  20  23
ENDBRANCH   1  19
TORSDOF 7
ENDMDL
MODEL 10
REMARK VINA RESULT:      -7.7      2.257      4.061
REMARK  7 active torsions:
REMARK  status: ('A' for Active; 'I' for Inactive)
REMARK    1  A    between atoms: C_2  and  O_3 
REMARK    2  A    between atoms: O_3  and  C_4 
REMARK    3  A    between atoms: C_5  and  N_6 
REMARK    4  A    between atoms: N_9  and  C_11 
REMARK    5  A    between atoms: C_11  and  C_12 
REMARK       I    between atoms: C_12  and  N_13 
REMARK    6  A    between atoms: N_13  and  C_14 
REMARK    7  A    between atoms: C_15  and  C_16 
ROOT
HETATM    1  C   UNL     1      43.112 -16.606   1.916  1.00  0.00     0.275 C 
HETATM    2  C   UNL     1      44.364 -17.281   1.356  1.00  0.00     0.050 C 
ENDROOT
BRANCH   1   3
HETATM    3  N   UNL     1      42.512 -15.695   0.810  1.00  0.00    -0.056 N 
HETATM    4  C   UNL     1      41.554 -16.396  -0.171  1.00  0.00     0.255 C 
HETATM    5  C   UNL     1      41.122 -15.409  -1.284  1.00  0.00     0.150 C 
HETATM    6  N   UNL     1      40.529 -14.193  -0.682  1.00  0.00    -0.375 N 
HETATM    7  C   UNL     1      41.392 -13.498   0.284  1.00  0.00     0.150 C 
HETATM    8  C   UNL     1      41.819 -14.467   1.400  1.00  0.00     0.255 C 
HETATM    9  H   UNL     1      43.298 -15.349   0.251  1.00  0.00     0.281 HD
BRANCH   6  10
HETATM   10  C   UNL     1      39.750 -13.408  -1.560  1.00  0.00     0.064 A 
HETATM   11  C   UNL     1      38.453 -12.950  -1.195  1.00  0.00     0.095 A 
HETATM   12  C   UNL     1      37.719 -12.135  -2.072  1.00  0.00     0.039 A 
HETATM   13  C   UNL     1      38.245 -11.760  -3.307  1.00  0.00     0.003 A 
HETATM   14  C   UNL     1      39.508 -12.193  -3.678  1.00  0.00     0.002 A 
HETATM   15  C   UNL     1      40.249 -13.004  -2.815  1.00  0.00     0.032 A 
BRANCH  11  16
HETATM   16  O   UNL     1      38.003 -13.303   0.059  1.00  0.00    -0.349 OA
BRANCH  16  17
HETATM   17  C   UNL     1      36.970 -12.501   0.635  1.00  0.00     0.171 C 
HETATM   18  C   UNL     1      37.608 -11.551   1.633  1.00  0.00     0.034 C 
ENDBRANCH  16  17
ENDBRANCH  11  16
ENDBRANCH   6  10
ENDBRANCH   1   3
BRANCH   1  19
HETATM   19  C   UNL     1      42.108 -17.653   2.446  1.00  0.00     0.253 C 
HETATM   20  N   UNL     1      42.136 -18.065   3.752  1.00  0.00    -0.325 N 
HETATM   21  H   UNL     1      41.243 -18.448   4.051  1.00  0.00     0.169 HD
HETATM   22  O   UNL     1      41.138 -17.983   1.756  1.00  0.00    -0.271 OA
BRANCH  20  23
HETATM   23  C   UNL     1      43.099 -17.844   4.755  1.00  0.00     0.045 A 
HETATM   24  C   UNL     1      44.213 -18.681   5.005  1.00  0.00     0.001 A 
HETATM   25  C   UNL     1      45.139 -18.252   5.982  1.00  0.00     0.014 A 
HETATM   26  C   UNL     1      44.950 -17.076   6.709  1.00  0.00     0.001 A 
HETATM   27  C   UNL     1      43.806 -16.316   6.509  1.00  0.00     0.002 A 
HETATM   28  C   UNL     1      42.875 -16.710   5.553  1.00  0.00     0.030 A 
BRANCH  24  29
HETATM   29  C   UNL     1      44.389 -20.030   4.416  1.00  0.00    -0.024 A 
HETATM   30  C   UNL     1      44.597 -21.163   5.226  1.00  0.00     0.012 A 
HETATM   31  C   UNL     1      44.713 -22.441   4.669  1.00  0.00     0.001 A 
HETATM   32  C   UNL     1      44.621 -22.611   3.291  1.00  0.00     0.000 A 
HETATM   33  C   UNL     1      44.409 -21.508   2.471  1.00  0.00     0.001 A 
HETATM   34  C   UNL     1      44.291 -20.232   3.028  1.00  0.00     0.012 A 
ENDBRANCH  24  29
ENDBRANCH  20  23
ENDBRANCH   1  19
TORSDOF 7
ENDMDL
