MODEL 1
REMARK VINA RESULT:      -9.1      0.000      0.000
REMARK  6 active torsions:
REMARK  status: ('A' for Active; 'I' for Inactive)
REMARK    1  A    between atoms: C_3  and  C_4 
REMARK    2  A    between atoms: C_5  and  C_6 
REMARK       I    between atoms: C_6  and  N_7 
REMARK    3  A    between atoms: N_7  and  C_8 
REMARK    4  A    between atoms: C_8  and  C_9 
REMARK    5  A    between atoms: C_11  and  O_12 
REMARK    6  A    between atoms: O_12  and  C_13 
ROOT
HETATM    1  C   UNL     1      44.702 -14.156   6.776  1.00  0.00     0.161 C 
ENDROOT
BRANCH   1   2
HETATM    2  N   UNL     1      44.434 -13.526   8.051  1.00  0.00    -0.353 N 
HETATM    3  C   UNL     1      45.309 -12.626   8.596  1.00  0.00     0.241 C 
HETATM    4  O   UNL     1      46.388 -12.329   8.104  1.00  0.00    -0.269 OA
HETATM    5  H   UNL     1      43.582 -13.780   8.533  1.00  0.00     0.163 HD
BRANCH   3   6
HETATM    6  C   UNL     1      44.799 -12.027   9.856  1.00  0.00     0.075 C 
HETATM    7  C   UNL     1      43.686 -11.278   9.838  1.00  0.00     0.018 C 
BRANCH   7   8
HETATM    8  C   UNL     1      43.080 -10.694  11.048  1.00  0.00    -0.014 A 
HETATM    9  C   UNL     1      43.899 -10.303  12.122  1.00  0.00     0.013 A 
HETATM   10  C   UNL     1      43.352  -9.729  13.273  1.00  0.00     0.001 A 
HETATM   11  C   UNL     1      41.978  -9.524  13.366  1.00  0.00     0.002 A 
HETATM   12  C   UNL     1      41.151  -9.889  12.304  1.00  0.00     0.024 A 
HETATM   13  C   UNL     1      41.695 -10.466  11.151  1.00  0.00     0.044 A 
HETATM   14 CL   UNL     1      40.592 -10.902   9.890  1.00  0.00    -0.083 Cl
ENDBRANCH   7   8
ENDBRANCH   3   6
ENDBRANCH   1   2
BRANCH   1  15
HETATM   15  C   UNL     1      43.968 -15.467   6.655  1.00  0.00    -0.038 A 
HETATM   16  C   UNL     1      43.658 -15.990   5.390  1.00  0.00     0.046 A 
HETATM   17  C   UNL     1      42.909 -17.162   5.270  1.00  0.00     0.078 A 
HETATM   18  C   UNL     1      42.552 -17.879   6.409  1.00  0.00     0.037 A 
HETATM   19  C   UNL     1      42.896 -17.395   7.672  1.00  0.00     0.003 A 
HETATM   20  C   UNL     1      43.593 -16.190   7.795  1.00  0.00     0.009 A 
BRANCH  17  21
HETATM   21  O   UNL     1      42.570 -17.697   4.051  1.00  0.00    -0.292 OA
BRANCH  21  22
HETATM   22  C   UNL     1      43.272 -18.822   3.623  1.00  0.00     0.169 A 
HETATM   23  N   UNL     1      44.242 -19.362   4.400  1.00  0.00    -0.237 NA
HETATM   24  C   UNL     1      44.897 -20.431   3.896  1.00  0.00     0.119 A 
HETATM   25  C   UNL     1      44.630 -20.985   2.654  1.00  0.00     0.019 A 
HETATM   26  C   UNL     1      43.635 -20.404   1.873  1.00  0.00     0.006 A 
HETATM   27  C   UNL     1      42.946 -19.297   2.360  1.00  0.00     0.058 A 
ENDBRANCH  21  22
ENDBRANCH  17  21
ENDBRANCH   1  15
TORSDOF 6
ENDMDL
MODEL 2
REMARK VINA RESULT:      -9.0      1.275      1.663
REMARK  6 active torsions:
REMARK  status: ('A' for Active; 'I' for Inactive)
REMARK    1  A    between atoms: C_3  and  C_4 
REMARK    2  A    between atoms: C_5  and  C_6 
REMARK       I    between atoms: C_6  and  N_7 
REMARK    3  A    between atoms: N_7  and  C_8 
REMARK    4  A    between atoms: C_8  and  C_9 
REMARK    5  A    between atoms: C_11  and  O_12 
REMARK    6  A    between atoms: O_12  and  C_13 
ROOT
HETATM    1  C   UNL     1      44.540 -13.978   6.858  1.00  0.00     0.161 C 
ENDROOT
BRANCH   1   2
HETATM    2  N   UNL     1      44.317 -13.328   8.131  1.00  0.00    -0.353 N 
HETATM    3  C   UNL     1      45.268 -12.521   8.693  1.00  0.00     0.241 C 
HETATM    4  O   UNL     1      46.379 -12.330   8.219  1.00  0.00    -0.269 OA
HETATM    5  H   UNL     1      43.437 -13.498   8.600  1.00  0.00     0.163 HD
BRANCH   3   6
HETATM    6  C   UNL     1      44.801 -11.877   9.948  1.00  0.00     0.075 C 
HETATM    7  C   UNL     1      43.582 -11.319  10.000  1.00  0.00     0.018 C 
BRANCH   7   8
HETATM    8  C   UNL     1      43.018 -10.711  11.218  1.00  0.00    -0.014 A 
HETATM    9  C   UNL     1      43.877 -10.214  12.214  1.00  0.00     0.013 A 
HETATM   10  C   UNL     1      43.368  -9.615  13.370  1.00  0.00     0.001 A 
HETATM   11  C   UNL     1      41.993  -9.492  13.546  1.00  0.00     0.002 A 
HETATM   12  C   UNL     1      41.125  -9.963  12.562  1.00  0.00     0.024 A 
HETATM   13  C   UNL     1      41.630 -10.566  11.404  1.00  0.00     0.044 A 
HETATM   14 CL   UNL     1      40.480 -11.136  10.243  1.00  0.00    -0.083 Cl
ENDBRANCH   7   8
ENDBRANCH   3   6
ENDBRANCH   1   2
BRANCH   1  15
HETATM   15  C   UNL     1      43.769 -15.269   6.767  1.00  0.00    -0.038 A 
HETATM   16  C   UNL     1      43.073 -15.597   5.593  1.00  0.00     0.046 A 
HETATM   17  C   UNL     1      42.290 -16.752   5.529  1.00  0.00     0.078 A 
HETATM   18  C   UNL     1      42.280 -17.644   6.598  1.00  0.00     0.037 A 
HETATM   19  C   UNL     1      43.007 -17.355   7.754  1.00  0.00     0.003 A 
HETATM   20  C   UNL     1      43.741 -16.169   7.842  1.00  0.00     0.009 A 
BRANCH  17  21
HETATM   21  O   UNL     1      41.580 -17.098   4.405  1.00  0.00    -0.292 OA
BRANCH  21  22
HETATM   22  C   UNL     1      42.291 -17.263   3.219  1.00  0.00     0.169 A 
HETATM   23  N   UNL     1      42.052 -16.456   2.157  1.00  0.00    -0.237 NA
HETATM   24  C   UNL     1      42.761 -16.705   1.034  1.00  0.00     0.119 A 
HETATM   25  C   UNL     1      43.696 -17.722   0.921  1.00  0.00     0.019 A 
HETATM   26  C   UNL     1      43.914 -18.542   2.024  1.00  0.00     0.006 A 
HETATM   27  C   UNL     1      43.195 -18.316   3.194  1.00  0.00     0.058 A 
ENDBRANCH  21  22
ENDBRANCH  17  21
ENDBRANCH   1  15
TORSDOF 6
ENDMDL
MODEL 3
REMARK VINA RESULT:      -9.0      4.576      8.437
REMARK  6 active torsions:
REMARK  status: ('A' for Active; 'I' for Inactive)
REMARK    1  A    between atoms: C_3  and  C_4 
REMARK    2  A    between atoms: C_5  and  C_6 
REMARK       I    between atoms: C_6  and  N_7 
REMARK    3  A    between atoms: N_7  and  C_8 
REMARK    4  A    between atoms: C_8  and  C_9 
REMARK    5  A    between atoms: C_11  and  O_12 
REMARK    6  A    between atoms: O_12  and  C_13 
ROOT
HETATM    1  C   UNL     1      44.034 -15.015   6.759  1.00  0.00     0.161 C 
ENDROOT
BRANCH   1   2
HETATM    2  N   UNL     1      44.096 -16.397   6.335  1.00  0.00    -0.353 N 
HETATM    3  C   UNL     1      43.777 -17.416   7.191  1.00  0.00     0.241 C 
HETATM    4  O   UNL     1      43.482 -17.263   8.367  1.00  0.00    -0.269 OA
HETATM    5  H   UNL     1      44.392 -16.588   5.387  1.00  0.00     0.163 HD
BRANCH   3   6
HETATM    6  C   UNL     1      43.811 -18.746   6.530  1.00  0.00     0.075 C 
HETATM    7  C   UNL     1      44.358 -18.874   5.312  1.00  0.00     0.018 C 
BRANCH   7   8
HETATM    8  C   UNL     1      44.486 -20.163   4.608  1.00  0.00    -0.014 A 
HETATM    9  C   UNL     1      44.690 -21.344   5.345  1.00  0.00     0.013 A 
HETATM   10  C   UNL     1      44.795 -22.582   4.704  1.00  0.00     0.001 A 
HETATM   11  C   UNL     1      44.685 -22.663   3.319  1.00  0.00     0.002 A 
HETATM   12  C   UNL     1      44.465 -21.507   2.573  1.00  0.00     0.024 A 
HETATM   13  C   UNL     1      44.362 -20.264   3.210  1.00  0.00     0.044 A 
HETATM   14 CL   UNL     1      44.104 -18.879   2.205  1.00  0.00    -0.083 Cl
ENDBRANCH   7   8
ENDBRANCH   3   6
ENDBRANCH   1   2
BRANCH   1  15
HETATM   15  C   UNL     1      42.899 -14.291   6.081  1.00  0.00    -0.038 A 
HETATM   16  C   UNL     1      42.026 -14.986   5.229  1.00  0.00     0.046 A 
HETATM   17  C   UNL     1      41.022 -14.309   4.534  1.00  0.00     0.078 A 
HETATM   18  C   UNL     1      40.813 -12.951   4.763  1.00  0.00     0.037 A 
HETATM   19  C   UNL     1      41.643 -12.258   5.645  1.00  0.00     0.003 A 
HETATM   20  C   UNL     1      42.687 -12.923   6.295  1.00  0.00     0.009 A 
BRANCH  17  21
HETATM   21  O   UNL     1      40.159 -14.949   3.678  1.00  0.00    -0.292 OA
BRANCH  21  22
HETATM   22  C   UNL     1      40.689 -15.474   2.501  1.00  0.00     0.169 A 
HETATM   23  N   UNL     1      41.284 -14.661   1.594  1.00  0.00    -0.237 NA
HETATM   24  C   UNL     1      41.741 -15.246   0.465  1.00  0.00     0.119 A 
HETATM   25  C   UNL     1      41.632 -16.602   0.199  1.00  0.00     0.019 A 
HETATM   26  C   UNL     1      41.008 -17.411   1.143  1.00  0.00     0.006 A 
HETATM   27  C   UNL     1      40.519 -16.839   2.314  1.00  0.00     0.058 A 
ENDBRANCH  21  22
ENDBRANCH  17  21
ENDBRANCH   1  15
TORSDOF 6
ENDMDL
MODEL 4
REMARK VINA RESULT:      -8.9      6.897     10.394
REMARK  6 active torsions:
REMARK  status: ('A' for Active; 'I' for Inactive)
REMARK    1  A    between atoms: C_3  and  C_4 
REMARK    2  A    between atoms: C_5  and  C_6 
REMARK       I    between atoms: C_6  and  N_7 
REMARK    3  A    between atoms: N_7  and  C_8 
REMARK    4  A    between atoms: C_8  and  C_9 
REMARK    5  A    between atoms: C_11  and  O_12 
REMARK    6  A    between atoms: O_12  and  C_13 
ROOT
HETATM    1  C   UNL     1      39.691 -14.938   2.880  1.00  0.00     0.161 C 
ENDROOT
BRANCH   1   2
HETATM    2  N   UNL     1      40.341 -16.226   2.979  1.00  0.00    -0.353 N 
HETATM    3  C   UNL     1      41.622 -16.342   3.449  1.00  0.00     0.241 C 
HETATM    4  O   UNL     1      42.331 -15.396   3.759  1.00  0.00    -0.269 OA
HETATM    5  H   UNL     1      39.823 -17.042   2.680  1.00  0.00     0.163 HD
BRANCH   3   6
HETATM    6  C   UNL     1      42.062 -17.756   3.561  1.00  0.00     0.075 C 
HETATM    7  C   UNL     1      43.070 -18.205   2.797  1.00  0.00     0.018 C 
BRANCH   7   8
HETATM    8  C   UNL     1      43.609 -19.574   2.884  1.00  0.00    -0.014 A 
HETATM    9  C   UNL     1      43.359 -20.490   1.847  1.00  0.00     0.013 A 
HETATM   10  C   UNL     1      43.874 -21.789   1.895  1.00  0.00     0.001 A 
HETATM   11  C   UNL     1      44.657 -22.191   2.974  1.00  0.00     0.002 A 
HETATM   12  C   UNL     1      44.930 -21.292   4.003  1.00  0.00     0.024 A 
HETATM   13  C   UNL     1      44.414 -19.991   3.960  1.00  0.00     0.044 A 
HETATM   14 CL   UNL     1      44.791 -18.947   5.288  1.00  0.00    -0.083 Cl
ENDBRANCH   7   8
ENDBRANCH   3   6
ENDBRANCH   1   2
BRANCH   1  15
HETATM   15  C   UNL     1      39.416 -14.580   1.443  1.00  0.00    -0.038 A 
HETATM   16  C   UNL     1      40.438 -14.667   0.484  1.00  0.00     0.046 A 
HETATM   17  C   UNL     1      40.214 -14.260  -0.833  1.00  0.00     0.078 A 
HETATM   18  C   UNL     1      38.940 -13.862  -1.230  1.00  0.00     0.037 A 
HETATM   19  C   UNL     1      37.903 -13.817  -0.298  1.00  0.00     0.003 A 
HETATM   20  C   UNL     1      38.142 -14.166   1.034  1.00  0.00     0.009 A 
BRANCH  17  21
HETATM   21  O   UNL     1      41.193 -14.313  -1.796  1.00  0.00    -0.292 OA
BRANCH  21  22
HETATM   22  C   UNL     1      41.747 -13.107  -2.219  1.00  0.00     0.169 A 
HETATM   23  N   UNL     1      42.358 -12.284  -1.332  1.00  0.00    -0.237 NA
HETATM   24  C   UNL     1      42.838 -11.119  -1.819  1.00  0.00     0.119 A 
HETATM   25  C   UNL     1      42.737 -10.736  -3.147  1.00  0.00     0.019 A 
HETATM   26  C   UNL     1      42.095 -11.595  -4.033  1.00  0.00     0.006 A 
HETATM   27  C   UNL     1      41.583 -12.801  -3.563  1.00  0.00     0.058 A 
ENDBRANCH  21  22
ENDBRANCH  17  21
ENDBRANCH   1  15
TORSDOF 6
ENDMDL
MODEL 5
REMARK VINA RESULT:      -8.8      5.480      9.561
REMARK  6 active torsions:
REMARK  status: ('A' for Active; 'I' for Inactive)
REMARK    1  A    between atoms: C_3  and  C_4 
REMARK    2  A    between atoms: C_5  and  C_6 
REMARK       I    between atoms: C_6  and  N_7 
REMARK    3  A    between atoms: N_7  and  C_8 
REMARK    4  A    between atoms: C_8  and  C_9 
REMARK    5  A    between atoms: C_11  and  O_12 
REMARK    6  A    between atoms: O_12  and  C_13 
ROOT
HETATM    1  C   UNL     1      40.935 -16.161   0.400  1.00  0.00     0.161 C 
ENDROOT
BRANCH   1   2
HETATM    2  N   UNL     1      41.343 -17.372   1.079  1.00  0.00    -0.353 N 
HETATM    3  C   UNL     1      42.664 -17.650   1.301  1.00  0.00     0.241 C 
HETATM    4  O   UNL     1      43.591 -16.958   0.906  1.00  0.00    -0.269 OA
HETATM    5  H   UNL     1      40.620 -18.014   1.377  1.00  0.00     0.163 HD
BRANCH   3   6
HETATM    6  C   UNL     1      42.860 -18.889   2.097  1.00  0.00     0.075 C 
HETATM    7  C   UNL     1      44.064 -19.163   2.622  1.00  0.00     0.018 C 
BRANCH   7   8
HETATM    8  C   UNL     1      44.332 -20.338   3.471  1.00  0.00    -0.014 A 
HETATM    9  C   UNL     1      44.477 -20.179   4.861  1.00  0.00     0.013 A 
HETATM   10  C   UNL     1      44.713 -21.279   5.691  1.00  0.00     0.001 A 
HETATM   11  C   UNL     1      44.795 -22.558   5.148  1.00  0.00     0.002 A 
HETATM   12  C   UNL     1      44.637 -22.739   3.775  1.00  0.00     0.024 A 
HETATM   13  C   UNL     1      44.404 -21.639   2.940  1.00  0.00     0.044 A 
HETATM   14 CL   UNL     1      44.235 -21.955   1.246  1.00  0.00    -0.083 Cl
ENDBRANCH   7   8
ENDBRANCH   3   6
ENDBRANCH   1   2
BRANCH   1  15
HETATM   15  C   UNL     1      40.506 -15.106   1.387  1.00  0.00    -0.038 A 
HETATM   16  C   UNL     1      40.450 -15.401   2.759  1.00  0.00     0.046 A 
HETATM   17  C   UNL     1      39.977 -14.456   3.671  1.00  0.00     0.078 A 
HETATM   18  C   UNL     1      39.654 -13.172   3.237  1.00  0.00     0.037 A 
HETATM   19  C   UNL     1      39.752 -12.851   1.883  1.00  0.00     0.003 A 
HETATM   20  C   UNL     1      40.168 -13.815   0.961  1.00  0.00     0.009 A 
BRANCH  17  21
HETATM   21  O   UNL     1      39.890 -14.712   5.018  1.00  0.00    -0.292 OA
BRANCH  21  22
HETATM   22  C   UNL     1      41.008 -15.258   5.644  1.00  0.00     0.169 A 
HETATM   23  N   UNL     1      42.170 -14.562   5.702  1.00  0.00    -0.237 NA
HETATM   24  C   UNL     1      43.215 -15.179   6.296  1.00  0.00     0.119 A 
HETATM   25  C   UNL     1      43.156 -16.455   6.833  1.00  0.00     0.019 A 
HETATM   26  C   UNL     1      41.954 -17.150   6.750  1.00  0.00     0.006 A 
HETATM   27  C   UNL     1      40.859 -16.547   6.138  1.00  0.00     0.058 A 
ENDBRANCH  21  22
ENDBRANCH  17  21
ENDBRANCH   1  15
TORSDOF 6
ENDMDL
MODEL 6
REMARK VINA RESULT:      -8.8      5.438      7.706
REMARK  6 active torsions:
REMARK  status: ('A' for Active; 'I' for Inactive)
REMARK    1  A    between atoms: C_3  and  C_4 
REMARK    2  A    between atoms: C_5  and  C_6 
REMARK       I    between atoms: C_6  and  N_7 
REMARK    3  A    between atoms: N_7  and  C_8 
REMARK    4  A    between atoms: C_8  and  C_9 
REMARK    5  A    between atoms: C_11  and  O_12 
REMARK    6  A    between atoms: O_12  and  C_13 
ROOT
HETATM    1  C   UNL     1      40.647 -16.869   6.346  1.00  0.00     0.161 C 
ENDROOT
BRANCH   1   2
HETATM    2  N   UNL     1      40.392 -16.187   5.096  1.00  0.00    -0.353 N 
HETATM    3  C   UNL     1      40.344 -14.821   5.029  1.00  0.00     0.241 C 
HETATM    4  O   UNL     1      40.447 -14.079   5.996  1.00  0.00    -0.269 OA
HETATM    5  H   UNL     1      40.239 -16.752   4.271  1.00  0.00     0.163 HD
BRANCH   3   6
HETATM    6  C   UNL     1      40.169 -14.323   3.641  1.00  0.00     0.075 C 
HETATM    7  C   UNL     1      39.584 -15.105   2.720  1.00  0.00     0.018 C 
BRANCH   7   8
HETATM    8  C   UNL     1      39.319 -14.671   1.336  1.00  0.00    -0.014 A 
HETATM    9  C   UNL     1      38.043 -14.195   0.986  1.00  0.00     0.013 A 
HETATM   10  C   UNL     1      37.769 -13.759  -0.315  1.00  0.00     0.001 A 
HETATM   11  C   UNL     1      38.769 -13.780  -1.283  1.00  0.00     0.002 A 
HETATM   12  C   UNL     1      40.045 -14.232  -0.950  1.00  0.00     0.024 A 
HETATM   13  C   UNL     1      40.322 -14.671   0.350  1.00  0.00     0.044 A 
HETATM   14 CL   UNL     1      41.929 -15.230   0.670  1.00  0.00    -0.083 Cl
ENDBRANCH   7   8
ENDBRANCH   3   6
ENDBRANCH   1   2
BRANCH   1  15
HETATM   15  C   UNL     1      42.091 -17.289   6.448  1.00  0.00    -0.038 A 
HETATM   16  C   UNL     1      42.783 -17.724   5.307  1.00  0.00     0.046 A 
HETATM   17  C   UNL     1      44.096 -18.191   5.407  1.00  0.00     0.078 A 
HETATM   18  C   UNL     1      44.764 -18.130   6.627  1.00  0.00     0.037 A 
HETATM   19  C   UNL     1      44.103 -17.654   7.759  1.00  0.00     0.003 A 
HETATM   20  C   UNL     1      42.770 -17.243   7.673  1.00  0.00     0.009 A 
BRANCH  17  21
HETATM   21  O   UNL     1      44.801 -18.642   4.317  1.00  0.00    -0.292 OA
BRANCH  21  22
HETATM   22  C   UNL     1      44.674 -19.987   3.978  1.00  0.00     0.169 A 
HETATM   23  N   UNL     1      44.963 -20.953   4.883  1.00  0.00    -0.237 NA
HETATM   24  C   UNL     1      44.845 -22.232   4.462  1.00  0.00     0.119 A 
HETATM   25  C   UNL     1      44.454 -22.591   3.182  1.00  0.00     0.019 A 
HETATM   26  C   UNL     1      44.174 -21.578   2.271  1.00  0.00     0.006 A 
HETATM   27  C   UNL     1      44.292 -20.250   2.670  1.00  0.00     0.058 A 
ENDBRANCH  21  22
ENDBRANCH  17  21
ENDBRANCH   1  15
TORSDOF 6
ENDMDL
MODEL 7
REMARK VINA RESULT:      -8.8      4.523      6.923
REMARK  6 active torsions:
REMARK  status: ('A' for Active; 'I' for Inactive)
REMARK    1  A    between atoms: C_3  and  C_4 
REMARK    2  A    between atoms: C_5  and  C_6 
REMARK       I    between atoms: C_6  and  N_7 
REMARK    3  A    between atoms: N_7  and  C_8 
REMARK    4  A    between atoms: C_8  and  C_9 
REMARK    5  A    between atoms: C_11  and  O_12 
REMARK    6  A    between atoms: O_12  and  C_13 
ROOT
HETATM    1  C   UNL     1      43.553 -18.938   1.432  1.00  0.00     0.161 C 
ENDROOT
BRANCH   1   2
HETATM    2  N   UNL     1      43.009 -17.713   1.977  1.00  0.00    -0.353 N 
HETATM    3  C   UNL     1      41.708 -17.351   1.754  1.00  0.00     0.241 C 
HETATM    4  O   UNL     1      40.931 -17.976   1.047  1.00  0.00    -0.269 OA
HETATM    5  H   UNL     1      43.625 -17.124   2.523  1.00  0.00     0.163 HD
BRANCH   3   6
HETATM    6  C   UNL     1      41.327 -16.114   2.481  1.00  0.00     0.075 C 
HETATM    7  C   UNL     1      41.614 -15.990   3.786  1.00  0.00     0.018 C 
BRANCH   7   8
HETATM    8  C   UNL     1      41.324 -14.776   4.571  1.00  0.00    -0.014 A 
HETATM    9  C   UNL     1      40.110 -14.671   5.271  1.00  0.00     0.013 A 
HETATM   10  C   UNL     1      39.817 -13.538   6.039  1.00  0.00     0.001 A 
HETATM   11  C   UNL     1      40.739 -12.499   6.128  1.00  0.00     0.002 A 
HETATM   12  C   UNL     1      41.956 -12.592   5.455  1.00  0.00     0.024 A 
HETATM   13  C   UNL     1      42.251 -13.723   4.683  1.00  0.00     0.044 A 
HETATM   14 CL   UNL     1      43.778 -13.748   3.869  1.00  0.00    -0.083 Cl
ENDBRANCH   7   8
ENDBRANCH   3   6
ENDBRANCH   1   2
BRANCH   1  15
HETATM   15  C   UNL     1      43.934 -19.896   2.531  1.00  0.00    -0.038 A 
HETATM   16  C   UNL     1      44.037 -19.447   3.857  1.00  0.00     0.046 A 
HETATM   17  C   UNL     1      44.468 -20.309   4.868  1.00  0.00     0.078 A 
HETATM   18  C   UNL     1      44.699 -21.653   4.584  1.00  0.00     0.037 A 
HETATM   19  C   UNL     1      44.553 -22.123   3.279  1.00  0.00     0.003 A 
HETATM   20  C   UNL     1      44.181 -21.247   2.255  1.00  0.00     0.009 A 
BRANCH  17  21
HETATM   21  O   UNL     1      44.598 -19.904   6.175  1.00  0.00    -0.292 OA
BRANCH  21  22
HETATM   22  C   UNL     1      44.230 -18.596   6.484  1.00  0.00     0.169 A 
HETATM   23  N   UNL     1      45.136 -17.592   6.406  1.00  0.00    -0.237 NA
HETATM   24  C   UNL     1      44.706 -16.360   6.756  1.00  0.00     0.119 A 
HETATM   25  C   UNL     1      43.416 -16.083   7.180  1.00  0.00     0.019 A 
HETATM   26  C   UNL     1      42.509 -17.135   7.260  1.00  0.00     0.006 A 
HETATM   27  C   UNL     1      42.922 -18.418   6.913  1.00  0.00     0.058 A 
ENDBRANCH  21  22
ENDBRANCH  17  21
ENDBRANCH   1  15
TORSDOF 6
ENDMDL
MODEL 8
REMARK VINA RESULT:      -8.6      6.627      9.997
REMARK  6 active torsions:
REMARK  status: ('A' for Active; 'I' for Inactive)
REMARK    1  A    between atoms: C_3  and  C_4 
REMARK    2  A    between atoms: C_5  and  C_6 
REMARK       I    between atoms: C_6  and  N_7 
REMARK    3  A    between atoms: N_7  and  C_8 
REMARK    4  A    between atoms: C_8  and  C_9 
REMARK    5  A    between atoms: C_11  and  O_12 
REMARK    6  A    between atoms: O_12  and  C_13 
ROOT
HETATM    1  C   UNL     1      39.847 -14.636   3.267  1.00  0.00     0.161 C 
ENDROOT
BRANCH   1   2
HETATM    2  N   UNL     1      40.437 -15.955   3.193  1.00  0.00    -0.353 N 
HETATM    3  C   UNL     1      41.521 -16.292   3.958  1.00  0.00     0.241 C 
HETATM    4  O   UNL     1      42.107 -15.519   4.701  1.00  0.00    -0.269 OA
HETATM    5  H   UNL     1      40.029 -16.620   2.549  1.00  0.00     0.163 HD
BRANCH   3   6
HETATM    6  C   UNL     1      41.907 -17.718   3.803  1.00  0.00     0.075 C 
HETATM    7  C   UNL     1      43.074 -18.034   3.222  1.00  0.00     0.018 C 
BRANCH   7   8
HETATM    8  C   UNL     1      43.562 -19.418   3.078  1.00  0.00    -0.014 A 
HETATM    9  C   UNL     1      43.235 -20.159   1.929  1.00  0.00     0.013 A 
HETATM   10  C   UNL     1      43.700 -21.467   1.759  1.00  0.00     0.001 A 
HETATM   11  C   UNL     1      44.510 -22.052   2.729  1.00  0.00     0.002 A 
HETATM   12  C   UNL     1      44.859 -21.327   3.868  1.00  0.00     0.024 A 
HETATM   13  C   UNL     1      44.393 -20.018   4.043  1.00  0.00     0.044 A 
HETATM   14 CL   UNL     1      44.863 -19.199   5.493  1.00  0.00    -0.083 Cl
ENDBRANCH   7   8
ENDBRANCH   3   6
ENDBRANCH   1   2
BRANCH   1  15
HETATM   15  C   UNL     1      40.274 -13.786   2.098  1.00  0.00    -0.038 A 
HETATM   16  C   UNL     1      39.486 -13.731   0.938  1.00  0.00     0.046 A 
HETATM   17  C   UNL     1      39.914 -13.011  -0.179  1.00  0.00     0.078 A 
HETATM   18  C   UNL     1      41.082 -12.254  -0.113  1.00  0.00     0.037 A 
HETATM   19  C   UNL     1      41.850 -12.262   1.052  1.00  0.00     0.003 A 
HETATM   20  C   UNL     1      41.453 -13.031   2.149  1.00  0.00     0.009 A 
BRANCH  17  21
HETATM   21  O   UNL     1      39.180 -12.946  -1.339  1.00  0.00    -0.292 OA
BRANCH  21  22
HETATM   22  C   UNL     1      39.211 -14.053  -2.184  1.00  0.00     0.169 A 
HETATM   23  N   UNL     1      40.370 -14.722  -2.397  1.00  0.00    -0.237 NA
HETATM   24  C   UNL     1      40.320 -15.763  -3.256  1.00  0.00     0.119 A 
HETATM   25  C   UNL     1      39.169 -16.166  -3.914  1.00  0.00     0.019 A 
HETATM   26  C   UNL     1      37.995 -15.455  -3.685  1.00  0.00     0.006 A 
HETATM   27  C   UNL     1      38.014 -14.373  -2.810  1.00  0.00     0.058 A 
ENDBRANCH  21  22
ENDBRANCH  17  21
ENDBRANCH   1  15
TORSDOF 6
ENDMDL
MODEL 9
REMARK VINA RESULT:      -8.3      6.855     10.343
REMARK  6 active torsions:
REMARK  status: ('A' for Active; 'I' for Inactive)
REMARK    1  A    between atoms: C_3  and  C_4 
REMARK    2  A    between atoms: C_5  and  C_6 
REMARK       I    between atoms: C_6  and  N_7 
REMARK    3  A    between atoms: N_7  and  C_8 
REMARK    4  A    between atoms: C_8  and  C_9 
REMARK    5  A    between atoms: C_11  and  O_12 
REMARK    6  A    between atoms: O_12  and  C_13 
ROOT
HETATM    1  C   UNL     1      41.626 -13.093   1.457  1.00  0.00     0.161 C 
ENDROOT
BRANCH   1   2
HETATM    2  N   UNL     1      42.396 -14.282   1.750  1.00  0.00    -0.353 N 
HETATM    3  C   UNL     1      42.037 -15.129   2.763  1.00  0.00     0.241 C 
HETATM    4  O   UNL     1      41.103 -14.933   3.528  1.00  0.00    -0.269 OA
HETATM    5  H   UNL     1      43.216 -14.465   1.187  1.00  0.00     0.163 HD
BRANCH   3   6
HETATM    6  C   UNL     1      42.900 -16.335   2.831  1.00  0.00     0.075 C 
HETATM    7  C   UNL     1      42.343 -17.550   2.955  1.00  0.00     0.018 C 
BRANCH   7   8
HETATM    8  C   UNL     1      43.120 -18.803   2.973  1.00  0.00    -0.014 A 
HETATM    9  C   UNL     1      43.026 -19.698   1.892  1.00  0.00     0.013 A 
HETATM   10  C   UNL     1      43.767 -20.884   1.875  1.00  0.00     0.001 A 
HETATM   11  C   UNL     1      44.622 -21.189   2.930  1.00  0.00     0.002 A 
HETATM   12  C   UNL     1      44.742 -20.305   4.001  1.00  0.00     0.024 A 
HETATM   13  C   UNL     1      44.000 -19.118   4.024  1.00  0.00     0.044 A 
HETATM   14 CL   UNL     1      44.199 -18.088   5.401  1.00  0.00    -0.083 Cl
ENDBRANCH   7   8
ENDBRANCH   3   6
ENDBRANCH   1   2
BRANCH   1  15
HETATM   15  C   UNL     1      41.886 -12.612   0.053  1.00  0.00    -0.038 A 
HETATM   16  C   UNL     1      41.592 -13.439  -1.043  1.00  0.00     0.046 A 
HETATM   17  C   UNL     1      41.905 -13.035  -2.343  1.00  0.00     0.078 A 
HETATM   18  C   UNL     1      42.417 -11.759  -2.570  1.00  0.00     0.037 A 
HETATM   19  C   UNL     1      42.668 -10.909  -1.493  1.00  0.00     0.003 A 
HETATM   20  C   UNL     1      42.413 -11.336  -0.187  1.00  0.00     0.009 A 
BRANCH  17  21
HETATM   21  O   UNL     1      41.649 -13.821  -3.440  1.00  0.00    -0.292 OA
BRANCH  21  22
HETATM   22  C   UNL     1      40.363 -14.338  -3.577  1.00  0.00     0.169 A 
HETATM   23  N   UNL     1      40.177 -15.643  -3.891  1.00  0.00    -0.237 NA
HETATM   24  C   UNL     1      38.898 -16.054  -4.039  1.00  0.00     0.119 A 
HETATM   25  C   UNL     1      37.798 -15.225  -3.889  1.00  0.00     0.019 A 
HETATM   26  C   UNL     1      38.019 -13.887  -3.577  1.00  0.00     0.006 A 
HETATM   27  C   UNL     1      39.324 -13.429  -3.424  1.00  0.00     0.058 A 
ENDBRANCH  21  22
ENDBRANCH  17  21
ENDBRANCH   1  15
TORSDOF 6
ENDMDL
MODEL 10
REMARK VINA RESULT:      -8.3      2.317      2.654
REMARK  6 active torsions:
REMARK  status: ('A' for Active; 'I' for Inactive)
REMARK    1  A    between atoms: C_3  and  C_4 
REMARK    2  A    between atoms: C_5  and  C_6 
REMARK       I    between atoms: C_6  and  N_7 
REMARK    3  A    between atoms: N_7  and  C_8 
REMARK    4  A    between atoms: C_8  and  C_9 
REMARK    5  A    between atoms: C_11  and  O_12 
REMARK    6  A    between atoms: O_12  and  C_13 
ROOT
HETATM    1  C   UNL     1      41.779 -13.101   5.410  1.00  0.00     0.161 C 
ENDROOT
BRANCH   1   2
HETATM    2  N   UNL     1      41.833 -12.420   6.685  1.00  0.00    -0.353 N 
HETATM    3  C   UNL     1      41.330 -11.156   6.838  1.00  0.00     0.241 C 
HETATM    4  O   UNL     1      40.862 -10.486   5.929  1.00  0.00    -0.269 OA
HETATM    5  H   UNL     1      42.265 -12.903   7.462  1.00  0.00     0.163 HD
BRANCH   3   6
HETATM    6  C   UNL     1      41.397 -10.681   8.244  1.00  0.00     0.075 C 
HETATM    7  C   UNL     1      42.573 -10.669   8.889  1.00  0.00     0.018 C 
BRANCH   7   8
HETATM    8  C   UNL     1      42.741 -10.161  10.263  1.00  0.00    -0.014 A 
HETATM    9  C   UNL     1      41.933  -9.106  10.722  1.00  0.00     0.013 A 
HETATM   10  C   UNL     1      42.057  -8.618  12.027  1.00  0.00     0.001 A 
HETATM   11  C   UNL     1      42.983  -9.185  12.898  1.00  0.00     0.002 A 
HETATM   12  C   UNL     1      43.781 -10.244  12.468  1.00  0.00     0.024 A 
HETATM   13  C   UNL     1      43.661 -10.733  11.161  1.00  0.00     0.044 A 
HETATM   14 CL   UNL     1      44.703 -12.039  10.708  1.00  0.00    -0.083 Cl
ENDBRANCH   7   8
ENDBRANCH   3   6
ENDBRANCH   1   2
BRANCH   1  15
HETATM   15  C   UNL     1      41.827 -14.596   5.593  1.00  0.00    -0.038 A 
HETATM   16  C   UNL     1      43.007 -15.305   5.322  1.00  0.00     0.046 A 
HETATM   17  C   UNL     1      43.037 -16.698   5.411  1.00  0.00     0.078 A 
HETATM   18  C   UNL     1      41.919 -17.389   5.872  1.00  0.00     0.037 A 
HETATM   19  C   UNL     1      40.753 -16.691   6.192  1.00  0.00     0.003 A 
HETATM   20  C   UNL     1      40.704 -15.302   6.045  1.00  0.00     0.009 A 
BRANCH  17  21
HETATM   21  O   UNL     1      44.167 -17.429   5.137  1.00  0.00    -0.292 OA
BRANCH  21  22
HETATM   22  C   UNL     1      44.075 -18.416   4.158  1.00  0.00     0.169 A 
HETATM   23  N   UNL     1      44.472 -19.685   4.423  1.00  0.00    -0.237 NA
HETATM   24  C   UNL     1      44.381 -20.572   3.408  1.00  0.00     0.119 A 
HETATM   25  C   UNL     1      43.913 -20.254   2.143  1.00  0.00     0.019 A 
HETATM   26  C   UNL     1      43.522 -18.941   1.896  1.00  0.00     0.006 A 
HETATM   27  C   UNL     1      43.610 -18.001   2.918  1.00  0.00     0.058 A 
ENDBRANCH  21  22
ENDBRANCH  17  21
ENDBRANCH   1  15
TORSDOF 6
ENDMDL
