MODEL 1
REMARK VINA RESULT:     -10.3      0.000      0.000
REMARK  6 active torsions:
REMARK  status: ('A' for Active; 'I' for Inactive)
REMARK    1  A    between atoms: C_8  and  C_9 
REMARK    2  A    between atoms: C_9  and  C_10 
REMARK    3  A    between atoms: C_10  and  N_11 
REMARK       I    between atoms: N_11  and  C_12 
REMARK    4  A    between atoms: C_12  and  C_13 
REMARK    5  A    between atoms: C_18  and  C_19 
REMARK    6  A    between atoms: C_29  and  C_30 
ROOT
HETATM    1  C   UNL     1      40.366 -13.554   5.063  1.00  0.00     0.148 A 
HETATM    2  N   UNL     1      39.965 -14.102   3.893  1.00  0.00    -0.165 NA
HETATM    3  N   UNL     1      41.074 -14.712   3.434  1.00  0.00    -0.240 N 
HETATM    4  C   UNL     1      42.168 -14.548   4.235  1.00  0.00     0.123 A 
HETATM    5  N   UNL     1      43.375 -15.053   3.908  1.00  0.00    -0.366 N 
HETATM    6  C   UNL     1      43.584 -15.881   2.729  1.00  0.00     0.118 C 
HETATM    7  C   UNL     1      42.533 -15.577   1.647  1.00  0.00     0.066 C 
HETATM    8  C   UNL     1      41.090 -15.409   2.163  1.00  0.00     0.221 C 
HETATM    9  C   UNL     1      41.741 -13.814   5.308  1.00  0.00     0.088 A 
HETATM   10  H   UNL     1      44.149 -15.031   4.571  1.00  0.00     0.161 HD
ENDROOT
BRANCH   1  11
HETATM   11  C   UNL     1      39.461 -12.790   5.936  1.00  0.00     0.272 C 
HETATM   12  N   UNL     1      39.749 -12.904   7.278  1.00  0.00    -0.355 N 
HETATM   13  H   UNL     1      40.650 -13.330   7.490  1.00  0.00     0.162 HD
HETATM   14  O   UNL     1      38.547 -12.098   5.496  1.00  0.00    -0.266 OA
BRANCH  12  15
HETATM   15  C   UNL     1      39.088 -12.064   8.255  1.00  0.00     0.127 C 
BRANCH  15  16
HETATM   16  C   UNL     1      39.902 -10.830   8.643  1.00  0.00     0.060 C 
BRANCH  16  17
HETATM   17  C   UNL     1      40.668 -11.007   9.918  1.00  0.00    -0.029 A 
HETATM   18  C   UNL     1      42.089 -10.968  10.088  1.00  0.00    -0.002 A 
HETATM   19  C   UNL     1      43.178 -10.765   9.216  1.00  0.00     0.014 A 
HETATM   20  C   UNL     1      42.354 -11.190  11.441  1.00  0.00     0.042 A 
HETATM   21  C   UNL     1      44.482 -10.791   9.724  1.00  0.00     0.001 A 
HETATM   22  C   UNL     1      44.712 -11.016  11.079  1.00  0.00     0.002 A 
HETATM   23  C   UNL     1      43.652 -11.220  11.965  1.00  0.00     0.030 A 
HETATM   24  N   UNL     1      41.143 -11.354  12.069  1.00  0.00    -0.365 N 
HETATM   25  H   UNL     1      41.031 -11.528  13.058  1.00  0.00     0.165 HD
HETATM   26  C   UNL     1      40.121 -11.251  11.165  1.00  0.00     0.096 A 
ENDBRANCH  16  17
ENDBRANCH  15  16
ENDBRANCH  12  15
ENDBRANCH   1  11
BRANCH   8  27
HETATM   27  C   UNL     1      40.321 -16.707   2.255  1.00  0.00     0.409 C 
HETATM   28  F   UNL     1      38.988 -16.518   2.125  1.00  0.00    -0.169 F 
HETATM   29  F   UNL     1      40.683 -17.533   1.238  1.00  0.00    -0.169 F 
HETATM   30  F   UNL     1      40.525 -17.381   3.401  1.00  0.00    -0.169 F 
ENDBRANCH   8  27
BRANCH   6  31
HETATM   31  C   UNL     1      43.762 -17.351   3.072  1.00  0.00    -0.033 A 
HETATM   32  C   UNL     1      43.740 -18.296   2.027  1.00  0.00     0.049 A 
HETATM   33  C   UNL     1      43.944 -19.626   2.333  1.00  0.00     0.105 A 
HETATM   34  C   UNL     1      44.156 -20.050   3.622  1.00  0.00     0.105 A 
HETATM   35  O   UNL     1      43.974 -20.650   1.439  1.00  0.00    -0.323 OA
HETATM   36  O   UNL     1      44.340 -21.394   3.705  1.00  0.00    -0.323 OA
HETATM   37  C   UNL     1      44.177 -19.166   4.675  1.00  0.00     0.040 A 
HETATM   38  C   UNL     1      44.241 -21.765   2.315  1.00  0.00     0.352 A 
HETATM   39  C   UNL     1      43.986 -17.808   4.393  1.00  0.00     0.012 A 
ENDBRANCH   6  31
TORSDOF 6
ENDMDL
MODEL 2
REMARK VINA RESULT:      -9.8      4.808      8.698
REMARK  6 active torsions:
REMARK  status: ('A' for Active; 'I' for Inactive)
REMARK    1  A    between atoms: C_8  and  C_9 
REMARK    2  A    between atoms: C_9  and  C_10 
REMARK    3  A    between atoms: C_10  and  N_11 
REMARK       I    between atoms: N_11  and  C_12 
REMARK    4  A    between atoms: C_12  and  C_13 
REMARK    5  A    between atoms: C_18  and  C_19 
REMARK    6  A    between atoms: C_29  and  C_30 
ROOT
HETATM    1  C   UNL     1      41.525 -12.803   0.641  1.00  0.00     0.148 A 
HETATM    2  N   UNL     1      41.905 -12.769   1.938  1.00  0.00    -0.165 NA
HETATM    3  N   UNL     1      41.635 -14.012   2.380  1.00  0.00    -0.240 N 
HETATM    4  C   UNL     1      41.069 -14.822   1.438  1.00  0.00     0.123 A 
HETATM    5  N   UNL     1      40.691 -16.087   1.716  1.00  0.00    -0.366 N 
HETATM    6  C   UNL     1      40.937 -16.710   3.008  1.00  0.00     0.118 C 
HETATM    7  C   UNL     1      41.047 -15.652   4.121  1.00  0.00     0.066 C 
HETATM    8  C   UNL     1      41.869 -14.400   3.757  1.00  0.00     0.221 C 
HETATM    9  C   UNL     1      40.996 -14.075   0.293  1.00  0.00     0.088 A 
HETATM   10  H   UNL     1      40.387 -16.718   0.977  1.00  0.00     0.161 HD
ENDROOT
BRANCH   1  11
HETATM   11  C   UNL     1      41.656 -11.646  -0.258  1.00  0.00     0.272 C 
HETATM   12  N   UNL     1      42.682 -11.759  -1.171  1.00  0.00    -0.355 N 
HETATM   13  H   UNL     1      43.090 -12.690  -1.246  1.00  0.00     0.162 HD
HETATM   14  O   UNL     1      40.900 -10.680  -0.207  1.00  0.00    -0.266 OA
BRANCH  12  15
HETATM   15  C   UNL     1      42.822 -10.809  -2.254  1.00  0.00     0.127 C 
BRANCH  15  16
HETATM   16  C   UNL     1      42.501 -11.400  -3.626  1.00  0.00     0.060 C 
BRANCH  16  17
HETATM   17  C   UNL     1      41.137 -12.015  -3.696  1.00  0.00    -0.029 A 
HETATM   18  C   UNL     1      40.798 -13.395  -3.515  1.00  0.00    -0.002 A 
HETATM   19  C   UNL     1      41.539 -14.559  -3.230  1.00  0.00     0.014 A 
HETATM   20  C   UNL     1      39.416 -13.510  -3.676  1.00  0.00     0.042 A 
HETATM   21  C   UNL     1      40.877 -15.788  -3.118  1.00  0.00     0.001 A 
HETATM   22  C   UNL     1      39.497 -15.868  -3.285  1.00  0.00     0.002 A 
HETATM   23  C   UNL     1      38.738 -14.730  -3.567  1.00  0.00     0.030 A 
HETATM   24  N   UNL     1      38.933 -12.251  -3.941  1.00  0.00    -0.365 N 
HETATM   25  H   UNL     1      37.959 -12.034  -4.100  1.00  0.00     0.165 HD
HETATM   26  C   UNL     1      39.957 -11.344  -3.960  1.00  0.00     0.096 A 
ENDBRANCH  16  17
ENDBRANCH  15  16
ENDBRANCH  12  15
ENDBRANCH   1  11
BRANCH   8  27
HETATM   27  C   UNL     1      43.349 -14.542   4.029  1.00  0.00     0.409 C 
HETATM   28  F   UNL     1      43.598 -15.397   5.047  1.00  0.00    -0.169 F 
HETATM   29  F   UNL     1      43.971 -15.067   2.939  1.00  0.00    -0.169 F 
HETATM   30  F   UNL     1      43.965 -13.382   4.314  1.00  0.00    -0.169 F 
ENDBRANCH   8  27
BRANCH   6  31
HETATM   31  C   UNL     1      42.067 -17.726   2.961  1.00  0.00    -0.033 A 
HETATM   32  C   UNL     1      42.558 -18.249   4.174  1.00  0.00     0.049 A 
HETATM   33  C   UNL     1      43.554 -19.203   4.129  1.00  0.00     0.105 A 
HETATM   34  C   UNL     1      44.083 -19.645   2.941  1.00  0.00     0.105 A 
HETATM   35  O   UNL     1      44.115 -19.816   5.205  1.00  0.00    -0.323 OA
HETATM   36  O   UNL     1      45.046 -20.587   3.118  1.00  0.00    -0.323 OA
HETATM   37  C   UNL     1      43.642 -19.157   1.733  1.00  0.00     0.040 A 
HETATM   38  C   UNL     1      45.048 -20.704   4.555  1.00  0.00     0.352 A 
HETATM   39  C   UNL     1      42.622 -18.199   1.747  1.00  0.00     0.012 A 
ENDBRANCH   6  31
TORSDOF 6
ENDMDL
MODEL 3
REMARK VINA RESULT:      -9.5      5.771      9.806
REMARK  6 active torsions:
REMARK  status: ('A' for Active; 'I' for Inactive)
REMARK    1  A    between atoms: C_8  and  C_9 
REMARK    2  A    between atoms: C_9  and  C_10 
REMARK    3  A    between atoms: C_10  and  N_11 
REMARK       I    between atoms: N_11  and  C_12 
REMARK    4  A    between atoms: C_12  and  C_13 
REMARK    5  A    between atoms: C_18  and  C_19 
REMARK    6  A    between atoms: C_29  and  C_30 
ROOT
HETATM    1  C   UNL     1      40.932 -15.582   0.563  1.00  0.00     0.148 A 
HETATM    2  N   UNL     1      40.171 -14.545   0.981  1.00  0.00    -0.165 NA
HETATM    3  N   UNL     1      39.879 -13.888  -0.157  1.00  0.00    -0.240 N 
HETATM    4  C   UNL     1      40.447 -14.435  -1.273  1.00  0.00     0.123 A 
HETATM    5  N   UNL     1      40.298 -13.883  -2.495  1.00  0.00    -0.366 N 
HETATM    6  C   UNL     1      39.455 -12.720  -2.731  1.00  0.00     0.118 C 
HETATM    7  C   UNL     1      39.314 -11.871  -1.455  1.00  0.00     0.066 C 
HETATM    8  C   UNL     1      39.092 -12.671  -0.155  1.00  0.00     0.221 C 
HETATM    9  C   UNL     1      41.125 -15.544  -0.845  1.00  0.00     0.088 A 
HETATM   10  H   UNL     1      40.621 -14.367  -3.331  1.00  0.00     0.161 HD
ENDROOT
BRANCH   1  11
HETATM   11  C   UNL     1      41.473 -16.594   1.483  1.00  0.00     0.272 C 
HETATM   12  N   UNL     1      41.794 -16.104   2.730  1.00  0.00    -0.355 N 
HETATM   13  H   UNL     1      41.441 -15.169   2.928  1.00  0.00     0.162 HD
HETATM   14  O   UNL     1      41.603 -17.773   1.166  1.00  0.00    -0.266 OA
BRANCH  12  15
HETATM   15  C   UNL     1      42.146 -16.998   3.813  1.00  0.00     0.127 C 
BRANCH  15  16
HETATM   16  C   UNL     1      43.654 -17.177   3.986  1.00  0.00     0.060 C 
BRANCH  16  17
HETATM   17  C   UNL     1      44.033 -18.546   4.462  1.00  0.00    -0.029 A 
HETATM   18  C   UNL     1      44.121 -19.741   3.678  1.00  0.00    -0.002 A 
HETATM   19  C   UNL     1      43.913 -20.042   2.317  1.00  0.00     0.014 A 
HETATM   20  C   UNL     1      44.500 -20.775   4.536  1.00  0.00     0.042 A 
HETATM   21  C   UNL     1      44.089 -21.356   1.866  1.00  0.00     0.001 A 
HETATM   22  C   UNL     1      44.467 -22.365   2.748  1.00  0.00     0.002 A 
HETATM   23  C   UNL     1      44.680 -22.095   4.102  1.00  0.00     0.030 A 
HETATM   24  N   UNL     1      44.640 -20.231   5.790  1.00  0.00    -0.365 N 
HETATM   25  H   UNL     1      44.910 -20.752   6.613  1.00  0.00     0.165 HD
HETATM   26  C   UNL     1      44.358 -18.893   5.760  1.00  0.00     0.096 A 
ENDBRANCH  16  17
ENDBRANCH  15  16
ENDBRANCH  12  15
ENDBRANCH   1  11
BRANCH   8  27
HETATM   27  C   UNL     1      37.639 -12.974   0.132  1.00  0.00     0.409 C 
HETATM   28  F   UNL     1      36.805 -12.154  -0.548  1.00  0.00    -0.169 F 
HETATM   29  F   UNL     1      37.339 -14.236  -0.278  1.00  0.00    -0.169 F 
HETATM   30  F   UNL     1      37.313 -12.895   1.434  1.00  0.00    -0.169 F 
ENDBRANCH   8  27
BRANCH   6  31
HETATM   31  C   UNL     1      38.151 -13.076  -3.424  1.00  0.00    -0.033 A 
HETATM   32  C   UNL     1      37.331 -12.034  -3.899  1.00  0.00     0.049 A 
HETATM   33  C   UNL     1      36.167 -12.358  -4.568  1.00  0.00     0.105 A 
HETATM   34  C   UNL     1      35.785 -13.661  -4.770  1.00  0.00     0.105 A 
HETATM   35  O   UNL     1      35.286 -11.471  -5.102  1.00  0.00    -0.323 OA
HETATM   36  O   UNL     1      34.614 -13.762  -5.451  1.00  0.00    -0.323 OA
HETATM   37  C   UNL     1      36.548 -14.712  -4.317  1.00  0.00     0.040 A 
HETATM   38  C   UNL     1      34.313 -12.369  -5.675  1.00  0.00     0.352 A 
HETATM   39  C   UNL     1      37.741 -14.414  -3.648  1.00  0.00     0.012 A 
ENDBRANCH   6  31
TORSDOF 6
ENDMDL
MODEL 4
REMARK VINA RESULT:      -9.5      4.093      7.944
REMARK  6 active torsions:
REMARK  status: ('A' for Active; 'I' for Inactive)
REMARK    1  A    between atoms: C_8  and  C_9 
REMARK    2  A    between atoms: C_9  and  C_10 
REMARK    3  A    between atoms: C_10  and  N_11 
REMARK       I    between atoms: N_11  and  C_12 
REMARK    4  A    between atoms: C_12  and  C_13 
REMARK    5  A    between atoms: C_18  and  C_19 
REMARK    6  A    between atoms: C_29  and  C_30 
ROOT
HETATM    1  C   UNL     1      40.966 -13.220   2.696  1.00  0.00     0.148 A 
HETATM    2  N   UNL     1      41.647 -13.105   3.859  1.00  0.00    -0.165 NA
HETATM    3  N   UNL     1      41.528 -14.325   4.416  1.00  0.00    -0.240 N 
HETATM    4  C   UNL     1      40.776 -15.198   3.683  1.00  0.00     0.123 A 
HETATM    5  N   UNL     1      40.514 -16.450   4.110  1.00  0.00    -0.366 N 
HETATM    6  C   UNL     1      41.083 -16.994   5.334  1.00  0.00     0.118 C 
HETATM    7  C   UNL     1      41.425 -15.872   6.331  1.00  0.00     0.066 C 
HETATM    8  C   UNL     1      42.098 -14.629   5.714  1.00  0.00     0.221 C 
HETATM    9  C   UNL     1      40.407 -14.519   2.553  1.00  0.00     0.088 A 
HETATM   10  H   UNL     1      40.060 -17.127   3.499  1.00  0.00     0.161 HD
ENDROOT
BRANCH   1  11
HETATM   11  C   UNL     1      40.843 -12.115   1.733  1.00  0.00     0.272 C 
HETATM   12  N   UNL     1      42.046 -11.675   1.227  1.00  0.00    -0.355 N 
HETATM   13  H   UNL     1      42.841 -12.281   1.420  1.00  0.00     0.162 HD
HETATM   14  O   UNL     1      39.757 -11.648   1.399  1.00  0.00    -0.266 OA
BRANCH  12  15
HETATM   15  C   UNL     1      42.092 -10.738   0.125  1.00  0.00     0.127 C 
BRANCH  15  16
HETATM   16  C   UNL     1      43.105 -11.119  -0.955  1.00  0.00     0.060 C 
BRANCH  16  17
HETATM   17  C   UNL     1      42.495 -11.885  -2.089  1.00  0.00    -0.029 A 
HETATM   18  C   UNL     1      41.922 -13.197  -2.039  1.00  0.00    -0.002 A 
HETATM   19  C   UNL     1      41.734 -14.149  -1.017  1.00  0.00     0.014 A 
HETATM   20  C   UNL     1      41.486 -13.511  -3.327  1.00  0.00     0.042 A 
HETATM   21  C   UNL     1      41.122 -15.372  -1.317  1.00  0.00     0.001 A 
HETATM   22  C   UNL     1      40.699 -15.654  -2.614  1.00  0.00     0.002 A 
HETATM   23  C   UNL     1      40.872 -14.729  -3.645  1.00  0.00     0.030 A 
HETATM   24  N   UNL     1      41.778 -12.433  -4.128  1.00  0.00    -0.365 N 
HETATM   25  H   UNL     1      41.570 -12.381  -5.116  1.00  0.00     0.165 HD
HETATM   26  C   UNL     1      42.389 -11.451  -3.397  1.00  0.00     0.096 A 
ENDBRANCH  16  17
ENDBRANCH  15  16
ENDBRANCH  12  15
ENDBRANCH   1  11
BRANCH   8  27
HETATM   27  C   UNL     1      43.603 -14.731   5.627  1.00  0.00     0.409 C 
HETATM   28  F   UNL     1      44.115 -15.528   6.593  1.00  0.00    -0.169 F 
HETATM   29  F   UNL     1      43.961 -15.301   4.445  1.00  0.00    -0.169 F 
HETATM   30  F   UNL     1      44.236 -13.547   5.700  1.00  0.00    -0.169 F 
ENDBRANCH   8  27
BRANCH   6  31
HETATM   31  C   UNL     1      42.198 -17.992   5.068  1.00  0.00    -0.033 A 
HETATM   32  C   UNL     1      42.452 -18.382   3.738  1.00  0.00     0.049 A 
HETATM   33  C   UNL     1      43.493 -19.255   3.492  1.00  0.00     0.105 A 
HETATM   34  C   UNL     1      44.273 -19.758   4.504  1.00  0.00     0.105 A 
HETATM   35  O   UNL     1      43.876 -19.708   2.268  1.00  0.00    -0.323 OA
HETATM   36  O   UNL     1      45.242 -20.594   4.048  1.00  0.00    -0.323 OA
HETATM   37  C   UNL     1      44.057 -19.413   5.818  1.00  0.00     0.040 A 
HETATM   38  C   UNL     1      44.996 -20.543   2.628  1.00  0.00     0.352 A 
HETATM   39  C   UNL     1      43.017 -18.518   6.096  1.00  0.00     0.012 A 
ENDBRANCH   6  31
TORSDOF 6
ENDMDL
MODEL 5
REMARK VINA RESULT:      -9.4      4.387      8.472
REMARK  6 active torsions:
REMARK  status: ('A' for Active; 'I' for Inactive)
REMARK    1  A    between atoms: C_8  and  C_9 
REMARK    2  A    between atoms: C_9  and  C_10 
REMARK    3  A    between atoms: C_10  and  N_11 
REMARK       I    between atoms: N_11  and  C_12 
REMARK    4  A    between atoms: C_12  and  C_13 
REMARK    5  A    between atoms: C_18  and  C_19 
REMARK    6  A    between atoms: C_29  and  C_30 
ROOT
HETATM    1  C   UNL     1      40.186 -13.077   1.935  1.00  0.00     0.148 A 
HETATM    2  N   UNL     1      41.004 -12.966   3.006  1.00  0.00    -0.165 NA
HETATM    3  N   UNL     1      41.042 -14.217   3.505  1.00  0.00    -0.240 N 
HETATM    4  C   UNL     1      40.260 -15.107   2.826  1.00  0.00     0.123 A 
HETATM    5  N   UNL     1      40.141 -16.394   3.211  1.00  0.00    -0.366 N 
HETATM    6  C   UNL     1      40.901 -16.951   4.321  1.00  0.00     0.118 C 
HETATM    7  C   UNL     1      41.296 -15.855   5.327  1.00  0.00     0.066 C 
HETATM    8  C   UNL     1      41.796 -14.539   4.700  1.00  0.00     0.221 C 
HETATM    9  C   UNL     1      39.701 -14.405   1.792  1.00  0.00     0.088 A 
HETATM   10  H   UNL     1      39.657 -17.074   2.627  1.00  0.00     0.161 HD
ENDROOT
BRANCH   1  11
HETATM   11  C   UNL     1      39.863 -11.940   1.059  1.00  0.00     0.272 C 
HETATM   12  N   UNL     1      40.649 -11.859  -0.069  1.00  0.00    -0.355 N 
HETATM   13  H   UNL     1      41.212 -12.687  -0.260  1.00  0.00     0.162 HD
HETATM   14  O   UNL     1      38.956 -11.151   1.309  1.00  0.00    -0.266 OA
BRANCH  12  15
HETATM   15  C   UNL     1      40.336 -10.927  -1.130  1.00  0.00     0.127 C 
BRANCH  15  16
HETATM   16  C   UNL     1      41.099 -11.202  -2.426  1.00  0.00     0.060 C 
BRANCH  16  17
HETATM   17  C   UNL     1      41.128 -12.654  -2.794  1.00  0.00    -0.029 A 
HETATM   18  C   UNL     1      40.012 -13.481  -3.144  1.00  0.00    -0.002 A 
HETATM   19  C   UNL     1      38.625 -13.261  -3.264  1.00  0.00     0.014 A 
HETATM   20  C   UNL     1      40.506 -14.760  -3.403  1.00  0.00     0.042 A 
HETATM   21  C   UNL     1      37.788 -14.320  -3.635  1.00  0.00     0.001 A 
HETATM   22  C   UNL     1      38.313 -15.585  -3.886  1.00  0.00     0.002 A 
HETATM   23  C   UNL     1      39.684 -15.831  -3.774  1.00  0.00     0.030 A 
HETATM   24  N   UNL     1      41.868 -14.714  -3.221  1.00  0.00    -0.365 N 
HETATM   25  H   UNL     1      42.488 -15.502  -3.343  1.00  0.00     0.165 HD
HETATM   26  C   UNL     1      42.254 -13.454  -2.850  1.00  0.00     0.096 A 
ENDBRANCH  16  17
ENDBRANCH  15  16
ENDBRANCH  12  15
ENDBRANCH   1  11
BRANCH   8  27
HETATM   27  C   UNL     1      43.281 -14.525   4.415  1.00  0.00     0.409 C 
HETATM   28  F   UNL     1      43.808 -13.284   4.525  1.00  0.00    -0.169 F 
HETATM   29  F   UNL     1      43.935 -15.292   5.329  1.00  0.00    -0.169 F 
HETATM   30  F   UNL     1      43.607 -14.998   3.199  1.00  0.00    -0.169 F 
ENDBRANCH   8  27
BRANCH   6  31
HETATM   31  C   UNL     1      42.036 -17.851   3.858  1.00  0.00    -0.033 A 
HETATM   32  C   UNL     1      42.810 -18.516   4.829  1.00  0.00     0.049 A 
HETATM   33  C   UNL     1      43.812 -19.367   4.408  1.00  0.00     0.105 A 
HETATM   34  C   UNL     1      44.080 -19.570   3.076  1.00  0.00     0.105 A 
HETATM   35  O   UNL     1      44.628 -20.094   5.217  1.00  0.00    -0.323 OA
HETATM   36  O   UNL     1      45.099 -20.446   2.878  1.00  0.00    -0.323 OA
HETATM   37  C   UNL     1      43.357 -18.936   2.093  1.00  0.00     0.040 A 
HETATM   38  C   UNL     1      45.430 -20.789   4.239  1.00  0.00     0.352 A 
HETATM   39  C   UNL     1      42.325 -18.079   2.491  1.00  0.00     0.012 A 
ENDBRANCH   6  31
TORSDOF 6
ENDMDL
MODEL 6
REMARK VINA RESULT:      -9.0      5.894      9.599
REMARK  6 active torsions:
REMARK  status: ('A' for Active; 'I' for Inactive)
REMARK    1  A    between atoms: C_8  and  C_9 
REMARK    2  A    between atoms: C_9  and  C_10 
REMARK    3  A    between atoms: C_10  and  N_11 
REMARK       I    between atoms: N_11  and  C_12 
REMARK    4  A    between atoms: C_12  and  C_13 
REMARK    5  A    between atoms: C_18  and  C_19 
REMARK    6  A    between atoms: C_29  and  C_30 
ROOT
HETATM    1  C   UNL     1      40.811 -15.469   0.713  1.00  0.00     0.148 A 
HETATM    2  N   UNL     1      40.849 -15.525  -0.638  1.00  0.00    -0.165 NA
HETATM    3  N   UNL     1      40.411 -14.309  -1.016  1.00  0.00    -0.240 N 
HETATM    4  C   UNL     1      40.063 -13.498   0.026  1.00  0.00     0.123 A 
HETATM    5  N   UNL     1      39.561 -12.260  -0.168  1.00  0.00    -0.366 N 
HETATM    6  C   UNL     1      39.437 -11.665  -1.491  1.00  0.00     0.118 C 
HETATM    7  C   UNL     1      39.313 -12.750  -2.576  1.00  0.00     0.066 C 
HETATM    8  C   UNL     1      40.265 -13.952  -2.414  1.00  0.00     0.221 C 
HETATM    9  C   UNL     1      40.323 -14.213   1.163  1.00  0.00     0.088 A 
HETATM   10  H   UNL     1      39.424 -11.622   0.614  1.00  0.00     0.161 HD
ENDROOT
BRANCH   1  11
HETATM   11  C   UNL     1      41.228 -16.592   1.568  1.00  0.00     0.272 C 
HETATM   12  N   UNL     1      41.756 -16.207   2.781  1.00  0.00    -0.355 N 
HETATM   13  H   UNL     1      41.615 -15.226   3.019  1.00  0.00     0.162 HD
HETATM   14  O   UNL     1      41.092 -17.765   1.231  1.00  0.00    -0.266 OA
BRANCH  12  15
HETATM   15  C   UNL     1      42.026 -17.180   3.818  1.00  0.00     0.127 C 
BRANCH  15  16
HETATM   16  C   UNL     1      43.502 -17.252   4.212  1.00  0.00     0.060 C 
BRANCH  16  17
HETATM   17  C   UNL     1      43.962 -18.646   4.513  1.00  0.00    -0.029 A 
HETATM   18  C   UNL     1      44.034 -19.749   3.603  1.00  0.00    -0.002 A 
HETATM   19  C   UNL     1      43.736 -19.917   2.236  1.00  0.00     0.014 A 
HETATM   20  C   UNL     1      44.511 -20.849   4.318  1.00  0.00     0.042 A 
HETATM   21  C   UNL     1      43.924 -21.168   1.637  1.00  0.00     0.001 A 
HETATM   22  C   UNL     1      44.401 -22.246   2.379  1.00  0.00     0.002 A 
HETATM   23  C   UNL     1      44.705 -22.108   3.736  1.00  0.00     0.030 A 
HETATM   24  N   UNL     1      44.724 -20.431   5.610  1.00  0.00    -0.365 N 
HETATM   25  H   UNL     1      45.074 -21.022   6.351  1.00  0.00     0.165 HD
HETATM   26  C   UNL     1      44.394 -19.110   5.742  1.00  0.00     0.096 A 
ENDBRANCH  16  17
ENDBRANCH  15  16
ENDBRANCH  12  15
ENDBRANCH   1  11
BRANCH   8  27
HETATM   27  C   UNL     1      41.617 -13.750  -3.058  1.00  0.00     0.409 C 
HETATM   28  F   UNL     1      42.535 -13.289  -2.178  1.00  0.00    -0.169 F 
HETATM   29  F   UNL     1      42.097 -14.939  -3.510  1.00  0.00    -0.169 F 
HETATM   30  F   UNL     1      41.601 -12.908  -4.106  1.00  0.00    -0.169 F 
ENDBRANCH   8  27
BRANCH   6  31
HETATM   31  C   UNL     1      40.487 -10.598  -1.752  1.00  0.00    -0.033 A 
HETATM   32  C   UNL     1      41.439 -10.326  -0.750  1.00  0.00     0.049 A 
HETATM   33  C   UNL     1      42.419  -9.388  -1.005  1.00  0.00     0.105 A 
HETATM   34  C   UNL     1      42.481  -8.709  -2.196  1.00  0.00     0.105 A 
HETATM   35  O   UNL     1      43.416  -9.031  -0.152  1.00  0.00    -0.323 OA
HETATM   36  O   UNL     1      43.521  -7.836  -2.245  1.00  0.00    -0.323 OA
HETATM   37  C   UNL     1      41.569  -8.934  -3.201  1.00  0.00     0.040 A 
HETATM   38  C   UNL     1      44.121  -8.059  -0.952  1.00  0.00     0.352 A 
HETATM   39  C   UNL     1      40.572  -9.890  -2.976  1.00  0.00     0.012 A 
ENDBRANCH   6  31
TORSDOF 6
ENDMDL
MODEL 7
REMARK VINA RESULT:      -8.9      4.507      8.648
REMARK  6 active torsions:
REMARK  status: ('A' for Active; 'I' for Inactive)
REMARK    1  A    between atoms: C_8  and  C_9 
REMARK    2  A    between atoms: C_9  and  C_10 
REMARK    3  A    between atoms: C_10  and  N_11 
REMARK       I    between atoms: N_11  and  C_12 
REMARK    4  A    between atoms: C_12  and  C_13 
REMARK    5  A    between atoms: C_18  and  C_19 
REMARK    6  A    between atoms: C_29  and  C_30 
ROOT
HETATM    1  C   UNL     1      41.747 -14.144   4.437  1.00  0.00     0.148 A 
HETATM    2  N   UNL     1      40.541 -14.360   3.865  1.00  0.00    -0.165 NA
HETATM    3  N   UNL     1      40.418 -13.342   2.993  1.00  0.00    -0.240 N 
HETATM    4  C   UNL     1      41.469 -12.470   3.009  1.00  0.00     0.123 A 
HETATM    5  N   UNL     1      41.495 -11.367   2.232  1.00  0.00    -0.366 N 
HETATM    6  C   UNL     1      40.453 -11.070   1.260  1.00  0.00     0.118 C 
HETATM    7  C   UNL     1      39.119 -11.726   1.661  1.00  0.00     0.066 C 
HETATM    8  C   UNL     1      39.231 -13.174   2.178  1.00  0.00     0.221 C 
HETATM    9  C   UNL     1      42.356 -12.967   3.924  1.00  0.00     0.088 A 
HETATM   10  H   UNL     1      42.335 -10.795   2.162  1.00  0.00     0.161 HD
ENDROOT
BRANCH   1  11
HETATM   11  C   UNL     1      42.314 -15.037   5.459  1.00  0.00     0.272 C 
HETATM   12  N   UNL     1      42.060 -16.373   5.241  1.00  0.00    -0.355 N 
HETATM   13  H   UNL     1      41.691 -16.595   4.317  1.00  0.00     0.162 HD
HETATM   14  O   UNL     1      42.974 -14.620   6.407  1.00  0.00    -0.266 OA
BRANCH  12  15
HETATM   15  C   UNL     1      42.712 -17.394   6.033  1.00  0.00     0.127 C 
BRANCH  15  16
HETATM   16  C   UNL     1      44.114 -17.746   5.535  1.00  0.00     0.060 C 
BRANCH  16  17
HETATM   17  C   UNL     1      44.102 -18.611   4.312  1.00  0.00    -0.029 A 
HETATM   18  C   UNL     1      44.343 -20.021   4.245  1.00  0.00    -0.002 A 
HETATM   19  C   UNL     1      44.643 -21.013   5.201  1.00  0.00     0.014 A 
HETATM   20  C   UNL     1      44.238 -20.400   2.906  1.00  0.00     0.042 A 
HETATM   21  C   UNL     1      44.826 -22.337   4.786  1.00  0.00     0.001 A 
HETATM   22  C   UNL     1      44.715 -22.682   3.442  1.00  0.00     0.002 A 
HETATM   23  C   UNL     1      44.419 -21.719   2.474  1.00  0.00     0.030 A 
HETATM   24  N   UNL     1      43.942 -19.267   2.187  1.00  0.00    -0.365 N 
HETATM   25  H   UNL     1      43.806 -19.245   1.186  1.00  0.00     0.165 HD
HETATM   26  C   UNL     1      43.862 -18.184   3.019  1.00  0.00     0.096 A 
ENDBRANCH  16  17
ENDBRANCH  15  16
ENDBRANCH  12  15
ENDBRANCH   1  11
BRANCH   8  27
HETATM   27  C   UNL     1      39.181 -14.217   1.085  1.00  0.00     0.409 C 
HETATM   28  F   UNL     1      40.417 -14.591   0.684  1.00  0.00    -0.169 F 
HETATM   29  F   UNL     1      38.580 -15.346   1.548  1.00  0.00    -0.169 F 
HETATM   30  F   UNL     1      38.500 -13.829  -0.008  1.00  0.00    -0.169 F 
ENDBRANCH   8  27
BRANCH   6  31
HETATM   31  C   UNL     1      40.900 -11.321  -0.170  1.00  0.00    -0.033 A 
HETATM   32  C   UNL     1      40.078 -10.877  -1.224  1.00  0.00     0.049 A 
HETATM   33  C   UNL     1      40.504 -11.067  -2.523  1.00  0.00     0.105 A 
HETATM   34  C   UNL     1      41.696 -11.683  -2.812  1.00  0.00     0.105 A 
HETATM   35  O   UNL     1      39.837 -10.677  -3.642  1.00  0.00    -0.323 OA
HETATM   36  O   UNL     1      41.930 -11.765  -4.148  1.00  0.00    -0.323 OA
HETATM   37  C   UNL     1      42.529 -12.142  -1.818  1.00  0.00     0.040 A 
HETATM   38  C   UNL     1      40.756 -11.109  -4.668  1.00  0.00     0.352 A 
HETATM   39  C   UNL     1      42.128 -11.950  -0.490  1.00  0.00     0.012 A 
ENDBRANCH   6  31
TORSDOF 6
ENDMDL
MODEL 8
REMARK VINA RESULT:      -8.9      5.637      9.483
REMARK  6 active torsions:
REMARK  status: ('A' for Active; 'I' for Inactive)
REMARK    1  A    between atoms: C_8  and  C_9 
REMARK    2  A    between atoms: C_9  and  C_10 
REMARK    3  A    between atoms: C_10  and  N_11 
REMARK       I    between atoms: N_11  and  C_12 
REMARK    4  A    between atoms: C_12  and  C_13 
REMARK    5  A    between atoms: C_18  and  C_19 
REMARK    6  A    between atoms: C_29  and  C_30 
ROOT
HETATM    1  C   UNL     1      40.124 -14.258   1.628  1.00  0.00     0.148 A 
HETATM    2  N   UNL     1      39.942 -14.945   0.478  1.00  0.00    -0.165 NA
HETATM    3  N   UNL     1      39.592 -13.993  -0.408  1.00  0.00    -0.240 N 
HETATM    4  C   UNL     1      39.507 -12.741   0.131  1.00  0.00     0.123 A 
HETATM    5  N   UNL     1      39.126 -11.673  -0.599  1.00  0.00    -0.366 N 
HETATM    6  C   UNL     1      38.863 -11.756  -2.028  1.00  0.00     0.118 C 
HETATM    7  C   UNL     1      38.447 -13.182  -2.433  1.00  0.00     0.066 C 
HETATM    8  C   UNL     1      39.269 -14.313  -1.784  1.00  0.00     0.221 C 
HETATM    9  C   UNL     1      39.860 -12.873   1.447  1.00  0.00     0.088 A 
HETATM   10  H   UNL     1      39.187 -10.730  -0.219  1.00  0.00     0.161 HD
ENDROOT
BRANCH   1  11
HETATM   11  C   UNL     1      40.539 -14.902   2.884  1.00  0.00     0.272 C 
HETATM   12  N   UNL     1      40.997 -16.192   2.728  1.00  0.00    -0.355 N 
HETATM   13  H   UNL     1      41.178 -16.470   1.764  1.00  0.00     0.162 HD
HETATM   14  O   UNL     1      40.498 -14.325   3.967  1.00  0.00    -0.266 OA
BRANCH  12  15
HETATM   15  C   UNL     1      41.629 -16.895   3.823  1.00  0.00     0.127 C 
BRANCH  15  16
HETATM   16  C   UNL     1      43.156 -16.830   3.785  1.00  0.00     0.060 C 
BRANCH  16  17
HETATM   17  C   UNL     1      43.809 -18.120   4.176  1.00  0.00    -0.029 A 
HETATM   18  C   UNL     1      43.864 -19.329   3.411  1.00  0.00    -0.002 A 
HETATM   19  C   UNL     1      43.382 -19.713   2.143  1.00  0.00     0.014 A 
HETATM   20  C   UNL     1      44.564 -20.270   4.168  1.00  0.00     0.042 A 
HETATM   21  C   UNL     1      43.615 -21.014   1.681  1.00  0.00     0.001 A 
HETATM   22  C   UNL     1      44.317 -21.929   2.462  1.00  0.00     0.002 A 
HETATM   23  C   UNL     1      44.806 -21.576   3.722  1.00  0.00     0.030 A 
HETATM   24  N   UNL     1      44.924 -19.658   5.344  1.00  0.00    -0.365 N 
HETATM   25  H   UNL     1      45.446 -20.105   6.085  1.00  0.00     0.165 HD
HETATM   26  C   UNL     1      44.473 -18.367   5.364  1.00  0.00     0.096 A 
ENDBRANCH  16  17
ENDBRANCH  15  16
ENDBRANCH  12  15
ENDBRANCH   1  11
BRANCH   8  27
HETATM   27  C   UNL     1      40.516 -14.679  -2.555  1.00  0.00     0.409 C 
HETATM   28  F   UNL     1      40.435 -14.313  -3.855  1.00  0.00    -0.169 F 
HETATM   29  F   UNL     1      41.587 -14.014  -2.045  1.00  0.00    -0.169 F 
HETATM   30  F   UNL     1      40.814 -15.990  -2.521  1.00  0.00    -0.169 F 
ENDBRANCH   8  27
BRANCH   6  31
HETATM   31  C   UNL     1      39.974 -11.139  -2.863  1.00  0.00    -0.033 A 
HETATM   32  C   UNL     1      39.756 -10.946  -4.241  1.00  0.00     0.049 A 
HETATM   33  C   UNL     1      40.748 -10.347  -4.991  1.00  0.00     0.105 A 
HETATM   34  C   UNL     1      41.938  -9.948  -4.434  1.00  0.00     0.105 A 
HETATM   35  O   UNL     1      40.682 -10.073  -6.321  1.00  0.00    -0.323 OA
HETATM   36  O   UNL     1      42.773  -9.377  -5.341  1.00  0.00    -0.323 OA
HETATM   37  C   UNL     1      42.200 -10.123  -3.095  1.00  0.00     0.040 A 
HETATM   38  C   UNL     1      41.963  -9.443  -6.532  1.00  0.00     0.352 A 
HETATM   39  C   UNL     1      41.206 -10.716  -2.307  1.00  0.00     0.012 A 
ENDBRANCH   6  31
TORSDOF 6
ENDMDL
MODEL 9
REMARK VINA RESULT:      -8.7      4.414      7.797
REMARK  6 active torsions:
REMARK  status: ('A' for Active; 'I' for Inactive)
REMARK    1  A    between atoms: C_8  and  C_9 
REMARK    2  A    between atoms: C_9  and  C_10 
REMARK    3  A    between atoms: C_10  and  N_11 
REMARK       I    between atoms: N_11  and  C_12 
REMARK    4  A    between atoms: C_12  and  C_13 
REMARK    5  A    between atoms: C_18  and  C_19 
REMARK    6  A    between atoms: C_29  and  C_30 
ROOT
HETATM    1  C   UNL     1      40.689 -12.581   2.160  1.00  0.00     0.148 A 
HETATM    2  N   UNL     1      41.398 -12.643   3.310  1.00  0.00    -0.165 NA
HETATM    3  N   UNL     1      41.292 -13.935   3.677  1.00  0.00    -0.240 N 
HETATM    4  C   UNL     1      40.521 -14.687   2.837  1.00  0.00     0.123 A 
HETATM    5  N   UNL     1      40.269 -15.991   3.073  1.00  0.00    -0.366 N 
HETATM    6  C   UNL     1      40.868 -16.714   4.186  1.00  0.00     0.118 C 
HETATM    7  C   UNL     1      41.236 -15.757   5.334  1.00  0.00     0.066 C 
HETATM    8  C   UNL     1      41.894 -14.432   4.898  1.00  0.00     0.221 C 
HETATM    9  C   UNL     1      40.125 -13.845   1.834  1.00  0.00     0.088 A 
HETATM   10  H   UNL     1      39.800 -16.568   2.378  1.00  0.00     0.161 HD
ENDROOT
BRANCH   1  11
HETATM   11  C   UNL     1      40.542 -11.342   1.381  1.00  0.00     0.272 C 
HETATM   12  N   UNL     1      41.346 -10.309   1.814  1.00  0.00    -0.355 N 
HETATM   13  H   UNL     1      42.072 -10.578   2.476  1.00  0.00     0.162 HD
HETATM   14  O   UNL     1      39.785 -11.252   0.419  1.00  0.00    -0.266 OA
BRANCH  12  15
HETATM   15  C   UNL     1      41.474  -9.093   1.040  1.00  0.00     0.127 C 
BRANCH  15  16
HETATM   16  C   UNL     1      42.791  -9.001   0.268  1.00  0.00     0.060 C 
BRANCH  16  17
HETATM   17  C   UNL     1      42.623  -9.204  -1.207  1.00  0.00    -0.029 A 
HETATM   18  C   UNL     1      42.595 -10.450  -1.911  1.00  0.00    -0.002 A 
HETATM   19  C   UNL     1      42.698 -11.801  -1.523  1.00  0.00     0.014 A 
HETATM   20  C   UNL     1      42.426 -10.160  -3.266  1.00  0.00     0.042 A 
HETATM   21  C   UNL     1      42.631 -12.805  -2.497  1.00  0.00     0.001 A 
HETATM   22  C   UNL     1      42.463 -12.481  -3.840  1.00  0.00     0.002 A 
HETATM   23  C   UNL     1      42.357 -11.151  -4.253  1.00  0.00     0.030 A 
HETATM   24  N   UNL     1      42.351  -8.792  -3.381  1.00  0.00    -0.365 N 
HETATM   25  H   UNL     1      42.226  -8.298  -4.253  1.00  0.00     0.165 HD
HETATM   26  C   UNL     1      42.472  -8.205  -2.151  1.00  0.00     0.096 A 
ENDBRANCH  16  17
ENDBRANCH  15  16
ENDBRANCH  12  15
ENDBRANCH   1  11
BRANCH   8  27
HETATM   27  C   UNL     1      43.396 -14.515   4.759  1.00  0.00     0.409 C 
HETATM   28  F   UNL     1      44.006 -13.373   5.152  1.00  0.00    -0.169 F 
HETATM   29  F   UNL     1      43.883 -15.495   5.567  1.00  0.00    -0.169 F 
HETATM   30  F   UNL     1      43.814 -14.790   3.511  1.00  0.00    -0.169 F 
ENDBRANCH   8  27
BRANCH   6  31
HETATM   31  C   UNL     1      41.975 -17.656   3.742  1.00  0.00    -0.033 A 
HETATM   32  C   UNL     1      42.700 -18.358   4.725  1.00  0.00     0.049 A 
HETATM   33  C   UNL     1      43.676 -19.246   4.321  1.00  0.00     0.105 A 
HETATM   34  C   UNL     1      43.964 -19.453   2.994  1.00  0.00     0.105 A 
HETATM   35  O   UNL     1      44.443 -20.011   5.143  1.00  0.00    -0.323 OA
HETATM   36  O   UNL     1      44.952 -20.368   2.812  1.00  0.00    -0.323 OA
HETATM   37  C   UNL     1      43.290 -18.784   1.999  1.00  0.00     0.040 A 
HETATM   38  C   UNL     1      45.237 -20.732   4.178  1.00  0.00     0.352 A 
HETATM   39  C   UNL     1      42.285 -17.887   2.380  1.00  0.00     0.012 A 
ENDBRANCH   6  31
TORSDOF 6
ENDMDL
MODEL 10
REMARK VINA RESULT:      -8.7      5.822      9.570
REMARK  6 active torsions:
REMARK  status: ('A' for Active; 'I' for Inactive)
REMARK    1  A    between atoms: C_8  and  C_9 
REMARK    2  A    between atoms: C_9  and  C_10 
REMARK    3  A    between atoms: C_10  and  N_11 
REMARK       I    between atoms: N_11  and  C_12 
REMARK    4  A    between atoms: C_12  and  C_13 
REMARK    5  A    between atoms: C_18  and  C_19 
REMARK    6  A    between atoms: C_29  and  C_30 
ROOT
HETATM    1  C   UNL     1      41.584 -14.653   1.392  1.00  0.00     0.148 A 
HETATM    2  N   UNL     1      42.125 -13.436   1.160  1.00  0.00    -0.165 NA
HETATM    3  N   UNL     1      42.007 -13.288  -0.173  1.00  0.00    -0.240 N 
HETATM    4  C   UNL     1      41.453 -14.365  -0.804  1.00  0.00     0.123 A 
HETATM    5  N   UNL     1      41.300 -14.410  -2.143  1.00  0.00    -0.366 N 
HETATM    6  C   UNL     1      41.630 -13.285  -3.006  1.00  0.00     0.118 C 
HETATM    7  C   UNL     1      42.701 -12.388  -2.360  1.00  0.00     0.066 C 
HETATM    8  C   UNL     1      42.503 -12.109  -0.856  1.00  0.00     0.221 C 
HETATM    9  C   UNL     1      41.152 -15.264   0.183  1.00  0.00     0.088 A 
HETATM   10  H   UNL     1      40.773 -15.161  -2.585  1.00  0.00     0.161 HD
ENDROOT
BRANCH   1  11
HETATM   11  C   UNL     1      41.479 -15.234   2.740  1.00  0.00     0.272 C 
HETATM   12  N   UNL     1      41.761 -16.582   2.793  1.00  0.00    -0.355 N 
HETATM   13  H   UNL     1      42.192 -16.964   1.952  1.00  0.00     0.162 HD
HETATM   14  O   UNL     1      41.188 -14.564   3.727  1.00  0.00    -0.266 OA
BRANCH  12  15
HETATM   15  C   UNL     1      41.902 -17.263   4.062  1.00  0.00     0.127 C 
BRANCH  15  16
HETATM   16  C   UNL     1      43.349 -17.342   4.551  1.00  0.00     0.060 C 
BRANCH  16  17
HETATM   17  C   UNL     1      43.826 -18.749   4.750  1.00  0.00    -0.029 A 
HETATM   18  C   UNL     1      43.965 -19.765   3.751  1.00  0.00    -0.002 A 
HETATM   19  C   UNL     1      43.735 -19.815   2.361  1.00  0.00     0.014 A 
HETATM   20  C   UNL     1      44.432 -20.916   4.388  1.00  0.00     0.042 A 
HETATM   21  C   UNL     1      43.978 -21.005   1.664  1.00  0.00     0.001 A 
HETATM   22  C   UNL     1      44.444 -22.135   2.330  1.00  0.00     0.002 A 
HETATM   23  C   UNL     1      44.681 -22.113   3.707  1.00  0.00     0.030 A 
HETATM   24  N   UNL     1      44.576 -20.611   5.721  1.00  0.00    -0.365 N 
HETATM   25  H   UNL     1      44.903 -21.259   6.423  1.00  0.00     0.165 HD
HETATM   26  C   UNL     1      44.210 -19.313   5.952  1.00  0.00     0.096 A 
ENDBRANCH  16  17
ENDBRANCH  15  16
ENDBRANCH  12  15
ENDBRANCH   1  11
BRANCH   8  27
HETATM   27  C   UNL     1      41.622 -10.915  -0.569  1.00  0.00     0.409 C 
HETATM   28  F   UNL     1      41.983 -10.280   0.570  1.00  0.00    -0.169 F 
HETATM   29  F   UNL     1      41.747  -9.997  -1.565  1.00  0.00    -0.169 F 
HETATM   30  F   UNL     1      40.315 -11.213  -0.470  1.00  0.00    -0.169 F 
ENDBRANCH   8  27
BRANCH   6  31
HETATM   31  C   UNL     1      40.396 -12.561  -3.520  1.00  0.00    -0.033 A 
HETATM   32  C   UNL     1      39.127 -13.094  -3.223  1.00  0.00     0.049 A 
HETATM   33  C   UNL     1      38.005 -12.414  -3.653  1.00  0.00     0.105 A 
HETATM   34  C   UNL     1      38.096 -11.244  -4.367  1.00  0.00     0.105 A 
HETATM   35  O   UNL     1      36.717 -12.786  -3.429  1.00  0.00    -0.323 OA
HETATM   36  O   UNL     1      36.878 -10.734  -4.687  1.00  0.00    -0.323 OA
HETATM   37  C   UNL     1      39.313 -10.690  -4.687  1.00  0.00     0.040 A 
HETATM   38  C   UNL     1      36.008 -11.707  -4.073  1.00  0.00     0.352 A 
HETATM   39  C   UNL     1      40.467 -11.351  -4.252  1.00  0.00     0.012 A 
ENDBRANCH   6  31
TORSDOF 6
ENDMDL
