MODEL 1
REMARK VINA RESULT:      -8.2      0.000      0.000
REMARK  8 active torsions:
REMARK  status: ('A' for Active; 'I' for Inactive)
REMARK    1  A    between atoms: C_2  and  C_3 
REMARK    2  A    between atoms: C_3  and  N_4 
REMARK    3  A    between atoms: C_7  and  C_8 
REMARK       I    between atoms: C_8  and  N_9 
REMARK    4  A    between atoms: N_9  and  N_10 
REMARK       I    between atoms: N_10  and  C_11 
REMARK    5  A    between atoms: C_11  and  C_12 
REMARK    6  A    between atoms: C_15  and  O_16 
REMARK    7  A    between atoms: O_16  and  C_17 
REMARK    8  A    between atoms: C_23  and  C_24 
ROOT
HETATM    1  C   UNL     1      43.680 -16.483   7.064  1.00  0.00     0.273 C 
HETATM    2  N   UNL     1      44.093 -15.184   6.857  1.00  0.00    -0.263 N 
HETATM    3  O   UNL     1      43.267 -16.859   8.160  1.00  0.00    -0.266 OA
HETATM    4  H   UNL     1      44.529 -14.854   6.003  1.00  0.00     0.190 HD
ENDROOT
BRANCH   2   5
HETATM    5  N   UNL     1      44.060 -14.321   7.965  1.00  0.00    -0.263 N 
HETATM    6  C   UNL     1      44.959 -13.271   8.010  1.00  0.00     0.270 C 
HETATM    7  O   UNL     1      45.955 -13.192   7.299  1.00  0.00    -0.266 OA
HETATM    8  H   UNL     1      43.117 -14.174   8.331  1.00  0.00     0.190 HD
BRANCH   6   9
HETATM    9  C   UNL     1      44.599 -12.185   8.967  1.00  0.00     0.033 A 
HETATM   10  C   UNL     1      45.392 -11.906  10.087  1.00  0.00     0.020 A 
HETATM   11  C   UNL     1      44.968 -10.958  11.021  1.00  0.00     0.038 A 
HETATM   12  C   UNL     1      43.760 -10.279  10.850  1.00  0.00     0.068 A 
HETATM   13  C   UNL     1      43.002 -10.509   9.700  1.00  0.00     0.038 A 
HETATM   14  C   UNL     1      43.420 -11.460   8.761  1.00  0.00     0.020 A 
BRANCH  12  15
HETATM   15  O   UNL     1      43.443  -9.424  11.866  1.00  0.00    -0.352 OA
BRANCH  15  16
HETATM   16  C   UNL     1      42.303  -9.753  12.658  1.00  0.00     0.171 C 
HETATM   17  C   UNL     1      42.741  -9.780  14.112  1.00  0.00     0.034 C 
ENDBRANCH  15  16
ENDBRANCH  12  15
ENDBRANCH   6   9
ENDBRANCH   2   5
BRANCH   1  18
HETATM   18  C   UNL     1      43.888 -17.397   5.968  1.00  0.00     0.077 A 
HETATM   19  C   UNL     1      45.049 -18.193   5.849  1.00  0.00     0.158 A 
HETATM   20  N   UNL     1      45.008 -19.024   4.815  1.00  0.00    -0.183 NA
HETATM   21  N   UNL     1      43.800 -18.797   4.266  1.00  0.00    -0.268 N 
HETATM   22  C   UNL     1      43.068 -17.827   4.932  1.00  0.00     0.052 A 
BRANCH  21  23
HETATM   23  C   UNL     1      43.360 -19.646   3.156  1.00  0.00     0.106 C 
HETATM   24  C   UNL     1      44.328 -20.822   2.995  1.00  0.00     0.034 C 
BRANCH  23  25
HETATM   25  C   UNL     1      43.205 -18.901   1.812  1.00  0.00     0.022 C 
HETATM   26  C   UNL     1      44.215 -17.777   1.629  1.00  0.00     0.007 C 
ENDBRANCH  23  25
ENDBRANCH  21  23
BRANCH  22  27
HETATM   27  C   UNL     1      41.616 -17.478   4.592  1.00  0.00     0.038 A 
HETATM   28  C   UNL     1      41.067 -16.113   4.944  1.00  0.00     0.011 A 
HETATM   29  C   UNL     1      41.258 -16.487   3.513  1.00  0.00     0.011 A 
ENDBRANCH  22  27
ENDBRANCH   1  18
TORSDOF 8
ENDMDL
MODEL 2
REMARK VINA RESULT:      -8.0      1.205      2.273
REMARK  8 active torsions:
REMARK  status: ('A' for Active; 'I' for Inactive)
REMARK    1  A    between atoms: C_2  and  C_3 
REMARK    2  A    between atoms: C_3  and  N_4 
REMARK    3  A    between atoms: C_7  and  C_8 
REMARK       I    between atoms: C_8  and  N_9 
REMARK    4  A    between atoms: N_9  and  N_10 
REMARK       I    between atoms: N_10  and  C_11 
REMARK    5  A    between atoms: C_11  and  C_12 
REMARK    6  A    between atoms: C_15  and  O_16 
REMARK    7  A    between atoms: O_16  and  C_17 
REMARK    8  A    between atoms: C_23  and  C_24 
ROOT
HETATM    1  C   UNL     1      42.633 -15.409   5.890  1.00  0.00     0.273 C 
HETATM    2  N   UNL     1      43.778 -14.716   6.217  1.00  0.00    -0.263 N 
HETATM    3  O   UNL     1      41.649 -15.410   6.630  1.00  0.00    -0.266 OA
HETATM    4  H   UNL     1      44.643 -14.763   5.690  1.00  0.00     0.190 HD
ENDROOT
BRANCH   2   5
HETATM    5  N   UNL     1      43.786 -14.045   7.452  1.00  0.00    -0.263 N 
HETATM    6  C   UNL     1      44.866 -13.237   7.755  1.00  0.00     0.270 C 
HETATM    7  O   UNL     1      45.936 -13.270   7.157  1.00  0.00    -0.266 OA
HETATM    8  H   UNL     1      42.855 -13.752   7.755  1.00  0.00     0.190 HD
BRANCH   6   9
HETATM    9  C   UNL     1      44.620 -12.256   8.853  1.00  0.00     0.033 A 
HETATM   10  C   UNL     1      45.510 -12.121   9.925  1.00  0.00     0.020 A 
HETATM   11  C   UNL     1      45.194 -11.275  10.990  1.00  0.00     0.038 A 
HETATM   12  C   UNL     1      43.998 -10.555  10.997  1.00  0.00     0.068 A 
HETATM   13  C   UNL     1      43.141 -10.639   9.898  1.00  0.00     0.038 A 
HETATM   14  C   UNL     1      43.451 -11.488   8.828  1.00  0.00     0.020 A 
BRANCH  12  15
HETATM   15  O   UNL     1      43.792  -9.811  12.124  1.00  0.00    -0.352 OA
BRANCH  15  16
HETATM   16  C   UNL     1      42.990 -10.397  13.149  1.00  0.00     0.171 C 
HETATM   17  C   UNL     1      42.895  -9.398  14.290  1.00  0.00     0.034 C 
ENDBRANCH  15  16
ENDBRANCH  12  15
ENDBRANCH   6   9
ENDBRANCH   2   5
BRANCH   1  18
HETATM   18  C   UNL     1      42.705 -16.234   4.709  1.00  0.00     0.077 A 
HETATM   19  C   UNL     1      42.019 -15.918   3.516  1.00  0.00     0.158 A 
HETATM   20  N   UNL     1      42.283 -16.761   2.524  1.00  0.00    -0.183 NA
HETATM   21  N   UNL     1      43.173 -17.619   3.058  1.00  0.00    -0.268 N 
HETATM   22  C   UNL     1      43.479 -17.340   4.381  1.00  0.00     0.052 A 
BRANCH  21  23
HETATM   23  C   UNL     1      43.786 -18.627   2.190  1.00  0.00     0.106 C 
HETATM   24  C   UNL     1      43.879 -18.085   0.761  1.00  0.00     0.034 C 
BRANCH  23  25
HETATM   25  C   UNL     1      43.062 -19.991   2.193  1.00  0.00     0.022 C 
HETATM   26  C   UNL     1      44.006 -21.171   2.012  1.00  0.00     0.007 C 
ENDBRANCH  23  25
ENDBRANCH  21  23
BRANCH  22  27
HETATM   27  C   UNL     1      44.558 -18.081   5.175  1.00  0.00     0.038 A 
HETATM   28  C   UNL     1      44.288 -18.500   6.604  1.00  0.00     0.011 A 
HETATM   29  C   UNL     1      44.430 -19.538   5.542  1.00  0.00     0.011 A 
ENDBRANCH  22  27
ENDBRANCH   1  18
TORSDOF 8
ENDMDL
MODEL 3
REMARK VINA RESULT:      -7.8      2.033      2.991
REMARK  8 active torsions:
REMARK  status: ('A' for Active; 'I' for Inactive)
REMARK    1  A    between atoms: C_2  and  C_3 
REMARK    2  A    between atoms: C_3  and  N_4 
REMARK    3  A    between atoms: C_7  and  C_8 
REMARK       I    between atoms: C_8  and  N_9 
REMARK    4  A    between atoms: N_9  and  N_10 
REMARK       I    between atoms: N_10  and  C_11 
REMARK    5  A    between atoms: C_11  and  C_12 
REMARK    6  A    between atoms: C_15  and  O_16 
REMARK    7  A    between atoms: O_16  and  C_17 
REMARK    8  A    between atoms: C_23  and  C_24 
ROOT
HETATM    1  C   UNL     1      44.034 -13.987   6.382  1.00  0.00     0.273 C 
HETATM    2  N   UNL     1      43.096 -13.133   6.921  1.00  0.00    -0.263 N 
HETATM    3  O   UNL     1      45.170 -14.071   6.848  1.00  0.00    -0.266 OA
HETATM    4  H   UNL     1      42.183 -12.959   6.515  1.00  0.00     0.190 HD
ENDROOT
BRANCH   2   5
HETATM    5  N   UNL     1      43.508 -12.335   8.002  1.00  0.00    -0.263 N 
HETATM    6  C   UNL     1      42.790 -11.187   8.283  1.00  0.00     0.270 C 
HETATM    7  O   UNL     1      41.994 -10.669   7.508  1.00  0.00    -0.266 OA
HETATM    8  H   UNL     1      43.888 -12.878   8.780  1.00  0.00     0.190 HD
BRANCH   6   9
HETATM    9  C   UNL     1      43.013 -10.635   9.652  1.00  0.00     0.033 A 
HETATM   10  C   UNL     1      44.166 -10.944  10.385  1.00  0.00     0.020 A 
HETATM   11  C   UNL     1      44.292 -10.501  11.703  1.00  0.00     0.038 A 
HETATM   12  C   UNL     1      43.280  -9.747  12.301  1.00  0.00     0.068 A 
HETATM   13  C   UNL     1      42.161  -9.383  11.550  1.00  0.00     0.038 A 
HETATM   14  C   UNL     1      42.027  -9.826  10.227  1.00  0.00     0.020 A 
BRANCH  12  15
HETATM   15  O   UNL     1      43.510  -9.430  13.609  1.00  0.00    -0.352 OA
BRANCH  15  16
HETATM   16  C   UNL     1      42.452  -8.782  14.314  1.00  0.00     0.171 C 
HETATM   17  C   UNL     1      42.071  -9.664  15.491  1.00  0.00     0.034 C 
ENDBRANCH  15  16
ENDBRANCH  12  15
ENDBRANCH   6   9
ENDBRANCH   2   5
BRANCH   1  18
HETATM   18  C   UNL     1      43.651 -14.665   5.167  1.00  0.00     0.077 A 
HETATM   19  C   UNL     1      43.588 -14.011   3.917  1.00  0.00     0.158 A 
HETATM   20  N   UNL     1      43.294 -14.830   2.915  1.00  0.00    -0.183 NA
HETATM   21  N   UNL     1      43.194 -16.037   3.503  1.00  0.00    -0.268 N 
HETATM   22  C   UNL     1      43.415 -16.001   4.870  1.00  0.00     0.052 A 
BRANCH  21  23
HETATM   23  C   UNL     1      42.999 -17.217   2.658  1.00  0.00     0.106 C 
HETATM   24  C   UNL     1      44.025 -17.211   1.521  1.00  0.00     0.034 C 
BRANCH  23  25
HETATM   25  C   UNL     1      41.572 -17.354   2.082  1.00  0.00     0.022 C 
HETATM   26  C   UNL     1      41.482 -16.983   0.608  1.00  0.00     0.007 C 
ENDBRANCH  23  25
ENDBRANCH  21  23
BRANCH  22  27
HETATM   27  C   UNL     1      43.490 -17.252   5.750  1.00  0.00     0.038 A 
HETATM   28  C   UNL     1      44.508 -18.329   5.443  1.00  0.00     0.011 A 
HETATM   29  C   UNL     1      44.647 -17.512   6.683  1.00  0.00     0.011 A 
ENDBRANCH  22  27
ENDBRANCH   1  18
TORSDOF 8
ENDMDL
MODEL 4
REMARK VINA RESULT:      -7.7      7.024     10.046
REMARK  8 active torsions:
REMARK  status: ('A' for Active; 'I' for Inactive)
REMARK    1  A    between atoms: C_2  and  C_3 
REMARK    2  A    between atoms: C_3  and  N_4 
REMARK    3  A    between atoms: C_7  and  C_8 
REMARK       I    between atoms: C_8  and  N_9 
REMARK    4  A    between atoms: N_9  and  N_10 
REMARK       I    between atoms: N_10  and  C_11 
REMARK    5  A    between atoms: C_11  and  C_12 
REMARK    6  A    between atoms: C_15  and  O_16 
REMARK    7  A    between atoms: O_16  and  C_17 
REMARK    8  A    between atoms: C_23  and  C_24 
ROOT
HETATM    1  C   UNL     1      41.492 -14.785  -0.350  1.00  0.00     0.273 C 
HETATM    2  N   UNL     1      41.905 -16.094  -0.470  1.00  0.00    -0.263 N 
HETATM    3  O   UNL     1      41.809 -14.097   0.620  1.00  0.00    -0.266 OA
HETATM    4  H   UNL     1      41.592 -16.726  -1.198  1.00  0.00     0.190 HD
ENDROOT
BRANCH   2   5
HETATM    5  N   UNL     1      42.670 -16.620   0.585  1.00  0.00    -0.263 N 
HETATM    6  C   UNL     1      42.062 -17.491   1.470  1.00  0.00     0.270 C 
HETATM    7  O   UNL     1      40.848 -17.629   1.569  1.00  0.00    -0.266 OA
HETATM    8  H   UNL     1      43.646 -16.785   0.328  1.00  0.00     0.190 HD
BRANCH   6   9
HETATM    9  C   UNL     1      43.008 -18.313   2.281  1.00  0.00     0.033 A 
HETATM   10  C   UNL     1      43.438 -19.572   1.845  1.00  0.00     0.020 A 
HETATM   11  C   UNL     1      44.234 -20.362   2.677  1.00  0.00     0.038 A 
HETATM   12  C   UNL     1      44.611 -19.908   3.943  1.00  0.00     0.068 A 
HETATM   13  C   UNL     1      44.237 -18.626   4.351  1.00  0.00     0.038 A 
HETATM   14  C   UNL     1      43.437 -17.830   3.522  1.00  0.00     0.020 A 
BRANCH  12  15
HETATM   15  O   UNL     1      45.341 -20.804   4.670  1.00  0.00    -0.352 OA
BRANCH  15  16
HETATM   16  C   UNL     1      44.627 -21.880   5.278  1.00  0.00     0.171 C 
HETATM   17  C   UNL     1      43.968 -21.345   6.538  1.00  0.00     0.034 C 
ENDBRANCH  15  16
ENDBRANCH  12  15
ENDBRANCH   6   9
ENDBRANCH   2   5
BRANCH   1  18
HETATM   18  C   UNL     1      40.562 -14.319  -1.349  1.00  0.00     0.077 A 
HETATM   19  C   UNL     1      40.878 -14.283  -2.726  1.00  0.00     0.158 A 
HETATM   20  N   UNL     1      39.859 -13.898  -3.485  1.00  0.00    -0.183 NA
HETATM   21  N   UNL     1      38.856 -13.708  -2.606  1.00  0.00    -0.268 N 
HETATM   22  C   UNL     1      39.221 -13.962  -1.294  1.00  0.00     0.052 A 
BRANCH  21  23
HETATM   23  C   UNL     1      37.521 -13.394  -3.120  1.00  0.00     0.106 C 
HETATM   24  C   UNL     1      37.036 -14.533  -4.022  1.00  0.00     0.034 C 
BRANCH  23  25
HETATM   25  C   UNL     1      37.434 -12.049  -3.874  1.00  0.00     0.022 C 
HETATM   26  C   UNL     1      37.734 -10.846  -2.991  1.00  0.00     0.007 C 
ENDBRANCH  23  25
ENDBRANCH  21  23
BRANCH  22  27
HETATM   27  C   UNL     1      38.234 -13.951  -0.123  1.00  0.00     0.038 A 
HETATM   28  C   UNL     1      38.496 -13.064   1.075  1.00  0.00     0.011 A 
HETATM   29  C   UNL     1      37.348 -12.766   0.171  1.00  0.00     0.011 A 
ENDBRANCH  22  27
ENDBRANCH   1  18
TORSDOF 8
ENDMDL
MODEL 5
REMARK VINA RESULT:      -7.5      6.141     10.586
REMARK  8 active torsions:
REMARK  status: ('A' for Active; 'I' for Inactive)
REMARK    1  A    between atoms: C_2  and  C_3 
REMARK    2  A    between atoms: C_3  and  N_4 
REMARK    3  A    between atoms: C_7  and  C_8 
REMARK       I    between atoms: C_8  and  N_9 
REMARK    4  A    between atoms: N_9  and  N_10 
REMARK       I    between atoms: N_10  and  C_11 
REMARK    5  A    between atoms: C_11  and  C_12 
REMARK    6  A    between atoms: C_15  and  O_16 
REMARK    7  A    between atoms: O_16  and  C_17 
REMARK    8  A    between atoms: C_23  and  C_24 
ROOT
HETATM    1  C   UNL     1      40.905 -16.486   2.091  1.00  0.00     0.273 C 
HETATM    2  N   UNL     1      41.009 -15.219   1.561  1.00  0.00    -0.263 N 
HETATM    3  O   UNL     1      40.108 -17.308   1.641  1.00  0.00    -0.266 OA
HETATM    4  H   UNL     1      41.580 -14.480   1.957  1.00  0.00     0.190 HD
ENDROOT
BRANCH   2   5
HETATM    5  N   UNL     1      40.134 -14.894   0.510  1.00  0.00    -0.263 N 
HETATM    6  C   UNL     1      40.675 -14.542  -0.713  1.00  0.00     0.270 C 
HETATM    7  O   UNL     1      41.849 -14.230  -0.878  1.00  0.00    -0.266 OA
HETATM    8  H   UNL     1      39.270 -15.440   0.524  1.00  0.00     0.190 HD
BRANCH   6   9
HETATM    9  C   UNL     1      39.723 -14.623  -1.859  1.00  0.00     0.033 A 
HETATM   10  C   UNL     1      38.495 -13.952  -1.837  1.00  0.00     0.020 A 
HETATM   11  C   UNL     1      37.582 -14.137  -2.877  1.00  0.00     0.038 A 
HETATM   12  C   UNL     1      37.881 -14.984  -3.946  1.00  0.00     0.068 A 
HETATM   13  C   UNL     1      39.131 -15.602  -4.001  1.00  0.00     0.038 A 
HETATM   14  C   UNL     1      40.051 -15.423  -2.960  1.00  0.00     0.020 A 
BRANCH  12  15
HETATM   15  O   UNL     1      36.876 -15.116  -4.861  1.00  0.00    -0.352 OA
BRANCH  15  16
HETATM   16  C   UNL     1      35.760 -14.237  -4.730  1.00  0.00     0.171 C 
HETATM   17  C   UNL     1      35.636 -13.449  -6.023  1.00  0.00     0.034 C 
ENDBRANCH  15  16
ENDBRANCH  12  15
ENDBRANCH   6   9
ENDBRANCH   2   5
BRANCH   1  18
HETATM   18  C   UNL     1      41.682 -16.743   3.280  1.00  0.00     0.077 A 
HETATM   19  C   UNL     1      41.163 -16.565   4.582  1.00  0.00     0.158 A 
HETATM   20  N   UNL     1      42.011 -16.932   5.535  1.00  0.00    -0.183 NA
HETATM   21  N   UNL     1      43.083 -17.384   4.857  1.00  0.00    -0.268 N 
HETATM   22  C   UNL     1      42.936 -17.306   3.481  1.00  0.00     0.052 A 
BRANCH  21  23
HETATM   23  C   UNL     1      44.183 -17.996   5.607  1.00  0.00     0.106 C 
HETATM   24  C   UNL     1      43.957 -19.507   5.708  1.00  0.00     0.034 C 
BRANCH  23  25
HETATM   25  C   UNL     1      44.399 -17.398   7.014  1.00  0.00     0.022 C 
HETATM   26  C   UNL     1      44.088 -18.378   8.136  1.00  0.00     0.007 C 
ENDBRANCH  23  25
ENDBRANCH  21  23
BRANCH  22  27
HETATM   27  C   UNL     1      43.951 -17.875   2.486  1.00  0.00     0.038 A 
HETATM   28  C   UNL     1      43.689 -19.208   1.822  1.00  0.00     0.011 A 
HETATM   29  C   UNL     1      43.668 -17.960   1.007  1.00  0.00     0.011 A 
ENDBRANCH  22  27
ENDBRANCH   1  18
TORSDOF 8
ENDMDL
MODEL 6
REMARK VINA RESULT:      -7.4      6.918     10.488
REMARK  8 active torsions:
REMARK  status: ('A' for Active; 'I' for Inactive)
REMARK    1  A    between atoms: C_2  and  C_3 
REMARK    2  A    between atoms: C_3  and  N_4 
REMARK    3  A    between atoms: C_7  and  C_8 
REMARK       I    between atoms: C_8  and  N_9 
REMARK    4  A    between atoms: N_9  and  N_10 
REMARK       I    between atoms: N_10  and  C_11 
REMARK    5  A    between atoms: C_11  and  C_12 
REMARK    6  A    between atoms: C_15  and  O_16 
REMARK    7  A    between atoms: O_16  and  C_17 
REMARK    8  A    between atoms: C_23  and  C_24 
ROOT
HETATM    1  C   UNL     1      40.696 -14.583  -0.380  1.00  0.00     0.273 C 
HETATM    2  N   UNL     1      40.708 -15.931  -0.093  1.00  0.00    -0.263 N 
HETATM    3  O   UNL     1      41.565 -13.826   0.051  1.00  0.00    -0.266 OA
HETATM    4  H   UNL     1      39.965 -16.574  -0.344  1.00  0.00     0.190 HD
ENDROOT
BRANCH   2   5
HETATM    5  N   UNL     1      41.735 -16.394   0.748  1.00  0.00    -0.263 N 
HETATM    6  C   UNL     1      41.386 -17.007   1.937  1.00  0.00     0.270 C 
HETATM    7  O   UNL     1      40.271 -16.938   2.441  1.00  0.00    -0.266 OA
HETATM    8  H   UNL     1      42.545 -16.747   0.234  1.00  0.00     0.190 HD
BRANCH   6   9
HETATM    9  C   UNL     1      42.469 -17.826   2.555  1.00  0.00     0.033 A 
HETATM   10  C   UNL     1      43.271 -18.677   1.784  1.00  0.00     0.020 A 
HETATM   11  C   UNL     1      44.201 -19.511   2.408  1.00  0.00     0.038 A 
HETATM   12  C   UNL     1      44.346 -19.504   3.796  1.00  0.00     0.068 A 
HETATM   13  C   UNL     1      43.593 -18.609   4.559  1.00  0.00     0.038 A 
HETATM   14  C   UNL     1      42.657 -17.772   3.940  1.00  0.00     0.020 A 
BRANCH  12  15
HETATM   15  O   UNL     1      45.250 -20.408   4.275  1.00  0.00    -0.352 OA
BRANCH  15  16
HETATM   16  C   UNL     1      44.740 -21.471   5.080  1.00  0.00     0.171 C 
HETATM   17  C   UNL     1      44.679 -22.719   4.215  1.00  0.00     0.034 C 
ENDBRANCH  15  16
ENDBRANCH  12  15
ENDBRANCH   6   9
ENDBRANCH   2   5
BRANCH   1  18
HETATM   18  C   UNL     1      39.541 -14.096  -1.094  1.00  0.00     0.077 A 
HETATM   19  C   UNL     1      38.634 -13.169  -0.534  1.00  0.00     0.158 A 
HETATM   20  N   UNL     1      37.687 -12.789  -1.383  1.00  0.00    -0.183 NA
HETATM   21  N   UNL     1      37.988 -13.446  -2.519  1.00  0.00    -0.268 N 
HETATM   22  C   UNL     1      39.115 -14.246  -2.408  1.00  0.00     0.052 A 
BRANCH  21  23
HETATM   23  C   UNL     1      37.208 -13.160  -3.725  1.00  0.00     0.106 C 
HETATM   24  C   UNL     1      36.494 -11.814  -3.568  1.00  0.00     0.034 C 
BRANCH  23  25
HETATM   25  C   UNL     1      36.189 -14.259  -4.095  1.00  0.00     0.022 C 
HETATM   26  C   UNL     1      35.417 -13.956  -5.371  1.00  0.00     0.007 C 
ENDBRANCH  23  25
ENDBRANCH  21  23
BRANCH  22  27
HETATM   27  C   UNL     1      39.745 -14.990  -3.588  1.00  0.00     0.038 A 
HETATM   28  C   UNL     1      40.200 -16.423  -3.419  1.00  0.00     0.011 A 
HETATM   29  C   UNL     1      39.037 -16.116  -4.300  1.00  0.00     0.011 A 
ENDBRANCH  22  27
ENDBRANCH   1  18
TORSDOF 8
ENDMDL
MODEL 7
REMARK VINA RESULT:      -7.2      5.795      9.461
REMARK  8 active torsions:
REMARK  status: ('A' for Active; 'I' for Inactive)
REMARK    1  A    between atoms: C_2  and  C_3 
REMARK    2  A    between atoms: C_3  and  N_4 
REMARK    3  A    between atoms: C_7  and  C_8 
REMARK       I    between atoms: C_8  and  N_9 
REMARK    4  A    between atoms: N_9  and  N_10 
REMARK       I    between atoms: N_10  and  C_11 
REMARK    5  A    between atoms: C_11  and  C_12 
REMARK    6  A    between atoms: C_15  and  O_16 
REMARK    7  A    between atoms: O_16  and  C_17 
REMARK    8  A    between atoms: C_23  and  C_24 
ROOT
HETATM    1  C   UNL     1      41.970 -17.716   1.270  1.00  0.00     0.273 C 
HETATM    2  N   UNL     1      42.697 -16.737   0.628  1.00  0.00    -0.263 N 
HETATM    3  O   UNL     1      40.790 -17.927   0.991  1.00  0.00    -0.266 OA
HETATM    4  H   UNL     1      43.638 -16.463   0.889  1.00  0.00     0.190 HD
ENDROOT
BRANCH   2   5
HETATM    5  N   UNL     1      42.019 -15.963  -0.329  1.00  0.00    -0.263 N 
HETATM    6  C   UNL     1      41.660 -14.670   0.003  1.00  0.00     0.270 C 
HETATM    7  O   UNL     1      41.645 -14.236   1.149  1.00  0.00    -0.266 OA
HETATM    8  H   UNL     1      42.318 -16.158  -1.287  1.00  0.00     0.190 HD
BRANCH   6   9
HETATM    9  C   UNL     1      41.337 -13.796  -1.163  1.00  0.00     0.033 A 
HETATM   10  C   UNL     1      40.940 -14.336  -2.392  1.00  0.00     0.020 A 
HETATM   11  C   UNL     1      40.752 -13.498  -3.493  1.00  0.00     0.038 A 
HETATM   12  C   UNL     1      40.952 -12.121  -3.381  1.00  0.00     0.068 A 
HETATM   13  C   UNL     1      41.283 -11.574  -2.140  1.00  0.00     0.038 A 
HETATM   14  C   UNL     1      41.476 -12.410  -1.033  1.00  0.00     0.020 A 
BRANCH  12  15
HETATM   15  O   UNL     1      40.788 -11.430  -4.548  1.00  0.00    -0.352 OA
BRANCH  15  16
HETATM   16  C   UNL     1      41.089 -10.035  -4.523  1.00  0.00     0.171 C 
HETATM   17  C   UNL     1      42.474  -9.849  -5.119  1.00  0.00     0.034 C 
ENDBRANCH  15  16
ENDBRANCH  12  15
ENDBRANCH   6   9
ENDBRANCH   2   5
BRANCH   1  18
HETATM   18  C   UNL     1      42.628 -18.377   2.370  1.00  0.00     0.077 A 
HETATM   19  C   UNL     1      43.658 -19.325   2.182  1.00  0.00     0.158 A 
HETATM   20  N   UNL     1      44.185 -19.755   3.323  1.00  0.00    -0.183 NA
HETATM   21  N   UNL     1      43.520 -19.062   4.267  1.00  0.00    -0.268 N 
HETATM   22  C   UNL     1      42.570 -18.198   3.746  1.00  0.00     0.052 A 
BRANCH  21  23
HETATM   23  C   UNL     1      43.939 -19.196   5.664  1.00  0.00     0.106 C 
HETATM   24  C   UNL     1      45.086 -18.223   5.952  1.00  0.00     0.034 C 
BRANCH  23  25
HETATM   25  C   UNL     1      44.348 -20.630   6.067  1.00  0.00     0.022 C 
HETATM   26  C   UNL     1      43.590 -21.150   7.280  1.00  0.00     0.007 C 
ENDBRANCH  23  25
ENDBRANCH  21  23
BRANCH  22  27
HETATM   27  C   UNL     1      41.773 -17.204   4.595  1.00  0.00     0.038 A 
HETATM   28  C   UNL     1      42.241 -15.770   4.715  1.00  0.00     0.011 A 
HETATM   29  C   UNL     1      40.979 -16.077   3.982  1.00  0.00     0.011 A 
ENDBRANCH  22  27
ENDBRANCH   1  18
TORSDOF 8
ENDMDL
MODEL 8
REMARK VINA RESULT:      -7.0      3.332     10.149
REMARK  8 active torsions:
REMARK  status: ('A' for Active; 'I' for Inactive)
REMARK    1  A    between atoms: C_2  and  C_3 
REMARK    2  A    between atoms: C_3  and  N_4 
REMARK    3  A    between atoms: C_7  and  C_8 
REMARK       I    between atoms: C_8  and  N_9 
REMARK    4  A    between atoms: N_9  and  N_10 
REMARK       I    between atoms: N_10  and  C_11 
REMARK    5  A    between atoms: C_11  and  C_12 
REMARK    6  A    between atoms: C_15  and  O_16 
REMARK    7  A    between atoms: O_16  and  C_17 
REMARK    8  A    between atoms: C_23  and  C_24 
ROOT
HETATM    1  C   UNL     1      41.898 -10.422   7.850  1.00  0.00     0.273 C 
HETATM    2  N   UNL     1      41.658 -11.765   7.656  1.00  0.00    -0.263 N 
HETATM    3  O   UNL     1      42.047  -9.652   6.902  1.00  0.00    -0.266 OA
HETATM    4  H   UNL     1      41.624 -12.451   8.402  1.00  0.00     0.190 HD
ENDROOT
BRANCH   2   5
HETATM    5  N   UNL     1      41.632 -12.223   6.328  1.00  0.00    -0.263 N 
HETATM    6  C   UNL     1      42.581 -13.147   5.931  1.00  0.00     0.270 C 
HETATM    7  O   UNL     1      43.601 -13.396   6.563  1.00  0.00    -0.266 OA
HETATM    8  H   UNL     1      40.686 -12.298   5.948  1.00  0.00     0.190 HD
BRANCH   6   9
HETATM    9  C   UNL     1      42.244 -13.883   4.677  1.00  0.00     0.033 A 
HETATM   10  C   UNL     1      41.257 -14.876   4.656  1.00  0.00     0.020 A 
HETATM   11  C   UNL     1      41.044 -15.621   3.494  1.00  0.00     0.038 A 
HETATM   12  C   UNL     1      41.803 -15.384   2.347  1.00  0.00     0.068 A 
HETATM   13  C   UNL     1      42.741 -14.350   2.347  1.00  0.00     0.038 A 
HETATM   14  C   UNL     1      42.962 -13.601   3.510  1.00  0.00     0.020 A 
BRANCH  12  15
HETATM   15  O   UNL     1      41.528 -16.222   1.304  1.00  0.00    -0.352 OA
BRANCH  15  16
HETATM   16  C   UNL     1      41.944 -17.580   1.437  1.00  0.00     0.171 C 
HETATM   17  C   UNL     1      43.412 -17.654   1.053  1.00  0.00     0.034 C 
ENDBRANCH  15  16
ENDBRANCH  12  15
ENDBRANCH   6   9
ENDBRANCH   2   5
BRANCH   1  18
HETATM   18  C   UNL     1      42.098 -10.004   9.216  1.00  0.00     0.077 A 
HETATM   19  C   UNL     1      41.230  -9.102   9.872  1.00  0.00     0.158 A 
HETATM   20  N   UNL     1      41.544  -8.911  11.147  1.00  0.00    -0.183 NA
HETATM   21  N   UNL     1      42.607  -9.715  11.342  1.00  0.00    -0.268 N 
HETATM   22  C   UNL     1      42.981 -10.415  10.206  1.00  0.00     0.052 A 
BRANCH  21  23
HETATM   23  C   UNL     1      43.146  -9.852  12.697  1.00  0.00     0.106 C 
HETATM   24  C   UNL     1      42.536 -11.084  13.371  1.00  0.00     0.034 C 
BRANCH  23  25
HETATM   25  C   UNL     1      42.942  -8.607  13.588  1.00  0.00     0.022 C 
HETATM   26  C   UNL     1      42.416  -8.943  14.977  1.00  0.00     0.007 C 
ENDBRANCH  23  25
ENDBRANCH  21  23
BRANCH  22  27
HETATM   27  C   UNL     1      44.070 -11.491  10.195  1.00  0.00     0.038 A 
HETATM   28  C   UNL     1      45.211 -11.398   9.205  1.00  0.00     0.011 A 
HETATM   29  C   UNL     1      45.478 -11.217  10.661  1.00  0.00     0.011 A 
ENDBRANCH  22  27
ENDBRANCH   1  18
TORSDOF 8
ENDMDL
MODEL 9
REMARK VINA RESULT:      -6.9      5.191      7.837
REMARK  8 active torsions:
REMARK  status: ('A' for Active; 'I' for Inactive)
REMARK    1  A    between atoms: C_2  and  C_3 
REMARK    2  A    between atoms: C_3  and  N_4 
REMARK    3  A    between atoms: C_7  and  C_8 
REMARK       I    between atoms: C_8  and  N_9 
REMARK    4  A    between atoms: N_9  and  N_10 
REMARK       I    between atoms: N_10  and  C_11 
REMARK    5  A    between atoms: C_11  and  C_12 
REMARK    6  A    between atoms: C_15  and  O_16 
REMARK    7  A    between atoms: O_16  and  C_17 
REMARK    8  A    between atoms: C_23  and  C_24 
ROOT
HETATM    1  C   UNL     1      42.200 -15.956   4.608  1.00  0.00     0.273 C 
HETATM    2  N   UNL     1      40.829 -15.900   4.480  1.00  0.00    -0.263 N 
HETATM    3  O   UNL     1      42.926 -15.082   4.135  1.00  0.00    -0.266 OA
HETATM    4  H   UNL     1      40.199 -16.641   4.768  1.00  0.00     0.190 HD
ENDROOT
BRANCH   2   5
HETATM    5  N   UNL     1      40.300 -14.821   3.751  1.00  0.00    -0.263 N 
HETATM    6  C   UNL     1      39.739 -15.075   2.513  1.00  0.00     0.270 C 
HETATM    7  O   UNL     1      39.907 -16.114   1.885  1.00  0.00    -0.266 OA
HETATM    8  H   UNL     1      39.874 -14.107   4.345  1.00  0.00     0.190 HD
BRANCH   6   9
HETATM    9  C   UNL     1      38.847 -13.993   2.002  1.00  0.00     0.033 A 
HETATM   10  C   UNL     1      37.933 -14.228   0.968  1.00  0.00     0.020 A 
HETATM   11  C   UNL     1      37.192 -13.169   0.439  1.00  0.00     0.038 A 
HETATM   12  C   UNL     1      37.350 -11.873   0.934  1.00  0.00     0.068 A 
HETATM   13  C   UNL     1      38.212 -11.650   2.009  1.00  0.00     0.038 A 
HETATM   14  C   UNL     1      38.960 -12.707   2.542  1.00  0.00     0.020 A 
BRANCH  12  15
HETATM   15  O   UNL     1      36.606 -10.928   0.288  1.00  0.00    -0.352 OA
BRANCH  15  16
HETATM   16  C   UNL     1      35.200 -11.156   0.203  1.00  0.00     0.171 C 
HETATM   17  C   UNL     1      34.534 -10.364   1.315  1.00  0.00     0.034 C 
ENDBRANCH  15  16
ENDBRANCH  12  15
ENDBRANCH   6   9
ENDBRANCH   2   5
BRANCH   1  18
HETATM   18  C   UNL     1      42.733 -17.157   5.202  1.00  0.00     0.077 A 
HETATM   19  C   UNL     1      42.966 -17.282   6.590  1.00  0.00     0.158 A 
HETATM   20  N   UNL     1      43.383 -18.493   6.941  1.00  0.00    -0.183 NA
HETATM   21  N   UNL     1      43.394 -19.180   5.783  1.00  0.00    -0.268 N 
HETATM   22  C   UNL     1      42.996 -18.423   4.692  1.00  0.00     0.052 A 
BRANCH  21  23
HETATM   23  C   UNL     1      43.689 -20.614   5.818  1.00  0.00     0.106 C 
HETATM   24  C   UNL     1      43.684 -21.104   7.269  1.00  0.00     0.034 C 
BRANCH  23  25
HETATM   25  C   UNL     1      45.017 -21.004   5.133  1.00  0.00     0.022 C 
HETATM   26  C   UNL     1      45.014 -22.423   4.583  1.00  0.00     0.007 C 
ENDBRANCH  23  25
ENDBRANCH  21  23
BRANCH  22  27
HETATM   27  C   UNL     1      42.794 -19.000   3.289  1.00  0.00     0.038 A 
HETATM   28  C   UNL     1      42.988 -18.116   2.076  1.00  0.00     0.011 A 
HETATM   29  C   UNL     1      43.945 -19.229   2.340  1.00  0.00     0.011 A 
ENDBRANCH  22  27
ENDBRANCH   1  18
TORSDOF 8
ENDMDL
MODEL 10
REMARK VINA RESULT:      -6.8      2.951      9.969
REMARK  8 active torsions:
REMARK  status: ('A' for Active; 'I' for Inactive)
REMARK    1  A    between atoms: C_2  and  C_3 
REMARK    2  A    between atoms: C_3  and  N_4 
REMARK    3  A    between atoms: C_7  and  C_8 
REMARK       I    between atoms: C_8  and  N_9 
REMARK    4  A    between atoms: N_9  and  N_10 
REMARK       I    between atoms: N_10  and  C_11 
REMARK    5  A    between atoms: C_11  and  C_12 
REMARK    6  A    between atoms: C_15  and  O_16 
REMARK    7  A    between atoms: O_16  and  C_17 
REMARK    8  A    between atoms: C_23  and  C_24 
ROOT
HETATM    1  C   UNL     1      43.223 -11.559   8.807  1.00  0.00     0.273 C 
HETATM    2  N   UNL     1      43.927 -12.734   8.655  1.00  0.00    -0.263 N 
HETATM    3  O   UNL     1      42.754 -10.961   7.839  1.00  0.00    -0.266 OA
HETATM    4  H   UNL     1      44.411 -13.209   9.409  1.00  0.00     0.190 HD
ENDROOT
BRANCH   2   5
HETATM    5  N   UNL     1      44.120 -13.196   7.343  1.00  0.00    -0.263 N 
HETATM    6  C   UNL     1      44.018 -14.553   7.100  1.00  0.00     0.270 C 
HETATM    7  O   UNL     1      44.039 -15.409   7.978  1.00  0.00    -0.266 OA
HETATM    8  H   UNL     1      43.777 -12.545   6.634  1.00  0.00     0.190 HD
BRANCH   6   9
HETATM    9  C   UNL     1      43.818 -14.915   5.666  1.00  0.00     0.033 A 
HETATM   10  C   UNL     1      43.812 -13.940   4.661  1.00  0.00     0.020 A 
HETATM   11  C   UNL     1      43.513 -14.298   3.346  1.00  0.00     0.038 A 
HETATM   12  C   UNL     1      43.222 -15.624   3.017  1.00  0.00     0.068 A 
HETATM   13  C   UNL     1      43.292 -16.607   4.006  1.00  0.00     0.038 A 
HETATM   14  C   UNL     1      43.589 -16.254   5.328  1.00  0.00     0.020 A 
BRANCH  12  15
HETATM   15  O   UNL     1      42.893 -15.822   1.706  1.00  0.00    -0.352 OA
BRANCH  15  16
HETATM   16  C   UNL     1      41.529 -15.609   1.342  1.00  0.00     0.171 C 
HETATM   17  C   UNL     1      41.367 -16.031  -0.109  1.00  0.00     0.034 C 
ENDBRANCH  15  16
ENDBRANCH  12  15
ENDBRANCH   6   9
ENDBRANCH   2   5
BRANCH   1  18
HETATM   18  C   UNL     1      43.187 -11.007  10.139  1.00  0.00     0.077 A 
HETATM   19  C   UNL     1      44.323 -10.443  10.760  1.00  0.00     0.158 A 
HETATM   20  N   UNL     1      44.060  -9.919  11.952  1.00  0.00    -0.183 NA
HETATM   21  N   UNL     1      42.736 -10.112  12.104  1.00  0.00    -0.268 N 
HETATM   22  C   UNL     1      42.148 -10.757  11.027  1.00  0.00     0.052 A 
BRANCH  21  23
HETATM   23  C   UNL     1      42.071  -9.536  13.274  1.00  0.00     0.106 C 
HETATM   24  C   UNL     1      42.393  -8.041  13.364  1.00  0.00     0.034 C 
BRANCH  23  25
HETATM   25  C   UNL     1      42.419 -10.233  14.607  1.00  0.00     0.022 C 
HETATM   26  C   UNL     1      41.830  -9.531  15.823  1.00  0.00     0.007 C 
ENDBRANCH  23  25
ENDBRANCH  21  23
BRANCH  22  27
HETATM   27  C   UNL     1      40.639 -10.977  10.892  1.00  0.00     0.038 A 
HETATM   28  C   UNL     1      39.736  -9.814  10.545  1.00  0.00     0.011 A 
HETATM   29  C   UNL     1      39.933 -10.916   9.560  1.00  0.00     0.011 A 
ENDBRANCH  22  27
ENDBRANCH   1  18
TORSDOF 8
ENDMDL
