MODEL 1
REMARK VINA RESULT:      -8.1      0.000      0.000
REMARK  6 active torsions:
REMARK  status: ('A' for Active; 'I' for Inactive)
REMARK    1  A    between atoms: O_2  and  C_3 
REMARK    2  A    between atoms: C_6  and  C_7 
REMARK    3  A    between atoms: C_7  and  N_8 
REMARK       I    between atoms: N_8  and  C_9 
REMARK       I    between atoms: C_9  and  N_10 
REMARK    4  A    between atoms: N_10  and  C_11 
REMARK    5  A    between atoms: C_11  and  C_12 
REMARK    6  A    between atoms: C_13  and  C_14 
ROOT
HETATM    1  N   UNL     1      40.995 -17.018   2.041  1.00  0.00    -0.339 N 
HETATM    2  C   UNL     1      40.348 -15.896   1.647  1.00  0.00     0.316 C 
HETATM    3  N   UNL     1      40.583 -15.482   0.376  1.00  0.00    -0.339 N 
HETATM    4  O   UNL     1      39.629 -15.304   2.446  1.00  0.00    -0.247 OA
HETATM    5  H   UNL     1      40.790 -17.267   3.000  1.00  0.00     0.164 HD
HETATM    6  H   UNL     1      40.864 -16.180  -0.294  1.00  0.00     0.164 HD
ENDROOT
BRANCH   3   7
HETATM    7  C   UNL     1      40.024 -14.249  -0.149  1.00  0.00     0.163 C 
BRANCH   7   8
HETATM    8  C   UNL     1      40.962 -13.497  -1.075  1.00  0.00    -0.029 A 
HETATM    9  C   UNL     1      40.800 -13.563  -2.477  1.00  0.00    -0.018 A 
HETATM   10  C   UNL     1      41.643 -12.824  -3.323  1.00  0.00     0.013 A 
HETATM   11  C   UNL     1      42.650 -12.019  -2.796  1.00  0.00     0.001 A 
HETATM   12  C   UNL     1      42.816 -11.938  -1.419  1.00  0.00     0.001 A 
HETATM   13  C   UNL     1      41.979 -12.665  -0.568  1.00  0.00     0.010 A 
BRANCH   9  14
HETATM   14  C   UNL     1      39.749 -14.355  -3.100  1.00  0.00    -0.018 A 
HETATM   15  C   UNL     1      38.463 -13.870  -3.234  1.00  0.00     0.061 A 
HETATM   16  S   UNL     1      37.416 -15.009  -3.967  1.00  0.00    -0.113 SA
HETATM   17  C   UNL     1      38.666 -16.171  -4.079  1.00  0.00     0.050 A 
HETATM   18  C   UNL     1      39.859 -15.697  -3.578  1.00  0.00     0.020 A 
ENDBRANCH   9  14
ENDBRANCH   7   8
ENDBRANCH   3   7
BRANCH   1  19
HETATM   19  C   UNL     1      42.044 -17.752   1.368  1.00  0.00     0.162 C 
BRANCH  19  20
HETATM   20  C   UNL     1      42.859 -18.629   2.287  1.00  0.00    -0.040 A 
HETATM   21  C   UNL     1      43.396 -19.831   1.802  1.00  0.00     0.011 A 
HETATM   22  C   UNL     1      44.222 -20.628   2.605  1.00  0.00     0.037 A 
HETATM   23  C   UNL     1      44.534 -20.229   3.904  1.00  0.00     0.068 A 
HETATM   24  C   UNL     1      44.001 -19.036   4.394  1.00  0.00     0.037 A 
HETATM   25  C   UNL     1      43.178 -18.238   3.593  1.00  0.00     0.011 A 
BRANCH  23  26
HETATM   26  O   UNL     1      45.335 -20.901   4.784  1.00  0.00    -0.356 OA
HETATM   27  C   UNL     1      44.955 -22.231   5.113  1.00  0.00     0.210 C 
ENDBRANCH  23  26
ENDBRANCH  19  20
ENDBRANCH   1  19
TORSDOF 6
ENDMDL
MODEL 2
REMARK VINA RESULT:      -8.0      3.628      9.560
REMARK  6 active torsions:
REMARK  status: ('A' for Active; 'I' for Inactive)
REMARK    1  A    between atoms: O_2  and  C_3 
REMARK    2  A    between atoms: C_6  and  C_7 
REMARK    3  A    between atoms: C_7  and  N_8 
REMARK       I    between atoms: N_8  and  C_9 
REMARK       I    between atoms: C_9  and  N_10 
REMARK    4  A    between atoms: N_10  and  C_11 
REMARK    5  A    between atoms: C_11  and  C_12 
REMARK    6  A    between atoms: C_13  and  C_14 
ROOT
HETATM    1  N   UNL     1      42.667 -16.360   0.225  1.00  0.00    -0.339 N 
HETATM    2  C   UNL     1      43.164 -16.969   1.328  1.00  0.00     0.316 C 
HETATM    3  N   UNL     1      42.298 -17.746   2.026  1.00  0.00    -0.339 N 
HETATM    4  O   UNL     1      44.329 -16.765   1.654  1.00  0.00    -0.247 OA
HETATM    5  H   UNL     1      43.356 -15.786  -0.244  1.00  0.00     0.164 HD
HETATM    6  H   UNL     1      41.520 -18.142   1.521  1.00  0.00     0.164 HD
ENDROOT
BRANCH   3   7
HETATM    7  C   UNL     1      42.671 -18.388   3.274  1.00  0.00     0.163 C 
BRANCH   7   8
HETATM    8  C   UNL     1      43.404 -19.704   3.089  1.00  0.00    -0.029 A 
HETATM    9  C   UNL     1      44.207 -20.234   4.124  1.00  0.00    -0.018 A 
HETATM   10  C   UNL     1      44.841 -21.478   3.962  1.00  0.00     0.013 A 
HETATM   11  C   UNL     1      44.690 -22.204   2.783  1.00  0.00     0.001 A 
HETATM   12  C   UNL     1      43.896 -21.699   1.760  1.00  0.00     0.001 A 
HETATM   13  C   UNL     1      43.257 -20.466   1.914  1.00  0.00     0.010 A 
BRANCH   9  14
HETATM   14  C   UNL     1      44.384 -19.551   5.397  1.00  0.00    -0.018 A 
HETATM   15  C   UNL     1      43.638 -19.889   6.509  1.00  0.00     0.061 A 
HETATM   16  S   UNL     1      44.016 -18.912   7.863  1.00  0.00    -0.113 SA
HETATM   17  C   UNL     1      45.156 -18.008   6.963  1.00  0.00     0.050 A 
HETATM   18  C   UNL     1      45.254 -18.448   5.661  1.00  0.00     0.020 A 
ENDBRANCH   9  14
ENDBRANCH   7   8
ENDBRANCH   3   7
BRANCH   1  19
HETATM   19  C   UNL     1      41.297 -16.269  -0.230  1.00  0.00     0.162 C 
BRANCH  19  20
HETATM   20  C   UNL     1      41.077 -15.217  -1.289  1.00  0.00    -0.040 A 
HETATM   21  C   UNL     1      40.636 -15.599  -2.564  1.00  0.00     0.011 A 
HETATM   22  C   UNL     1      40.345 -14.641  -3.545  1.00  0.00     0.037 A 
HETATM   23  C   UNL     1      40.480 -13.283  -3.260  1.00  0.00     0.068 A 
HETATM   24  C   UNL     1      40.921 -12.896  -1.994  1.00  0.00     0.037 A 
HETATM   25  C   UNL     1      41.209 -13.850  -1.014  1.00  0.00     0.011 A 
BRANCH  23  26
HETATM   26  O   UNL     1      40.218 -12.250  -4.115  1.00  0.00    -0.356 OA
HETATM   27  C   UNL     1      41.109 -11.142  -4.079  1.00  0.00     0.210 C 
ENDBRANCH  23  26
ENDBRANCH  19  20
ENDBRANCH   1  19
TORSDOF 6
ENDMDL
MODEL 3
REMARK VINA RESULT:      -8.0      1.851      3.249
REMARK  6 active torsions:
REMARK  status: ('A' for Active; 'I' for Inactive)
REMARK    1  A    between atoms: O_2  and  C_3 
REMARK    2  A    between atoms: C_6  and  C_7 
REMARK    3  A    between atoms: C_7  and  N_8 
REMARK       I    between atoms: N_8  and  C_9 
REMARK       I    between atoms: C_9  and  N_10 
REMARK    4  A    between atoms: N_10  and  C_11 
REMARK    5  A    between atoms: C_11  and  C_12 
REMARK    6  A    between atoms: C_13  and  C_14 
ROOT
HETATM    1  N   UNL     1      41.840 -17.072   1.434  1.00  0.00    -0.339 N 
HETATM    2  C   UNL     1      41.153 -16.070   0.835  1.00  0.00     0.316 C 
HETATM    3  N   UNL     1      41.685 -15.578  -0.313  1.00  0.00    -0.339 N 
HETATM    4  O   UNL     1      40.132 -15.642   1.363  1.00  0.00    -0.247 OA
HETATM    5  H   UNL     1      41.401 -17.386   2.289  1.00  0.00     0.164 HD
HETATM    6  H   UNL     1      42.278 -16.193  -0.849  1.00  0.00     0.164 HD
ENDROOT
BRANCH   3   7
HETATM    7  C   UNL     1      41.101 -14.448  -1.011  1.00  0.00     0.163 C 
BRANCH   7   8
HETATM    8  C   UNL     1      40.047 -14.838  -2.032  1.00  0.00    -0.029 A 
HETATM    9  C   UNL     1      38.759 -14.260  -1.996  1.00  0.00    -0.018 A 
HETATM   10  C   UNL     1      37.807 -14.590  -2.975  1.00  0.00     0.013 A 
HETATM   11  C   UNL     1      38.116 -15.491  -3.991  1.00  0.00     0.001 A 
HETATM   12  C   UNL     1      39.382 -16.062  -4.043  1.00  0.00     0.001 A 
HETATM   13  C   UNL     1      40.337 -15.735  -3.078  1.00  0.00     0.010 A 
BRANCH   9  14
HETATM   14  C   UNL     1      38.374 -13.284  -0.987  1.00  0.00    -0.018 A 
HETATM   15  C   UNL     1      38.697 -11.948  -1.112  1.00  0.00     0.061 A 
HETATM   16  S   UNL     1      38.159 -11.023   0.224  1.00  0.00    -0.113 SA
HETATM   17  C   UNL     1      37.518 -12.409   0.996  1.00  0.00     0.050 A 
HETATM   18  C   UNL     1      37.702 -13.550   0.247  1.00  0.00     0.020 A 
ENDBRANCH   9  14
ENDBRANCH   7   8
ENDBRANCH   3   7
BRANCH   1  19
HETATM   19  C   UNL     1      43.159 -17.584   1.129  1.00  0.00     0.162 C 
BRANCH  19  20
HETATM   20  C   UNL     1      43.705 -18.519   2.181  1.00  0.00    -0.040 A 
HETATM   21  C   UNL     1      43.872 -18.061   3.496  1.00  0.00     0.011 A 
HETATM   22  C   UNL     1      44.300 -18.925   4.512  1.00  0.00     0.037 A 
HETATM   23  C   UNL     1      44.557 -20.266   4.230  1.00  0.00     0.068 A 
HETATM   24  C   UNL     1      44.396 -20.728   2.924  1.00  0.00     0.037 A 
HETATM   25  C   UNL     1      43.966 -19.868   1.909  1.00  0.00     0.011 A 
BRANCH  23  26
HETATM   26  O   UNL     1      44.965 -21.215   5.126  1.00  0.00    -0.356 OA
HETATM   27  C   UNL     1      44.802 -22.574   4.742  1.00  0.00     0.210 C 
ENDBRANCH  23  26
ENDBRANCH  19  20
ENDBRANCH   1  19
TORSDOF 6
ENDMDL
MODEL 4
REMARK VINA RESULT:      -7.6      3.558      8.399
REMARK  6 active torsions:
REMARK  status: ('A' for Active; 'I' for Inactive)
REMARK    1  A    between atoms: O_2  and  C_3 
REMARK    2  A    between atoms: C_6  and  C_7 
REMARK    3  A    between atoms: C_7  and  N_8 
REMARK       I    between atoms: N_8  and  C_9 
REMARK       I    between atoms: C_9  and  N_10 
REMARK    4  A    between atoms: N_10  and  C_11 
REMARK    5  A    between atoms: C_11  and  C_12 
REMARK    6  A    between atoms: C_13  and  C_14 
ROOT
HETATM    1  N   UNL     1      41.463 -12.811   1.872  1.00  0.00    -0.339 N 
HETATM    2  C   UNL     1      41.756 -13.733   2.820  1.00  0.00     0.316 C 
HETATM    3  N   UNL     1      42.998 -14.278   2.764  1.00  0.00    -0.339 N 
HETATM    4  O   UNL     1      40.898 -14.049   3.638  1.00  0.00    -0.247 OA
HETATM    5  H   UNL     1      40.522 -12.452   1.959  1.00  0.00     0.164 HD
HETATM    6  H   UNL     1      43.725 -13.731   2.331  1.00  0.00     0.164 HD
ENDROOT
BRANCH   3   7
HETATM    7  C   UNL     1      43.415 -15.339   3.663  1.00  0.00     0.163 C 
BRANCH   7   8
HETATM    8  C   UNL     1      43.536 -16.696   2.994  1.00  0.00    -0.029 A 
HETATM    9  C   UNL     1      43.676 -17.871   3.766  1.00  0.00    -0.018 A 
HETATM   10  C   UNL     1      43.738 -19.127   3.139  1.00  0.00     0.013 A 
HETATM   11  C   UNL     1      43.664 -19.233   1.752  1.00  0.00     0.001 A 
HETATM   12  C   UNL     1      43.517 -18.086   0.981  1.00  0.00     0.001 A 
HETATM   13  C   UNL     1      43.450 -16.833   1.595  1.00  0.00     0.010 A 
BRANCH   9  14
HETATM   14  C   UNL     1      43.726 -17.843   5.221  1.00  0.00    -0.018 A 
HETATM   15  C   UNL     1      42.610 -17.543   5.976  1.00  0.00     0.061 A 
HETATM   16  S   UNL     1      42.945 -17.544   7.654  1.00  0.00    -0.113 SA
HETATM   17  C   UNL     1      44.592 -17.914   7.382  1.00  0.00     0.050 A 
HETATM   18  C   UNL     1      44.879 -18.043   6.041  1.00  0.00     0.020 A 
ENDBRANCH   9  14
ENDBRANCH   7   8
ENDBRANCH   3   7
BRANCH   1  19
HETATM   19  C   UNL     1      42.215 -12.443   0.692  1.00  0.00     0.162 C 
BRANCH  19  20
HETATM   20  C   UNL     1      41.835 -13.228  -0.539  1.00  0.00    -0.040 A 
HETATM   21  C   UNL     1      41.191 -14.467  -0.400  1.00  0.00     0.011 A 
HETATM   22  C   UNL     1      40.754 -15.183  -1.522  1.00  0.00     0.037 A 
HETATM   23  C   UNL     1      40.944 -14.664  -2.803  1.00  0.00     0.068 A 
HETATM   24  C   UNL     1      41.586 -13.434  -2.949  1.00  0.00     0.037 A 
HETATM   25  C   UNL     1      42.021 -12.717  -1.830  1.00  0.00     0.011 A 
BRANCH  23  26
HETATM   26  O   UNL     1      40.555 -15.249  -3.976  1.00  0.00    -0.356 OA
HETATM   27  C   UNL     1      39.377 -16.044  -3.938  1.00  0.00     0.210 C 
ENDBRANCH  23  26
ENDBRANCH  19  20
ENDBRANCH   1  19
TORSDOF 6
ENDMDL
MODEL 5
REMARK VINA RESULT:      -7.5      2.271      3.649
REMARK  6 active torsions:
REMARK  status: ('A' for Active; 'I' for Inactive)
REMARK    1  A    between atoms: O_2  and  C_3 
REMARK    2  A    between atoms: C_6  and  C_7 
REMARK    3  A    between atoms: C_7  and  N_8 
REMARK       I    between atoms: N_8  and  C_9 
REMARK       I    between atoms: C_9  and  N_10 
REMARK    4  A    between atoms: N_10  and  C_11 
REMARK    5  A    between atoms: C_11  and  C_12 
REMARK    6  A    between atoms: C_13  and  C_14 
ROOT
HETATM    1  N   UNL     1      40.982 -17.032   2.071  1.00  0.00    -0.339 N 
HETATM    2  C   UNL     1      40.308 -15.932   1.659  1.00  0.00     0.316 C 
HETATM    3  N   UNL     1      40.493 -15.563   0.365  1.00  0.00    -0.339 N 
HETATM    4  O   UNL     1      39.612 -15.317   2.460  1.00  0.00    -0.247 OA
HETATM    5  H   UNL     1      40.814 -17.247   3.044  1.00  0.00     0.164 HD
HETATM    6  H   UNL     1      40.759 -16.284  -0.288  1.00  0.00     0.164 HD
ENDROOT
BRANCH   3   7
HETATM    7  C   UNL     1      39.901 -14.358  -0.185  1.00  0.00     0.163 C 
BRANCH   7   8
HETATM    8  C   UNL     1      40.900 -13.445  -0.874  1.00  0.00    -0.029 A 
HETATM    9  C   UNL     1      41.653 -12.508  -0.131  1.00  0.00    -0.018 A 
HETATM   10  C   UNL     1      42.611 -11.703  -0.769  1.00  0.00     0.013 A 
HETATM   11  C   UNL     1      42.831 -11.813  -2.140  1.00  0.00     0.001 A 
HETATM   12  C   UNL     1      42.104 -12.736  -2.882  1.00  0.00     0.001 A 
HETATM   13  C   UNL     1      41.153 -13.545  -2.255  1.00  0.00     0.010 A 
BRANCH   9  14
HETATM   14  C   UNL     1      41.504 -12.360   1.310  1.00  0.00    -0.018 A 
HETATM   15  C   UNL     1      42.358 -12.989   2.194  1.00  0.00     0.061 A 
HETATM   16  S   UNL     1      41.944 -12.679   3.826  1.00  0.00    -0.113 SA
HETATM   17  C   UNL     1      40.600 -11.728   3.362  1.00  0.00     0.050 A 
HETATM   18  C   UNL     1      40.475 -11.641   1.993  1.00  0.00     0.020 A 
ENDBRANCH   9  14
ENDBRANCH   7   8
ENDBRANCH   3   7
BRANCH   1  19
HETATM   19  C   UNL     1      42.016 -17.779   1.388  1.00  0.00     0.162 C 
BRANCH  19  20
HETATM   20  C   UNL     1      42.909 -18.567   2.314  1.00  0.00    -0.040 A 
HETATM   21  C   UNL     1      43.030 -18.178   3.657  1.00  0.00     0.011 A 
HETATM   22  C   UNL     1      43.787 -18.933   4.562  1.00  0.00     0.037 A 
HETATM   23  C   UNL     1      44.428 -20.098   4.139  1.00  0.00     0.068 A 
HETATM   24  C   UNL     1      44.314 -20.489   2.805  1.00  0.00     0.037 A 
HETATM   25  C   UNL     1      43.557 -19.738   1.901  1.00  0.00     0.011 A 
BRANCH  23  26
HETATM   26  O   UNL     1      45.182 -20.931   4.918  1.00  0.00    -0.356 OA
HETATM   27  C   UNL     1      44.859 -22.315   4.878  1.00  0.00     0.210 C 
ENDBRANCH  23  26
ENDBRANCH  19  20
ENDBRANCH   1  19
TORSDOF 6
ENDMDL
MODEL 6
REMARK VINA RESULT:      -7.5      6.110      8.608
REMARK  6 active torsions:
REMARK  status: ('A' for Active; 'I' for Inactive)
REMARK    1  A    between atoms: O_2  and  C_3 
REMARK    2  A    between atoms: C_6  and  C_7 
REMARK    3  A    between atoms: C_7  and  N_8 
REMARK       I    between atoms: N_8  and  C_9 
REMARK       I    between atoms: C_9  and  N_10 
REMARK    4  A    between atoms: N_10  and  C_11 
REMARK    5  A    between atoms: C_11  and  C_12 
REMARK    6  A    between atoms: C_13  and  C_14 
ROOT
HETATM    1  N   UNL     1      44.216 -15.108   7.671  1.00  0.00    -0.339 N 
HETATM    2  C   UNL     1      43.469 -16.128   7.185  1.00  0.00     0.316 C 
HETATM    3  N   UNL     1      42.984 -15.971   5.927  1.00  0.00    -0.339 N 
HETATM    4  O   UNL     1      43.243 -17.101   7.898  1.00  0.00    -0.247 OA
HETATM    5  H   UNL     1      44.537 -15.278   8.615  1.00  0.00     0.164 HD
HETATM    6  H   UNL     1      43.492 -15.360   5.307  1.00  0.00     0.164 HD
ENDROOT
BRANCH   3   7
HETATM    7  C   UNL     1      42.099 -16.945   5.315  1.00  0.00     0.163 C 
BRANCH   7   8
HETATM    8  C   UNL     1      42.800 -17.891   4.356  1.00  0.00    -0.029 A 
HETATM    9  C   UNL     1      42.664 -17.733   2.959  1.00  0.00    -0.018 A 
HETATM   10  C   UNL     1      43.357 -18.582   2.080  1.00  0.00     0.013 A 
HETATM   11  C   UNL     1      44.182 -19.592   2.570  1.00  0.00     0.001 A 
HETATM   12  C   UNL     1      44.331 -19.753   3.942  1.00  0.00     0.001 A 
HETATM   13  C   UNL     1      43.651 -18.910   4.824  1.00  0.00     0.010 A 
BRANCH   9  14
HETATM   14  C   UNL     1      41.848 -16.680   2.372  1.00  0.00    -0.018 A 
HETATM   15  C   UNL     1      42.393 -15.471   1.990  1.00  0.00     0.061 A 
HETATM   16  S   UNL     1      41.215 -14.399   1.363  1.00  0.00    -0.113 SA
HETATM   17  C   UNL     1      39.962 -15.532   1.629  1.00  0.00     0.050 A 
HETATM   18  C   UNL     1      40.432 -16.706   2.175  1.00  0.00     0.020 A 
ENDBRANCH   9  14
ENDBRANCH   7   8
ENDBRANCH   3   7
BRANCH   1  19
HETATM   19  C   UNL     1      44.431 -13.789   7.117  1.00  0.00     0.162 C 
BRANCH  19  20
HETATM   20  C   UNL     1      44.387 -12.684   8.144  1.00  0.00    -0.040 A 
HETATM   21  C   UNL     1      43.264 -11.846   8.212  1.00  0.00     0.011 A 
HETATM   22  C   UNL     1      43.156 -10.863   9.204  1.00  0.00     0.037 A 
HETATM   23  C   UNL     1      44.166 -10.711  10.154  1.00  0.00     0.068 A 
HETATM   24  C   UNL     1      45.287 -11.540  10.091  1.00  0.00     0.037 A 
HETATM   25  C   UNL     1      45.395 -12.523   9.103  1.00  0.00     0.011 A 
BRANCH  23  26
HETATM   26  O   UNL     1      44.180  -9.807  11.179  1.00  0.00    -0.356 OA
HETATM   27  C   UNL     1      43.473 -10.163  12.360  1.00  0.00     0.210 C 
ENDBRANCH  23  26
ENDBRANCH  19  20
ENDBRANCH   1  19
TORSDOF 6
ENDMDL
MODEL 7
REMARK VINA RESULT:      -7.4      2.520      3.764
REMARK  6 active torsions:
REMARK  status: ('A' for Active; 'I' for Inactive)
REMARK    1  A    between atoms: O_2  and  C_3 
REMARK    2  A    between atoms: C_6  and  C_7 
REMARK    3  A    between atoms: C_7  and  N_8 
REMARK       I    between atoms: N_8  and  C_9 
REMARK       I    between atoms: C_9  and  N_10 
REMARK    4  A    between atoms: N_10  and  C_11 
REMARK    5  A    between atoms: C_11  and  C_12 
REMARK    6  A    between atoms: C_13  and  C_14 
ROOT
HETATM    1  N   UNL     1      43.312 -15.406   4.578  1.00  0.00    -0.339 N 
HETATM    2  C   UNL     1      43.185 -14.500   3.579  1.00  0.00     0.316 C 
HETATM    3  N   UNL     1      42.115 -14.658   2.758  1.00  0.00    -0.339 N 
HETATM    4  O   UNL     1      44.037 -13.628   3.445  1.00  0.00    -0.247 OA
HETATM    5  H   UNL     1      44.133 -15.243   5.146  1.00  0.00     0.164 HD
HETATM    6  H   UNL     1      41.309 -15.133   3.134  1.00  0.00     0.164 HD
ENDROOT
BRANCH   3   7
HETATM    7  C   UNL     1      41.903 -13.813   1.597  1.00  0.00     0.163 C 
BRANCH   7   8
HETATM    8  C   UNL     1      40.476 -13.830   1.080  1.00  0.00    -0.029 A 
HETATM    9  C   UNL     1      40.169 -13.341  -0.209  1.00  0.00    -0.018 A 
HETATM   10  C   UNL     1      38.853 -13.406  -0.697  1.00  0.00     0.013 A 
HETATM   11  C   UNL     1      37.833 -13.951   0.080  1.00  0.00     0.001 A 
HETATM   12  C   UNL     1      38.122 -14.444   1.346  1.00  0.00     0.001 A 
HETATM   13  C   UNL     1      39.429 -14.389   1.839  1.00  0.00     0.010 A 
BRANCH   9  14
HETATM   14  C   UNL     1      41.187 -12.789  -1.092  1.00  0.00    -0.018 A 
HETATM   15  C   UNL     1      41.507 -11.446  -1.076  1.00  0.00     0.061 A 
HETATM   16  S   UNL     1      42.706 -11.054  -2.232  1.00  0.00    -0.113 SA
HETATM   17  C   UNL     1      42.783 -12.670  -2.785  1.00  0.00     0.050 A 
HETATM   18  C   UNL     1      41.920 -13.494  -2.097  1.00  0.00     0.020 A 
ENDBRANCH   9  14
ENDBRANCH   7   8
ENDBRANCH   3   7
BRANCH   1  19
HETATM   19  C   UNL     1      42.575 -16.630   4.801  1.00  0.00     0.162 C 
BRANCH  19  20
HETATM   20  C   UNL     1      43.237 -17.853   4.214  1.00  0.00    -0.040 A 
HETATM   21  C   UNL     1      44.143 -18.590   4.991  1.00  0.00     0.011 A 
HETATM   22  C   UNL     1      44.713 -19.774   4.505  1.00  0.00     0.037 A 
HETATM   23  C   UNL     1      44.377 -20.246   3.237  1.00  0.00     0.068 A 
HETATM   24  C   UNL     1      43.478 -19.516   2.458  1.00  0.00     0.037 A 
HETATM   25  C   UNL     1      42.906 -18.336   2.942  1.00  0.00     0.011 A 
BRANCH  23  26
HETATM   26  O   UNL     1      44.846 -21.388   2.651  1.00  0.00    -0.356 OA
HETATM   27  C   UNL     1      44.071 -21.932   1.590  1.00  0.00     0.210 C 
ENDBRANCH  23  26
ENDBRANCH  19  20
ENDBRANCH   1  19
TORSDOF 6
ENDMDL
MODEL 8
REMARK VINA RESULT:      -7.4      2.620      3.821
REMARK  6 active torsions:
REMARK  status: ('A' for Active; 'I' for Inactive)
REMARK    1  A    between atoms: O_2  and  C_3 
REMARK    2  A    between atoms: C_6  and  C_7 
REMARK    3  A    between atoms: C_7  and  N_8 
REMARK       I    between atoms: N_8  and  C_9 
REMARK       I    between atoms: C_9  and  N_10 
REMARK    4  A    between atoms: N_10  and  C_11 
REMARK    5  A    between atoms: C_11  and  C_12 
REMARK    6  A    between atoms: C_13  and  C_14 
ROOT
HETATM    1  N   UNL     1      43.229 -15.351   4.446  1.00  0.00    -0.339 N 
HETATM    2  C   UNL     1      43.254 -14.365   3.517  1.00  0.00     0.316 C 
HETATM    3  N   UNL     1      42.192 -14.308   2.673  1.00  0.00    -0.339 N 
HETATM    4  O   UNL     1      44.224 -13.617   3.460  1.00  0.00    -0.247 OA
HETATM    5  H   UNL     1      44.052 -15.349   5.034  1.00  0.00     0.164 HD
HETATM    6  H   UNL     1      41.318 -14.688   3.002  1.00  0.00     0.164 HD
ENDROOT
BRANCH   3   7
HETATM    7  C   UNL     1      42.129 -13.359   1.577  1.00  0.00     0.163 C 
BRANCH   7   8
HETATM    8  C   UNL     1      41.712 -13.978   0.255  1.00  0.00    -0.029 A 
HETATM    9  C   UNL     1      41.654 -13.197  -0.921  1.00  0.00    -0.018 A 
HETATM   10  C   UNL     1      41.315 -13.790  -2.149  1.00  0.00     0.013 A 
HETATM   11  C   UNL     1      41.031 -15.151  -2.226  1.00  0.00     0.001 A 
HETATM   12  C   UNL     1      41.093 -15.933  -1.079  1.00  0.00     0.001 A 
HETATM   13  C   UNL     1      41.434 -15.354   0.146  1.00  0.00     0.010 A 
BRANCH   9  14
HETATM   14  C   UNL     1      41.971 -11.776  -0.926  1.00  0.00    -0.018 A 
HETATM   15  C   UNL     1      41.023 -10.822  -0.612  1.00  0.00     0.061 A 
HETATM   16  S   UNL     1      41.644  -9.231  -0.726  1.00  0.00    -0.113 SA
HETATM   17  C   UNL     1      43.176  -9.804  -1.227  1.00  0.00     0.050 A 
HETATM   18  C   UNL     1      43.216 -11.179  -1.297  1.00  0.00     0.020 A 
ENDBRANCH   9  14
ENDBRANCH   7   8
ENDBRANCH   3   7
BRANCH   1  19
HETATM   19  C   UNL     1      42.320 -16.470   4.566  1.00  0.00     0.162 C 
BRANCH  19  20
HETATM   20  C   UNL     1      42.843 -17.745   3.951  1.00  0.00    -0.040 A 
HETATM   21  C   UNL     1      42.530 -18.050   2.618  1.00  0.00     0.011 A 
HETATM   22  C   UNL     1      43.064 -19.185   1.993  1.00  0.00     0.037 A 
HETATM   23  C   UNL     1      43.931 -20.026   2.690  1.00  0.00     0.068 A 
HETATM   24  C   UNL     1      44.244 -19.730   4.017  1.00  0.00     0.037 A 
HETATM   25  C   UNL     1      43.714 -18.597   4.641  1.00  0.00     0.011 A 
BRANCH  23  26
HETATM   26  O   UNL     1      44.531 -21.152   2.197  1.00  0.00    -0.356 OA
HETATM   27  C   UNL     1      44.500 -22.310   3.021  1.00  0.00     0.210 C 
ENDBRANCH  23  26
ENDBRANCH  19  20
ENDBRANCH   1  19
TORSDOF 6
ENDMDL
MODEL 9
REMARK VINA RESULT:      -7.2      3.012      4.916
REMARK  6 active torsions:
REMARK  status: ('A' for Active; 'I' for Inactive)
REMARK    1  A    between atoms: O_2  and  C_3 
REMARK    2  A    between atoms: C_6  and  C_7 
REMARK    3  A    between atoms: C_7  and  N_8 
REMARK       I    between atoms: N_8  and  C_9 
REMARK       I    between atoms: C_9  and  N_10 
REMARK    4  A    between atoms: N_10  and  C_11 
REMARK    5  A    between atoms: C_11  and  C_12 
REMARK    6  A    between atoms: C_13  and  C_14 
ROOT
HETATM    1  N   UNL     1      39.857 -13.429   4.571  1.00  0.00    -0.339 N 
HETATM    2  C   UNL     1      39.844 -14.026   3.356  1.00  0.00     0.316 C 
HETATM    3  N   UNL     1      39.856 -15.383   3.353  1.00  0.00    -0.339 N 
HETATM    4  O   UNL     1      39.859 -13.332   2.344  1.00  0.00    -0.247 OA
HETATM    5  H   UNL     1      39.861 -12.419   4.507  1.00  0.00     0.164 HD
HETATM    6  H   UNL     1      39.483 -15.851   4.165  1.00  0.00     0.164 HD
ENDROOT
BRANCH   3   7
HETATM    7  C   UNL     1      39.930 -16.151   2.124  1.00  0.00     0.163 C 
BRANCH   7   8
HETATM    8  C   UNL     1      41.254 -16.869   1.930  1.00  0.00    -0.029 A 
HETATM    9  C   UNL     1      42.058 -16.606   0.798  1.00  0.00    -0.018 A 
HETATM   10  C   UNL     1      43.304 -17.238   0.652  1.00  0.00     0.013 A 
HETATM   11  C   UNL     1      43.764 -18.132   1.617  1.00  0.00     0.001 A 
HETATM   12  C   UNL     1      42.988 -18.393   2.739  1.00  0.00     0.001 A 
HETATM   13  C   UNL     1      41.749 -17.766   2.895  1.00  0.00     0.010 A 
BRANCH   9  14
HETATM   14  C   UNL     1      41.660 -15.659  -0.234  1.00  0.00    -0.018 A 
HETATM   15  C   UNL     1      41.889 -14.304  -0.098  1.00  0.00     0.061 A 
HETATM   16  S   UNL     1      41.296 -13.411  -1.432  1.00  0.00    -0.113 SA
HETATM   17  C   UNL     1      40.699 -14.826  -2.186  1.00  0.00     0.050 A 
HETATM   18  C   UNL     1      40.955 -15.956  -1.441  1.00  0.00     0.020 A 
ENDBRANCH   9  14
ENDBRANCH   7   8
ENDBRANCH   3   7
BRANCH   1  19
HETATM   19  C   UNL     1      40.062 -14.018   5.877  1.00  0.00     0.162 C 
BRANCH  19  20
HETATM   20  C   UNL     1      41.331 -14.827   5.986  1.00  0.00    -0.040 A 
HETATM   21  C   UNL     1      42.572 -14.195   5.819  1.00  0.00     0.011 A 
HETATM   22  C   UNL     1      43.770 -14.900   5.993  1.00  0.00     0.037 A 
HETATM   23  C   UNL     1      43.746 -16.248   6.350  1.00  0.00     0.068 A 
HETATM   24  C   UNL     1      42.515 -16.883   6.515  1.00  0.00     0.037 A 
HETATM   25  C   UNL     1      41.318 -16.181   6.344  1.00  0.00     0.011 A 
BRANCH  23  26
HETATM   26  O   UNL     1      44.835 -17.045   6.564  1.00  0.00    -0.356 OA
HETATM   27  C   UNL     1      44.720 -18.409   6.179  1.00  0.00     0.210 C 
ENDBRANCH  23  26
ENDBRANCH  19  20
ENDBRANCH   1  19
TORSDOF 6
ENDMDL
MODEL 10
REMARK VINA RESULT:      -7.2      3.879      5.606
REMARK  6 active torsions:
REMARK  status: ('A' for Active; 'I' for Inactive)
REMARK    1  A    between atoms: O_2  and  C_3 
REMARK    2  A    between atoms: C_6  and  C_7 
REMARK    3  A    between atoms: C_7  and  N_8 
REMARK       I    between atoms: N_8  and  C_9 
REMARK       I    between atoms: C_9  and  N_10 
REMARK    4  A    between atoms: N_10  and  C_11 
REMARK    5  A    between atoms: C_11  and  C_12 
REMARK    6  A    between atoms: C_13  and  C_14 
ROOT
HETATM    1  N   UNL     1      43.774 -16.687   7.064  1.00  0.00    -0.339 N 
HETATM    2  C   UNL     1      43.885 -15.430   6.571  1.00  0.00     0.316 C 
HETATM    3  N   UNL     1      42.958 -15.062   5.650  1.00  0.00    -0.339 N 
HETATM    4  O   UNL     1      44.812 -14.718   6.943  1.00  0.00    -0.247 OA
HETATM    5  H   UNL     1      44.499 -16.905   7.734  1.00  0.00     0.164 HD
HETATM    6  H   UNL     1      42.067 -15.532   5.676  1.00  0.00     0.164 HD
ENDROOT
BRANCH   3   7
HETATM    7  C   UNL     1      43.009 -13.777   4.977  1.00  0.00     0.163 C 
BRANCH   7   8
HETATM    8  C   UNL     1      41.694 -13.019   5.006  1.00  0.00    -0.029 A 
HETATM    9  C   UNL     1      40.725 -13.216   3.996  1.00  0.00    -0.018 A 
HETATM   10  C   UNL     1      39.491 -12.548   4.059  1.00  0.00     0.013 A 
HETATM   11  C   UNL     1      39.205 -11.682   5.111  1.00  0.00     0.001 A 
HETATM   12  C   UNL     1      40.145 -11.485   6.116  1.00  0.00     0.001 A 
HETATM   13  C   UNL     1      41.373 -12.149   6.065  1.00  0.00     0.010 A 
BRANCH   9  14
HETATM   14  C   UNL     1      40.938 -14.132   2.884  1.00  0.00    -0.018 A 
HETATM   15  C   UNL     1      40.510 -15.443   2.935  1.00  0.00     0.061 A 
HETATM   16  S   UNL     1      40.914 -16.311   1.516  1.00  0.00    -0.113 SA
HETATM   17  C   UNL     1      41.693 -14.949   0.837  1.00  0.00     0.050 A 
HETATM   18  C   UNL     1      41.638 -13.852   1.669  1.00  0.00     0.020 A 
ENDBRANCH   9  14
ENDBRANCH   7   8
ENDBRANCH   3   7
BRANCH   1  19
HETATM   19  C   UNL     1      42.918 -17.768   6.625  1.00  0.00     0.162 C 
BRANCH  19  20
HETATM   20  C   UNL     1      43.507 -18.593   5.507  1.00  0.00    -0.040 A 
HETATM   21  C   UNL     1      44.319 -19.695   5.813  1.00  0.00     0.011 A 
HETATM   22  C   UNL     1      44.815 -20.529   4.801  1.00  0.00     0.037 A 
HETATM   23  C   UNL     1      44.495 -20.279   3.467  1.00  0.00     0.068 A 
HETATM   24  C   UNL     1      43.690 -19.183   3.156  1.00  0.00     0.037 A 
HETATM   25  C   UNL     1      43.192 -18.352   4.164  1.00  0.00     0.011 A 
BRANCH  23  26
HETATM   26  O   UNL     1      44.898 -21.018   2.390  1.00  0.00    -0.356 OA
HETATM   27  C   UNL     1      43.903 -21.792   1.733  1.00  0.00     0.210 C 
ENDBRANCH  23  26
ENDBRANCH  19  20
ENDBRANCH   1  19
TORSDOF 6
ENDMDL
