MODEL 1
REMARK VINA RESULT:      -9.4      0.000      0.000
REMARK  10 active torsions:
REMARK  status: ('A' for Active; 'I' for Inactive)
REMARK    1  A    between atoms: N_2  and  C_4 
REMARK    2  A    between atoms: C_4  and  C_5 
REMARK    3  A    between atoms: N_6  and  C_7 
REMARK    4  A    between atoms: C_11  and  N_12 
REMARK    5  A    between atoms: C_15  and  C_16 
REMARK       I    between atoms: C_16  and  N_17 
REMARK    6  A    between atoms: N_17  and  N_18 
REMARK    7  A    between atoms: C_19  and  C_20 
REMARK    8  A    between atoms: C_22  and  O_23 
REMARK    9  A    between atoms: O_23  and  C_24 
REMARK   10  A    between atoms: C_24  and  C_25 
ROOT
HETATM    1  C   UNL     1      41.016 -11.494   6.709  1.00  0.00     0.293 C 
HETATM    2  N   UNL     1      41.008 -12.856   6.480  1.00  0.00    -0.242 N 
HETATM    3  O   UNL     1      41.371 -10.629   5.906  1.00  0.00    -0.264 OA
HETATM    4  H   UNL     1      40.711 -13.505   7.205  1.00  0.00     0.192 HD
ENDROOT
BRANCH   1   5
HETATM    5  C   UNL     1      40.573 -11.093   8.037  1.00  0.00     0.170 A 
HETATM    6  C   UNL     1      41.395 -10.832   9.127  1.00  0.00     0.096 A 
HETATM    7  N   UNL     1      40.510 -10.594  10.177  1.00  0.00    -0.215 N 
HETATM    8  N   UNL     1      39.242 -10.597   9.677  1.00  0.00     0.012 NA
HETATM    9  N   UNL     1      39.272 -10.924   8.395  1.00  0.00    -0.152 NA
BRANCH   6  10
HETATM   10  C   UNL     1      42.876 -10.731   9.176  1.00  0.00     0.295 C 
BRANCH  10  11
HETATM   11  N   UNL     1      43.566 -11.993   9.631  1.00  0.00    -0.073 N 
HETATM   12  C   UNL     1      44.019 -11.958  11.058  1.00  0.00     0.269 C 
HETATM   13  H   UNL     1      42.858 -12.752   9.530  1.00  0.00     0.279 HD
HETATM   14  C   UNL     1      44.678 -12.391   8.705  1.00  0.00     0.269 C 
ENDBRANCH  10  11
ENDBRANCH   6  10
BRANCH   7  15
HETATM   15  C   UNL     1      40.771 -10.424  11.558  1.00  0.00     0.225 A 
HETATM   16  N   UNL     1      41.464  -9.366  11.986  1.00  0.00    -0.081 NA
HETATM   17  O   UNL     1      41.542  -9.554  13.368  1.00  0.00    -0.103 OA
HETATM   18  N   UNL     1      40.915 -10.730  13.749  1.00  0.00    -0.083 NA
HETATM   19  C   UNL     1      40.440 -11.271  12.629  1.00  0.00     0.201 A 
BRANCH  19  20
HETATM   20  N   UNL     1      39.763 -12.429  12.573  1.00  0.00    -0.379 N 
HETATM   21  H   UNL     1      39.747 -13.049  13.378  1.00  0.00     0.158 HD
HETATM   22  H   UNL     1      39.427 -12.846  11.707  1.00  0.00     0.158 HD
ENDBRANCH  19  20
ENDBRANCH   7  15
ENDBRANCH   1   5
BRANCH   2  23
HETATM   23  N   UNL     1      41.352 -13.316   5.246  1.00  0.00    -0.184 NA
HETATM   24  C   UNL     1      41.436 -14.601   5.108  1.00  0.00     0.150 C 
BRANCH  24  25
HETATM   25  C   UNL     1      41.775 -15.205   3.801  1.00  0.00    -0.014 A 
HETATM   26  C   UNL     1      42.063 -16.570   3.728  1.00  0.00     0.049 A 
HETATM   27  C   UNL     1      42.354 -17.158   2.494  1.00  0.00     0.070 A 
HETATM   28  C   UNL     1      42.381 -16.367   1.341  1.00  0.00     0.037 A 
HETATM   29  C   UNL     1      42.099 -15.003   1.418  1.00  0.00     0.004 A 
HETATM   30  C   UNL     1      41.793 -14.419   2.645  1.00  0.00     0.013 A 
BRANCH  27  31
HETATM   31  O   UNL     1      42.622 -18.500   2.537  1.00  0.00    -0.346 OA
BRANCH  31  32
HETATM   32  C   UNL     1      43.991 -18.871   2.347  1.00  0.00     0.219 C 
BRANCH  32  33
HETATM   33  C   UNL     1      44.298 -20.106   3.152  1.00  0.00     0.026 A 
HETATM   34  C   UNL     1      44.564 -20.075   4.528  1.00  0.00     0.045 A 
HETATM   35 CL   UNL     1      44.565 -18.597   5.425  1.00  0.00    -0.084 Cl
HETATM   36  C   UNL     1      44.820 -21.258   5.235  1.00  0.00     0.024 A 
HETATM   37  C   UNL     1      44.805 -22.489   4.579  1.00  0.00     0.005 A 
HETATM   38  C   UNL     1      44.535 -22.536   3.215  1.00  0.00     0.043 A 
HETATM   39  C   UNL     1      44.287 -21.354   2.520  1.00  0.00     0.126 A 
HETATM   40  F   UNL     1      44.015 -21.437   1.209  1.00  0.00    -0.205 F 
ENDBRANCH  32  33
ENDBRANCH  31  32
ENDBRANCH  27  31
ENDBRANCH  24  25
ENDBRANCH   2  23
TORSDOF 10
ENDMDL
MODEL 2
REMARK VINA RESULT:      -8.9      6.363      9.917
REMARK  10 active torsions:
REMARK  status: ('A' for Active; 'I' for Inactive)
REMARK    1  A    between atoms: N_2  and  C_4 
REMARK    2  A    between atoms: C_4  and  C_5 
REMARK    3  A    between atoms: N_6  and  C_7 
REMARK    4  A    between atoms: C_11  and  N_12 
REMARK    5  A    between atoms: C_15  and  C_16 
REMARK       I    between atoms: C_16  and  N_17 
REMARK    6  A    between atoms: N_17  and  N_18 
REMARK    7  A    between atoms: C_19  and  C_20 
REMARK    8  A    between atoms: C_22  and  O_23 
REMARK    9  A    between atoms: O_23  and  C_24 
REMARK   10  A    between atoms: C_24  and  C_25 
ROOT
HETATM    1  C   UNL     1      40.996 -14.926  -0.330  1.00  0.00     0.293 C 
HETATM    2  N   UNL     1      40.583 -16.027   0.394  1.00  0.00    -0.242 N 
HETATM    3  O   UNL     1      41.850 -14.111   0.021  1.00  0.00    -0.264 OA
HETATM    4  H   UNL     1      39.859 -16.645   0.037  1.00  0.00     0.192 HD
ENDROOT
BRANCH   1   5
HETATM    5  C   UNL     1      40.320 -14.745  -1.607  1.00  0.00     0.170 A 
HETATM    6  C   UNL     1      39.040 -14.234  -1.788  1.00  0.00     0.096 A 
HETATM    7  N   UNL     1      38.811 -14.356  -3.158  1.00  0.00    -0.215 N 
HETATM    8  N   UNL     1      39.957 -14.801  -3.745  1.00  0.00     0.012 NA
HETATM    9  N   UNL     1      40.860 -15.063  -2.814  1.00  0.00    -0.152 NA
BRANCH   6  10
HETATM   10  C   UNL     1      38.135 -13.610  -0.790  1.00  0.00     0.295 C 
BRANCH  10  11
HETATM   11  N   UNL     1      38.822 -12.658   0.157  1.00  0.00    -0.073 N 
HETATM   12  C   UNL     1      38.148 -12.532   1.488  1.00  0.00     0.269 C 
HETATM   13  H   UNL     1      39.775 -13.050   0.307  1.00  0.00     0.279 HD
HETATM   14  C   UNL     1      39.062 -11.316  -0.472  1.00  0.00     0.269 C 
ENDBRANCH  10  11
ENDBRANCH   6  10
BRANCH   7  15
HETATM   15  C   UNL     1      37.624 -14.139  -3.897  1.00  0.00     0.225 A 
HETATM   16  N   UNL     1      36.990 -15.165  -4.469  1.00  0.00    -0.081 NA
HETATM   17  O   UNL     1      35.905 -14.570  -5.118  1.00  0.00    -0.103 OA
HETATM   18  N   UNL     1      35.913 -13.194  -4.946  1.00  0.00    -0.083 NA
HETATM   19  C   UNL     1      36.978 -12.926  -4.194  1.00  0.00     0.201 A 
BRANCH  19  20
HETATM   20  N   UNL     1      37.340 -11.693  -3.802  1.00  0.00    -0.379 N 
HETATM   21  H   UNL     1      38.026 -11.576  -3.061  1.00  0.00     0.158 HD
HETATM   22  H   UNL     1      36.827 -10.849  -4.046  1.00  0.00     0.158 HD
ENDBRANCH  19  20
ENDBRANCH   7  15
ENDBRANCH   1   5
BRANCH   2  23
HETATM   23  N   UNL     1      41.202 -16.306   1.574  1.00  0.00    -0.184 NA
HETATM   24  C   UNL     1      40.550 -16.015   2.656  1.00  0.00     0.150 C 
BRANCH  24  25
HETATM   25  C   UNL     1      41.121 -16.305   3.988  1.00  0.00    -0.014 A 
HETATM   26  C   UNL     1      41.810 -17.503   4.196  1.00  0.00     0.049 A 
HETATM   27  C   UNL     1      42.380 -17.774   5.444  1.00  0.00     0.070 A 
HETATM   28  C   UNL     1      42.235 -16.853   6.485  1.00  0.00     0.037 A 
HETATM   29  C   UNL     1      41.541 -15.660   6.276  1.00  0.00     0.004 A 
HETATM   30  C   UNL     1      40.986 -15.382   5.030  1.00  0.00     0.013 A 
BRANCH  27  31
HETATM   31  O   UNL     1      43.031 -18.975   5.538  1.00  0.00    -0.346 OA
BRANCH  31  32
HETATM   32  C   UNL     1      44.324 -19.035   4.928  1.00  0.00     0.219 C 
BRANCH  32  33
HETATM   33  C   UNL     1      44.377 -20.190   3.962  1.00  0.00     0.026 A 
HETATM   34  C   UNL     1      44.242 -20.033   2.576  1.00  0.00     0.045 A 
HETATM   35 CL   UNL     1      43.998 -18.482   1.852  1.00  0.00    -0.084 Cl
HETATM   36  C   UNL     1      44.325 -21.139   1.719  1.00  0.00     0.024 A 
HETATM   37  C   UNL     1      44.550 -22.416   2.234  1.00  0.00     0.005 A 
HETATM   38  C   UNL     1      44.693 -22.585   3.608  1.00  0.00     0.043 A 
HETATM   39  C   UNL     1      44.605 -21.480   4.452  1.00  0.00     0.126 A 
HETATM   40  F   UNL     1      44.762 -21.677   5.770  1.00  0.00    -0.205 F 
ENDBRANCH  32  33
ENDBRANCH  31  32
ENDBRANCH  27  31
ENDBRANCH  24  25
ENDBRANCH   2  23
TORSDOF 10
ENDMDL
MODEL 3
REMARK VINA RESULT:      -8.6      1.532      2.708
REMARK  10 active torsions:
REMARK  status: ('A' for Active; 'I' for Inactive)
REMARK    1  A    between atoms: N_2  and  C_4 
REMARK    2  A    between atoms: C_4  and  C_5 
REMARK    3  A    between atoms: N_6  and  C_7 
REMARK    4  A    between atoms: C_11  and  N_12 
REMARK    5  A    between atoms: C_15  and  C_16 
REMARK       I    between atoms: C_16  and  N_17 
REMARK    6  A    between atoms: N_17  and  N_18 
REMARK    7  A    between atoms: C_19  and  C_20 
REMARK    8  A    between atoms: C_22  and  O_23 
REMARK    9  A    between atoms: O_23  and  C_24 
REMARK   10  A    between atoms: C_24  and  C_25 
ROOT
HETATM    1  C   UNL     1      42.557 -11.338   7.900  1.00  0.00     0.293 C 
HETATM    2  N   UNL     1      43.160 -12.486   7.425  1.00  0.00    -0.242 N 
HETATM    3  O   UNL     1      41.706 -10.672   7.308  1.00  0.00    -0.264 OA
HETATM    4  H   UNL     1      43.867 -12.969   7.974  1.00  0.00     0.192 HD
ENDROOT
BRANCH   1   5
HETATM    5  C   UNL     1      43.014 -10.904   9.213  1.00  0.00     0.170 A 
HETATM    6  C   UNL     1      42.213 -10.717  10.334  1.00  0.00     0.096 A 
HETATM    7  N   UNL     1      43.083 -10.206  11.297  1.00  0.00    -0.215 N 
HETATM    8  N   UNL     1      44.345 -10.222  10.784  1.00  0.00     0.012 NA
HETATM    9  N   UNL     1      44.306 -10.615   9.521  1.00  0.00    -0.152 NA
BRANCH   6  10
HETATM   10  C   UNL     1      40.780 -11.055  10.524  1.00  0.00     0.295 C 
BRANCH  10  11
HETATM   11  N   UNL     1      39.854  -9.864  10.489  1.00  0.00    -0.073 N 
HETATM   12  C   UNL     1      39.138  -9.612  11.779  1.00  0.00     0.269 C 
HETATM   13  H   UNL     1      40.462  -9.043  10.284  1.00  0.00     0.279 HD
HETATM   14  C   UNL     1      38.904  -9.926   9.329  1.00  0.00     0.269 C 
ENDBRANCH  10  11
ENDBRANCH   6  10
BRANCH   7  15
HETATM   15  C   UNL     1      42.802  -9.686  12.583  1.00  0.00     0.225 A 
HETATM   16  N   UNL     1      42.783 -10.493  13.646  1.00  0.00    -0.081 NA
HETATM   17  O   UNL     1      42.450  -9.646  14.705  1.00  0.00    -0.103 OA
HETATM   18  N   UNL     1      42.251  -8.347  14.262  1.00  0.00    -0.083 NA
HETATM   19  C   UNL     1      42.465  -8.371  12.948  1.00  0.00     0.201 A 
BRANCH  19  20
HETATM   20  N   UNL     1      42.370  -7.301  12.143  1.00  0.00    -0.379 N 
HETATM   21  H   UNL     1      42.179  -7.424  11.153  1.00  0.00     0.158 HD
HETATM   22  H   UNL     1      42.682  -6.368  12.404  1.00  0.00     0.158 HD
ENDBRANCH  19  20
ENDBRANCH   7  15
ENDBRANCH   1   5
BRANCH   2  23
HETATM   23  N   UNL     1      42.752 -12.995   6.231  1.00  0.00    -0.184 NA
HETATM   24  C   UNL     1      43.407 -14.019   5.781  1.00  0.00     0.150 C 
BRANCH  24  25
HETATM   25  C   UNL     1      43.027 -14.665   4.507  1.00  0.00    -0.014 A 
HETATM   26  C   UNL     1      43.118 -16.054   4.387  1.00  0.00     0.049 A 
HETATM   27  C   UNL     1      42.732 -16.680   3.197  1.00  0.00     0.070 A 
HETATM   28  C   UNL     1      42.281 -15.905   2.125  1.00  0.00     0.037 A 
HETATM   29  C   UNL     1      42.196 -14.517   2.245  1.00  0.00     0.004 A 
HETATM   30  C   UNL     1      42.565 -13.895   3.435  1.00  0.00     0.013 A 
BRANCH  27  31
HETATM   31  O   UNL     1      42.863 -18.043   3.187  1.00  0.00    -0.346 OA
BRANCH  31  32
HETATM   32  C   UNL     1      44.130 -18.546   2.754  1.00  0.00     0.219 C 
BRANCH  32  33
HETATM   33  C   UNL     1      44.359 -19.916   3.337  1.00  0.00     0.026 A 
HETATM   34  C   UNL     1      44.706 -20.127   4.679  1.00  0.00     0.045 A 
HETATM   35 CL   UNL     1      44.907 -18.815   5.787  1.00  0.00    -0.084 Cl
HETATM   36  C   UNL     1      44.883 -21.424   5.177  1.00  0.00     0.024 A 
HETATM   37  C   UNL     1      44.707 -22.530   4.344  1.00  0.00     0.005 A 
HETATM   38  C   UNL     1      44.355 -22.336   3.012  1.00  0.00     0.043 A 
HETATM   39  C   UNL     1      44.186 -21.042   2.525  1.00  0.00     0.126 A 
HETATM   40  F   UNL     1      43.832 -20.891   1.240  1.00  0.00    -0.205 F 
ENDBRANCH  32  33
ENDBRANCH  31  32
ENDBRANCH  27  31
ENDBRANCH  24  25
ENDBRANCH   2  23
TORSDOF 10
ENDMDL
MODEL 4
REMARK VINA RESULT:      -8.5      7.208     11.275
REMARK  10 active torsions:
REMARK  status: ('A' for Active; 'I' for Inactive)
REMARK    1  A    between atoms: N_2  and  C_4 
REMARK    2  A    between atoms: C_4  and  C_5 
REMARK    3  A    between atoms: N_6  and  C_7 
REMARK    4  A    between atoms: C_11  and  N_12 
REMARK    5  A    between atoms: C_15  and  C_16 
REMARK       I    between atoms: C_16  and  N_17 
REMARK    6  A    between atoms: N_17  and  N_18 
REMARK    7  A    between atoms: C_19  and  C_20 
REMARK    8  A    between atoms: C_22  and  O_23 
REMARK    9  A    between atoms: O_23  and  C_24 
REMARK   10  A    between atoms: C_24  and  C_25 
ROOT
HETATM    1  C   UNL     1      38.994 -14.133  -2.119  1.00  0.00     0.293 C 
HETATM    2  N   UNL     1      38.478 -14.324  -0.853  1.00  0.00    -0.242 N 
HETATM    3  O   UNL     1      40.173 -13.897  -2.389  1.00  0.00    -0.264 OA
HETATM    4  H   UNL     1      37.485 -14.501  -0.716  1.00  0.00     0.192 HD
ENDROOT
BRANCH   1   5
HETATM    5  C   UNL     1      38.018 -14.208  -3.197  1.00  0.00     0.170 A 
HETATM    6  C   UNL     1      37.174 -13.182  -3.606  1.00  0.00     0.096 A 
HETATM    7  N   UNL     1      36.369 -13.767  -4.583  1.00  0.00    -0.215 N 
HETATM    8  N   UNL     1      36.821 -15.033  -4.807  1.00  0.00     0.012 NA
HETATM    9  N   UNL     1      37.795 -15.313  -3.957  1.00  0.00    -0.152 NA
BRANCH   6  10
HETATM   10  C   UNL     1      37.164 -11.758  -3.185  1.00  0.00     0.295 C 
BRANCH  10  11
HETATM   11  N   UNL     1      36.027 -11.395  -2.262  1.00  0.00    -0.073 N 
HETATM   12  C   UNL     1      35.257 -10.185  -2.691  1.00  0.00     0.269 C 
HETATM   13  H   UNL     1      35.385 -12.214  -2.272  1.00  0.00     0.279 HD
HETATM   14  C   UNL     1      36.477 -11.288  -0.833  1.00  0.00     0.269 C 
ENDBRANCH  10  11
ENDBRANCH   6  10
BRANCH   7  15
HETATM   15  C   UNL     1      35.231 -13.248  -5.245  1.00  0.00     0.225 A 
HETATM   16  N   UNL     1      34.109 -13.006  -4.563  1.00  0.00    -0.081 NA
HETATM   17  O   UNL     1      33.221 -12.540  -5.535  1.00  0.00    -0.103 OA
HETATM   18  N   UNL     1      33.812 -12.529  -6.789  1.00  0.00    -0.083 NA
HETATM   19  C   UNL     1      35.055 -12.970  -6.612  1.00  0.00     0.201 A 
BRANCH  19  20
HETATM   20  N   UNL     1      35.960 -13.109  -7.594  1.00  0.00    -0.379 N 
HETATM   21  H   UNL     1      36.941 -12.913  -7.414  1.00  0.00     0.158 HD
HETATM   22  H   UNL     1      35.716 -13.197  -8.578  1.00  0.00     0.158 HD
ENDBRANCH  19  20
ENDBRANCH   7  15
ENDBRANCH   1   5
BRANCH   2  23
HETATM   23  N   UNL     1      39.329 -14.328   0.210  1.00  0.00    -0.184 NA
HETATM   24  C   UNL     1      38.812 -14.592   1.368  1.00  0.00     0.150 C 
BRANCH  24  25
HETATM   25  C   UNL     1      39.654 -14.649   2.581  1.00  0.00    -0.014 A 
HETATM   26  C   UNL     1      40.384 -15.808   2.857  1.00  0.00     0.049 A 
HETATM   27  C   UNL     1      41.208 -15.864   3.986  1.00  0.00     0.070 A 
HETATM   28  C   UNL     1      41.275 -14.764   4.846  1.00  0.00     0.037 A 
HETATM   29  C   UNL     1      40.540 -13.610   4.572  1.00  0.00     0.004 A 
HETATM   30  C   UNL     1      39.731 -13.548   3.440  1.00  0.00     0.013 A 
BRANCH  27  31
HETATM   31  O   UNL     1      41.877 -17.046   4.161  1.00  0.00    -0.346 OA
BRANCH  31  32
HETATM   32  C   UNL     1      43.235 -17.067   3.712  1.00  0.00     0.219 C 
BRANCH  32  33
HETATM   33  C   UNL     1      43.645 -18.483   3.404  1.00  0.00     0.026 A 
HETATM   34  C   UNL     1      44.440 -19.253   4.264  1.00  0.00     0.045 A 
HETATM   35 CL   UNL     1      45.024 -18.631   5.768  1.00  0.00    -0.084 Cl
HETATM   36  C   UNL     1      44.772 -20.575   3.940  1.00  0.00     0.024 A 
HETATM   37  C   UNL     1      44.309 -21.150   2.756  1.00  0.00     0.005 A 
HETATM   38  C   UNL     1      43.514 -20.400   1.896  1.00  0.00     0.043 A 
HETATM   39  C   UNL     1      43.192 -19.085   2.224  1.00  0.00     0.126 A 
HETATM   40  F   UNL     1      42.410 -18.395   1.380  1.00  0.00    -0.205 F 
ENDBRANCH  32  33
ENDBRANCH  31  32
ENDBRANCH  27  31
ENDBRANCH  24  25
ENDBRANCH   2  23
TORSDOF 10
ENDMDL
MODEL 5
REMARK VINA RESULT:      -8.5      6.453     10.166
REMARK  10 active torsions:
REMARK  status: ('A' for Active; 'I' for Inactive)
REMARK    1  A    between atoms: N_2  and  C_4 
REMARK    2  A    between atoms: C_4  and  C_5 
REMARK    3  A    between atoms: N_6  and  C_7 
REMARK    4  A    between atoms: C_11  and  N_12 
REMARK    5  A    between atoms: C_15  and  C_16 
REMARK       I    between atoms: C_16  and  N_17 
REMARK    6  A    between atoms: N_17  and  N_18 
REMARK    7  A    between atoms: C_19  and  C_20 
REMARK    8  A    between atoms: C_22  and  O_23 
REMARK    9  A    between atoms: O_23  and  C_24 
REMARK   10  A    between atoms: C_24  and  C_25 
ROOT
HETATM    1  C   UNL     1      41.322 -15.677  -0.192  1.00  0.00     0.293 C 
HETATM    2  N   UNL     1      42.352 -16.591  -0.099  1.00  0.00    -0.242 N 
HETATM    3  O   UNL     1      40.508 -15.414   0.695  1.00  0.00    -0.264 OA
HETATM    4  H   UNL     1      42.973 -16.759  -0.887  1.00  0.00     0.192 HD
ENDROOT
BRANCH   1   5
HETATM    5  C   UNL     1      41.217 -15.001  -1.478  1.00  0.00     0.170 A 
HETATM    6  C   UNL     1      41.553 -13.677  -1.734  1.00  0.00     0.096 A 
HETATM    7  N   UNL     1      41.182 -13.477  -3.063  1.00  0.00    -0.215 N 
HETATM    8  N   UNL     1      40.769 -14.671  -3.575  1.00  0.00     0.012 NA
HETATM    9  N   UNL     1      40.762 -15.585  -2.619  1.00  0.00    -0.152 NA
BRANCH   6  10
HETATM   10  C   UNL     1      42.234 -12.699  -0.847  1.00  0.00     0.295 C 
BRANCH  10  11
HETATM   11  N   UNL     1      41.304 -11.706  -0.195  1.00  0.00    -0.073 N 
HETATM   12  C   UNL     1      41.642 -10.276  -0.484  1.00  0.00     0.269 C 
HETATM   13  H   UNL     1      40.360 -11.906  -0.587  1.00  0.00     0.279 HD
HETATM   14  C   UNL     1      41.160 -11.955   1.278  1.00  0.00     0.269 C 
ENDBRANCH  10  11
ENDBRANCH   6  10
BRANCH   7  15
HETATM   15  C   UNL     1      41.147 -12.283  -3.822  1.00  0.00     0.225 A 
HETATM   16  N   UNL     1      42.280 -11.648  -4.128  1.00  0.00    -0.081 NA
HETATM   17  O   UNL     1      41.853 -10.525  -4.840  1.00  0.00    -0.103 OA
HETATM   18  N   UNL     1      40.470 -10.488  -4.933  1.00  0.00    -0.083 NA
HETATM   19  C   UNL     1      40.032 -11.574  -4.300  1.00  0.00     0.201 A 
BRANCH  19  20
HETATM   20  N   UNL     1      38.737 -11.905  -4.166  1.00  0.00    -0.379 N 
HETATM   21  H   UNL     1      38.092 -11.262  -3.716  1.00  0.00     0.158 HD
HETATM   22  H   UNL     1      38.379 -12.849  -4.294  1.00  0.00     0.158 HD
ENDBRANCH  19  20
ENDBRANCH   7  15
ENDBRANCH   1   5
BRANCH   2  23
HETATM   23  N   UNL     1      42.560 -17.228   1.086  1.00  0.00    -0.184 NA
HETATM   24  C   UNL     1      43.626 -17.957   1.175  1.00  0.00     0.150 C 
BRANCH  24  25
HETATM   25  C   UNL     1      43.959 -18.667   2.428  1.00  0.00    -0.014 A 
HETATM   26  C   UNL     1      44.050 -17.947   3.623  1.00  0.00     0.049 A 
HETATM   27  C   UNL     1      44.335 -18.612   4.819  1.00  0.00     0.070 A 
HETATM   28  C   UNL     1      44.552 -19.993   4.808  1.00  0.00     0.037 A 
HETATM   29  C   UNL     1      44.468 -20.709   3.612  1.00  0.00     0.004 A 
HETATM   30  C   UNL     1      44.169 -20.050   2.422  1.00  0.00     0.013 A 
BRANCH  27  31
HETATM   31  O   UNL     1      44.400 -17.812   5.929  1.00  0.00    -0.346 OA
BRANCH  31  32
HETATM   32  C   UNL     1      43.168 -17.608   6.625  1.00  0.00     0.219 C 
BRANCH  32  33
HETATM   33  C   UNL     1      42.504 -16.351   6.124  1.00  0.00     0.026 A 
HETATM   34  C   UNL     1      43.058 -15.074   6.296  1.00  0.00     0.045 A 
HETATM   35 CL   UNL     1      44.564 -14.834   7.109  1.00  0.00    -0.084 Cl
HETATM   36  C   UNL     1      42.411 -13.940   5.788  1.00  0.00     0.024 A 
HETATM   37  C   UNL     1      41.206 -14.065   5.095  1.00  0.00     0.005 A 
HETATM   38  C   UNL     1      40.649 -15.327   4.911  1.00  0.00     0.043 A 
HETATM   39  C   UNL     1      41.297 -16.448   5.424  1.00  0.00     0.126 A 
HETATM   40  F   UNL     1      40.740 -17.651   5.215  1.00  0.00    -0.205 F 
ENDBRANCH  32  33
ENDBRANCH  31  32
ENDBRANCH  27  31
ENDBRANCH  24  25
ENDBRANCH   2  23
TORSDOF 10
ENDMDL
MODEL 6
REMARK VINA RESULT:      -8.4      6.527     10.495
REMARK  10 active torsions:
REMARK  status: ('A' for Active; 'I' for Inactive)
REMARK    1  A    between atoms: N_2  and  C_4 
REMARK    2  A    between atoms: C_4  and  C_5 
REMARK    3  A    between atoms: N_6  and  C_7 
REMARK    4  A    between atoms: C_11  and  N_12 
REMARK    5  A    between atoms: C_15  and  C_16 
REMARK       I    between atoms: C_16  and  N_17 
REMARK    6  A    between atoms: N_17  and  N_18 
REMARK    7  A    between atoms: C_19  and  C_20 
REMARK    8  A    between atoms: C_22  and  O_23 
REMARK    9  A    between atoms: O_23  and  C_24 
REMARK   10  A    between atoms: C_24  and  C_25 
ROOT
HETATM    1  C   UNL     1      41.522 -15.133  -0.282  1.00  0.00     0.293 C 
HETATM    2  N   UNL     1      41.912 -16.451  -0.148  1.00  0.00    -0.242 N 
HETATM    3  O   UNL     1      41.736 -14.231   0.529  1.00  0.00    -0.264 OA
HETATM    4  H   UNL     1      41.682 -17.139  -0.861  1.00  0.00     0.192 HD
ENDROOT
BRANCH   1   5
HETATM    5  C   UNL     1      40.777 -14.836  -1.498  1.00  0.00     0.170 A 
HETATM    6  C   UNL     1      39.447 -14.438  -1.563  1.00  0.00     0.096 A 
HETATM    7  N   UNL     1      39.171 -14.381  -2.929  1.00  0.00    -0.215 N 
HETATM    8  N   UNL     1      40.329 -14.614  -3.609  1.00  0.00     0.012 NA
HETATM    9  N   UNL     1      41.292 -14.916  -2.754  1.00  0.00    -0.152 NA
BRANCH   6  10
HETATM   10  C   UNL     1      38.529 -14.066  -0.457  1.00  0.00     0.295 C 
BRANCH  10  11
HETATM   11  N   UNL     1      38.224 -12.591  -0.378  1.00  0.00    -0.073 N 
HETATM   12  C   UNL     1      39.439 -11.716  -0.396  1.00  0.00     0.269 C 
HETATM   13  H   UNL     1      37.653 -12.376  -1.222  1.00  0.00     0.279 HD
HETATM   14  C   UNL     1      37.323 -12.264   0.778  1.00  0.00     0.269 C 
ENDBRANCH  10  11
ENDBRANCH   6  10
BRANCH   7  15
HETATM   15  C   UNL     1      37.938 -14.180  -3.593  1.00  0.00     0.225 A 
HETATM   16  N   UNL     1      37.243 -15.224  -4.050  1.00  0.00    -0.081 NA
HETATM   17  O   UNL     1      36.126 -14.644  -4.656  1.00  0.00    -0.103 OA
HETATM   18  N   UNL     1      36.175 -13.260  -4.575  1.00  0.00    -0.083 NA
HETATM   19  C   UNL     1      37.298 -12.972  -3.921  1.00  0.00     0.201 A 
BRANCH  19  20
HETATM   20  N   UNL     1      37.714 -11.727  -3.637  1.00  0.00    -0.379 N 
HETATM   21  H   UNL     1      38.612 -11.581  -3.186  1.00  0.00     0.158 HD
HETATM   22  H   UNL     1      37.105 -10.912  -3.649  1.00  0.00     0.158 HD
ENDBRANCH  19  20
ENDBRANCH   7  15
ENDBRANCH   1   5
BRANCH   2  23
HETATM   23  N   UNL     1      42.663 -16.806   0.931  1.00  0.00    -0.184 NA
HETATM   24  C   UNL     1      42.443 -17.980   1.432  1.00  0.00     0.150 C 
BRANCH  24  25
HETATM   25  C   UNL     1      43.224 -18.473   2.586  1.00  0.00    -0.014 A 
HETATM   26  C   UNL     1      43.446 -17.629   3.677  1.00  0.00     0.049 A 
HETATM   27  C   UNL     1      44.158 -18.095   4.787  1.00  0.00     0.070 A 
HETATM   28  C   UNL     1      44.666 -19.397   4.786  1.00  0.00     0.037 A 
HETATM   29  C   UNL     1      44.448 -20.236   3.692  1.00  0.00     0.004 A 
HETATM   30  C   UNL     1      43.726 -19.778   2.592  1.00  0.00     0.013 A 
BRANCH  27  31
HETATM   31  O   UNL     1      44.318 -17.186   5.799  1.00  0.00    -0.346 OA
BRANCH  31  32
HETATM   32  C   UNL     1      43.205 -17.037   6.686  1.00  0.00     0.219 C 
BRANCH  32  33
HETATM   33  C   UNL     1      42.406 -15.821   6.297  1.00  0.00     0.026 A 
HETATM   34  C   UNL     1      42.970 -14.544   6.170  1.00  0.00     0.045 A 
HETATM   35 CL   UNL     1      44.651 -14.256   6.456  1.00  0.00    -0.084 Cl
HETATM   36  C   UNL     1      42.185 -13.451   5.781  1.00  0.00     0.024 A 
HETATM   37  C   UNL     1      40.828 -13.618   5.506  1.00  0.00     0.005 A 
HETATM   38  C   UNL     1      40.256 -14.880   5.620  1.00  0.00     0.043 A 
HETATM   39  C   UNL     1      41.043 -15.961   6.013  1.00  0.00     0.126 A 
HETATM   40  F   UNL     1      40.463 -17.168   6.098  1.00  0.00    -0.205 F 
ENDBRANCH  32  33
ENDBRANCH  31  32
ENDBRANCH  27  31
ENDBRANCH  24  25
ENDBRANCH   2  23
TORSDOF 10
ENDMDL
MODEL 7
REMARK VINA RESULT:      -8.3      4.928     10.570
REMARK  10 active torsions:
REMARK  status: ('A' for Active; 'I' for Inactive)
REMARK    1  A    between atoms: N_2  and  C_4 
REMARK    2  A    between atoms: C_4  and  C_5 
REMARK    3  A    between atoms: N_6  and  C_7 
REMARK    4  A    between atoms: C_11  and  N_12 
REMARK    5  A    between atoms: C_15  and  C_16 
REMARK       I    between atoms: C_16  and  N_17 
REMARK    6  A    between atoms: N_17  and  N_18 
REMARK    7  A    between atoms: C_19  and  C_20 
REMARK    8  A    between atoms: C_22  and  O_23 
REMARK    9  A    between atoms: O_23  and  C_24 
REMARK   10  A    between atoms: C_24  and  C_25 
ROOT
HETATM    1  C   UNL     1      42.994 -15.847   3.072  1.00  0.00     0.293 C 
HETATM    2  N   UNL     1      41.675 -15.677   3.445  1.00  0.00    -0.242 N 
HETATM    3  O   UNL     1      43.838 -14.955   2.978  1.00  0.00    -0.264 OA
HETATM    4  H   UNL     1      41.038 -16.469   3.484  1.00  0.00     0.192 HD
ENDROOT
BRANCH   1   5
HETATM    5  C   UNL     1      43.368 -17.218   2.753  1.00  0.00     0.170 A 
HETATM    6  C   UNL     1      43.372 -18.289   3.638  1.00  0.00     0.096 A 
HETATM    7  N   UNL     1      43.898 -19.347   2.897  1.00  0.00    -0.215 N 
HETATM    8  N   UNL     1      44.067 -18.926   1.612  1.00  0.00     0.012 NA
HETATM    9  N   UNL     1      43.776 -17.638   1.525  1.00  0.00    -0.152 NA
BRANCH   6  10
HETATM   10  C   UNL     1      42.860 -18.352   5.031  1.00  0.00     0.295 C 
BRANCH  10  11
HETATM   11  N   UNL     1      43.914 -18.135   6.087  1.00  0.00    -0.073 N 
HETATM   12  C   UNL     1      43.716 -18.957   7.323  1.00  0.00     0.269 C 
HETATM   13  H   UNL     1      44.815 -18.417   5.646  1.00  0.00     0.279 HD
HETATM   14  C   UNL     1      44.094 -16.681   6.412  1.00  0.00     0.269 C 
ENDBRANCH  10  11
ENDBRANCH   6  10
BRANCH   7  15
HETATM   15  C   UNL     1      44.277 -20.644   3.317  1.00  0.00     0.225 A 
HETATM   16  N   UNL     1      44.786 -20.834   4.536  1.00  0.00    -0.081 NA
HETATM   17  O   UNL     1      45.058 -22.203   4.576  1.00  0.00    -0.103 OA
HETATM   18  N   UNL     1      44.731 -22.814   3.375  1.00  0.00    -0.083 NA
HETATM   19  C   UNL     1      44.250 -21.849   2.593  1.00  0.00     0.201 A 
BRANCH  19  20
HETATM   20  N   UNL     1      43.820 -22.034   1.335  1.00  0.00    -0.379 N 
HETATM   21  H   UNL     1      42.859 -21.815   1.088  1.00  0.00     0.158 HD
HETATM   22  H   UNL     1      44.325 -22.580   0.640  1.00  0.00     0.158 HD
ENDBRANCH  19  20
ENDBRANCH   7  15
ENDBRANCH   1   5
BRANCH   2  23
HETATM   23  N   UNL     1      41.253 -14.437   3.816  1.00  0.00    -0.184 NA
HETATM   24  C   UNL     1      41.384 -14.129   5.068  1.00  0.00     0.150 C 
BRANCH  24  25
HETATM   25  C   UNL     1      40.983 -12.797   5.569  1.00  0.00    -0.014 A 
HETATM   26  C   UNL     1      41.784 -12.147   6.512  1.00  0.00     0.049 A 
HETATM   27  C   UNL     1      41.431 -10.874   6.970  1.00  0.00     0.070 A 
HETATM   28  C   UNL     1      40.262 -10.270   6.499  1.00  0.00     0.037 A 
HETATM   29  C   UNL     1      39.460 -10.924   5.562  1.00  0.00     0.004 A 
HETATM   30  C   UNL     1      39.819 -12.185   5.093  1.00  0.00     0.013 A 
BRANCH  27  31
HETATM   31  O   UNL     1      42.284 -10.330   7.893  1.00  0.00    -0.346 OA
BRANCH  31  32
HETATM   32  C   UNL     1      43.037 -11.263   8.673  1.00  0.00     0.219 C 
BRANCH  32  33
HETATM   33  C   UNL     1      42.944 -10.896  10.131  1.00  0.00     0.026 A 
HETATM   34  C   UNL     1      44.058 -10.533  10.901  1.00  0.00     0.045 A 
HETATM   35 CL   UNL     1      45.651 -10.479  10.231  1.00  0.00    -0.084 Cl
HETATM   36  C   UNL     1      43.912 -10.177  12.248  1.00  0.00     0.024 A 
HETATM   37  C   UNL     1      42.650 -10.170  12.844  1.00  0.00     0.005 A 
HETATM   38  C   UNL     1      41.535 -10.521  12.091  1.00  0.00     0.043 A 
HETATM   39  C   UNL     1      41.691 -10.879  10.753  1.00  0.00     0.126 A 
HETATM   40  F   UNL     1      40.592 -11.197  10.052  1.00  0.00    -0.205 F 
ENDBRANCH  32  33
ENDBRANCH  31  32
ENDBRANCH  27  31
ENDBRANCH  24  25
ENDBRANCH   2  23
TORSDOF 10
ENDMDL
MODEL 8
REMARK VINA RESULT:      -8.3      4.897     10.709
REMARK  10 active torsions:
REMARK  status: ('A' for Active; 'I' for Inactive)
REMARK    1  A    between atoms: N_2  and  C_4 
REMARK    2  A    between atoms: C_4  and  C_5 
REMARK    3  A    between atoms: N_6  and  C_7 
REMARK    4  A    between atoms: C_11  and  N_12 
REMARK    5  A    between atoms: C_15  and  C_16 
REMARK       I    between atoms: C_16  and  N_17 
REMARK    6  A    between atoms: N_17  and  N_18 
REMARK    7  A    between atoms: C_19  and  C_20 
REMARK    8  A    between atoms: C_22  and  O_23 
REMARK    9  A    between atoms: O_23  and  C_24 
REMARK   10  A    between atoms: C_24  and  C_25 
ROOT
HETATM    1  C   UNL     1      42.974 -16.652   6.074  1.00  0.00     0.293 C 
HETATM    2  N   UNL     1      43.118 -15.447   5.415  1.00  0.00    -0.242 N 
HETATM    3  O   UNL     1      42.295 -16.845   7.084  1.00  0.00    -0.264 OA
HETATM    4  H   UNL     1      43.711 -15.369   4.592  1.00  0.00     0.192 HD
ENDROOT
BRANCH   1   5
HETATM    5  C   UNL     1      43.723 -17.759   5.496  1.00  0.00     0.170 A 
HETATM    6  C   UNL     1      43.360 -18.492   4.373  1.00  0.00     0.096 A 
HETATM    7  N   UNL     1      44.329 -19.491   4.285  1.00  0.00    -0.215 N 
HETATM    8  N   UNL     1      45.270 -19.259   5.243  1.00  0.00     0.012 NA
HETATM    9  N   UNL     1      44.897 -18.234   5.992  1.00  0.00    -0.152 NA
BRANCH   6  10
HETATM   10  C   UNL     1      42.254 -18.243   3.413  1.00  0.00     0.295 C 
BRANCH  10  11
HETATM   11  N   UNL     1      42.712 -17.821   2.039  1.00  0.00    -0.073 N 
HETATM   12  C   UNL     1      43.804 -16.797   2.050  1.00  0.00     0.269 C 
HETATM   13  H   UNL     1      43.076 -18.686   1.587  1.00  0.00     0.279 HD
HETATM   14  C   UNL     1      41.563 -17.397   1.170  1.00  0.00     0.269 C 
ENDBRANCH  10  11
ENDBRANCH   6  10
BRANCH   7  15
HETATM   15  C   UNL     1      44.389 -20.618   3.431  1.00  0.00     0.225 A 
HETATM   16  N   UNL     1      44.092 -20.497   2.135  1.00  0.00    -0.081 NA
HETATM   17  O   UNL     1      44.233 -21.794   1.636  1.00  0.00    -0.103 OA
HETATM   18  N   UNL     1      44.589 -22.681   2.642  1.00  0.00    -0.083 NA
HETATM   19  C   UNL     1      44.683 -21.954   3.753  1.00  0.00     0.201 A 
BRANCH  19  20
HETATM   20  N   UNL     1      45.008 -22.449   4.959  1.00  0.00    -0.379 N 
HETATM   21  H   UNL     1      44.278 -22.707   5.617  1.00  0.00     0.158 HD
HETATM   22  H   UNL     1      45.943 -22.396   5.357  1.00  0.00     0.158 HD
ENDBRANCH  19  20
ENDBRANCH   7  15
ENDBRANCH   1   5
BRANCH   2  23
HETATM   23  N   UNL     1      42.408 -14.371   5.852  1.00  0.00    -0.184 NA
HETATM   24  C   UNL     1      42.414 -13.322   5.092  1.00  0.00     0.150 C 
BRANCH  24  25
HETATM   25  C   UNL     1      41.651 -12.111   5.461  1.00  0.00    -0.014 A 
HETATM   26  C   UNL     1      41.216 -11.947   6.779  1.00  0.00     0.049 A 
HETATM   27  C   UNL     1      40.520 -10.791   7.147  1.00  0.00     0.070 A 
HETATM   28  C   UNL     1      40.241  -9.817   6.184  1.00  0.00     0.037 A 
HETATM   29  C   UNL     1      40.671  -9.986   4.867  1.00  0.00     0.004 A 
HETATM   30  C   UNL     1      41.378 -11.129   4.503  1.00  0.00     0.013 A 
BRANCH  27  31
HETATM   31  O   UNL     1      40.141 -10.734   8.461  1.00  0.00    -0.346 OA
BRANCH  31  32
HETATM   32  C   UNL     1      40.798  -9.744   9.258  1.00  0.00     0.219 C 
BRANCH  32  33
HETATM   33  C   UNL     1      41.621 -10.417  10.326  1.00  0.00     0.026 A 
HETATM   34  C   UNL     1      41.138 -10.668  11.618  1.00  0.00     0.045 A 
HETATM   35 CL   UNL     1      39.539 -10.219  12.098  1.00  0.00    -0.084 Cl
HETATM   36  C   UNL     1      41.938 -11.320  12.566  1.00  0.00     0.024 A 
HETATM   37  C   UNL     1      43.228 -11.737  12.235  1.00  0.00     0.005 A 
HETATM   38  C   UNL     1      43.717 -11.500  10.955  1.00  0.00     0.043 A 
HETATM   39  C   UNL     1      42.917 -10.847  10.020  1.00  0.00     0.126 A 
HETATM   40  F   UNL     1      43.414 -10.649   8.790  1.00  0.00    -0.205 F 
ENDBRANCH  32  33
ENDBRANCH  31  32
ENDBRANCH  27  31
ENDBRANCH  24  25
ENDBRANCH   2  23
TORSDOF 10
ENDMDL
MODEL 9
REMARK VINA RESULT:      -8.3      6.579     10.238
REMARK  10 active torsions:
REMARK  status: ('A' for Active; 'I' for Inactive)
REMARK    1  A    between atoms: N_2  and  C_4 
REMARK    2  A    between atoms: C_4  and  C_5 
REMARK    3  A    between atoms: N_6  and  C_7 
REMARK    4  A    between atoms: C_11  and  N_12 
REMARK    5  A    between atoms: C_15  and  C_16 
REMARK       I    between atoms: C_16  and  N_17 
REMARK    6  A    between atoms: N_17  and  N_18 
REMARK    7  A    between atoms: C_19  and  C_20 
REMARK    8  A    between atoms: C_22  and  O_23 
REMARK    9  A    between atoms: O_23  and  C_24 
REMARK   10  A    between atoms: C_24  and  C_25 
ROOT
HETATM    1  C   UNL     1      41.258 -15.423   0.380  1.00  0.00     0.293 C 
HETATM    2  N   UNL     1      42.384 -16.205   0.216  1.00  0.00    -0.242 N 
HETATM    3  O   UNL     1      40.285 -15.698   1.083  1.00  0.00    -0.264 OA
HETATM    4  H   UNL     1      43.140 -15.909  -0.397  1.00  0.00     0.192 HD
ENDROOT
BRANCH   1   5
HETATM    5  C   UNL     1      41.259 -14.180  -0.379  1.00  0.00     0.170 A 
HETATM    6  C   UNL     1      41.074 -14.063  -1.752  1.00  0.00     0.096 A 
HETATM    7  N   UNL     1      41.263 -12.706  -2.011  1.00  0.00    -0.215 N 
HETATM    8  N   UNL     1      41.424 -12.063  -0.820  1.00  0.00     0.012 NA
HETATM    9  N   UNL     1      41.450 -12.948   0.163  1.00  0.00    -0.152 NA
BRANCH   6  10
HETATM   10  C   UNL     1      40.677 -15.105  -2.733  1.00  0.00     0.295 C 
BRANCH  10  11
HETATM   11  N   UNL     1      39.332 -14.870  -3.374  1.00  0.00    -0.073 N 
HETATM   12  C   UNL     1      38.258 -14.479  -2.408  1.00  0.00     0.269 C 
HETATM   13  H   UNL     1      39.474 -14.084  -4.043  1.00  0.00     0.279 HD
HETATM   14  C   UNL     1      38.911 -16.025  -4.235  1.00  0.00     0.269 C 
ENDBRANCH  10  11
ENDBRANCH   6  10
BRANCH   7  15
HETATM   15  C   UNL     1      41.347 -12.026  -3.249  1.00  0.00     0.225 A 
HETATM   16  N   UNL     1      42.516 -11.928  -3.885  1.00  0.00    -0.081 NA
HETATM   17  O   UNL     1      42.215 -11.183  -5.027  1.00  0.00    -0.103 OA
HETATM   18  N   UNL     1      40.876 -10.823  -5.051  1.00  0.00    -0.083 NA
HETATM   19  C   UNL     1      40.338 -11.342  -3.950  1.00  0.00     0.201 A 
BRANCH  19  20
HETATM   20  N   UNL     1      39.048 -11.214  -3.602  1.00  0.00    -0.379 N 
HETATM   21  H   UNL     1      38.508 -12.034  -3.340  1.00  0.00     0.158 HD
HETATM   22  H   UNL     1      38.495 -10.378  -3.779  1.00  0.00     0.158 HD
ENDBRANCH  19  20
ENDBRANCH   7  15
ENDBRANCH   1   5
BRANCH   2  23
HETATM   23  N   UNL     1      42.494 -17.356   0.933  1.00  0.00    -0.184 NA
HETATM   24  C   UNL     1      43.694 -17.787   1.161  1.00  0.00     0.150 C 
BRANCH  24  25
HETATM   25  C   UNL     1      43.924 -19.014   1.955  1.00  0.00    -0.014 A 
HETATM   26  C   UNL     1      44.211 -18.906   3.318  1.00  0.00     0.049 A 
HETATM   27  C   UNL     1      44.400 -20.060   4.086  1.00  0.00     0.070 A 
HETATM   28  C   UNL     1      44.325 -21.315   3.476  1.00  0.00     0.037 A 
HETATM   29  C   UNL     1      44.045 -21.419   2.112  1.00  0.00     0.004 A 
HETATM   30  C   UNL     1      43.841 -20.272   1.351  1.00  0.00     0.013 A 
BRANCH  27  31
HETATM   31  O   UNL     1      44.676 -19.840   5.409  1.00  0.00    -0.346 OA
BRANCH  31  32
HETATM   32  C   UNL     1      43.573 -19.419   6.216  1.00  0.00     0.219 C 
BRANCH  32  33
HETATM   33  C   UNL     1      43.510 -17.915   6.245  1.00  0.00     0.026 A 
HETATM   34  C   UNL     1      42.389 -17.188   5.821  1.00  0.00     0.045 A 
HETATM   35 CL   UNL     1      40.969 -17.969   5.220  1.00  0.00    -0.084 Cl
HETATM   36  C   UNL     1      42.374 -15.789   5.893  1.00  0.00     0.024 A 
HETATM   37  C   UNL     1      43.475 -15.095   6.397  1.00  0.00     0.005 A 
HETATM   38  C   UNL     1      44.592 -15.804   6.828  1.00  0.00     0.043 A 
HETATM   39  C   UNL     1      44.600 -17.195   6.748  1.00  0.00     0.126 A 
HETATM   40  F   UNL     1      45.687 -17.847   7.186  1.00  0.00    -0.205 F 
ENDBRANCH  32  33
ENDBRANCH  31  32
ENDBRANCH  27  31
ENDBRANCH  24  25
ENDBRANCH   2  23
TORSDOF 10
ENDMDL
MODEL 10
REMARK VINA RESULT:      -8.2      5.394      8.663
REMARK  10 active torsions:
REMARK  status: ('A' for Active; 'I' for Inactive)
REMARK    1  A    between atoms: N_2  and  C_4 
REMARK    2  A    between atoms: C_4  and  C_5 
REMARK    3  A    between atoms: N_6  and  C_7 
REMARK    4  A    between atoms: C_11  and  N_12 
REMARK    5  A    between atoms: C_15  and  C_16 
REMARK       I    between atoms: C_16  and  N_17 
REMARK    6  A    between atoms: N_17  and  N_18 
REMARK    7  A    between atoms: C_19  and  C_20 
REMARK    8  A    between atoms: C_22  and  O_23 
REMARK    9  A    between atoms: O_23  and  C_24 
REMARK   10  A    between atoms: C_24  and  C_25 
ROOT
HETATM    1  C   UNL     1      39.763 -15.244   1.899  1.00  0.00     0.293 C 
HETATM    2  N   UNL     1      39.949 -14.635   3.124  1.00  0.00    -0.242 N 
HETATM    3  O   UNL     1      40.214 -16.340   1.562  1.00  0.00    -0.264 OA
HETATM    4  H   UNL     1      39.552 -13.719   3.318  1.00  0.00     0.192 HD
ENDROOT
BRANCH   1   5
HETATM    5  C   UNL     1      38.970 -14.477   0.948  1.00  0.00     0.170 A 
HETATM    6  C   UNL     1      39.464 -13.774  -0.145  1.00  0.00     0.096 A 
HETATM    7  N   UNL     1      38.345 -13.131  -0.675  1.00  0.00    -0.215 N 
HETATM    8  N   UNL     1      37.246 -13.551   0.013  1.00  0.00     0.012 NA
HETATM    9  N   UNL     1      37.619 -14.339   1.008  1.00  0.00    -0.152 NA
BRANCH   6  10
HETATM   10  C   UNL     1      40.840 -13.760  -0.702  1.00  0.00     0.295 C 
BRANCH  10  11
HETATM   11  N   UNL     1      41.531 -12.423  -0.609  1.00  0.00    -0.073 N 
HETATM   12  C   UNL     1      42.608 -12.222  -1.629  1.00  0.00     0.269 C 
HETATM   13  H   UNL     1      40.787 -11.711  -0.772  1.00  0.00     0.279 HD
HETATM   14  C   UNL     1      42.023 -12.140   0.781  1.00  0.00     0.269 C 
ENDBRANCH  10  11
ENDBRANCH   6  10
BRANCH   7  15
HETATM   15  C   UNL     1      38.263 -12.160  -1.700  1.00  0.00     0.225 A 
HETATM   16  N   UNL     1      38.739 -10.929  -1.501  1.00  0.00    -0.081 NA
HETATM   17  O   UNL     1      38.461 -10.264  -2.697  1.00  0.00    -0.103 OA
HETATM   18  N   UNL     1      37.802 -11.095  -3.590  1.00  0.00    -0.083 NA
HETATM   19  C   UNL     1      37.676 -12.268  -2.973  1.00  0.00     0.201 A 
BRANCH  19  20
HETATM   20  N   UNL     1      37.086 -13.349  -3.509  1.00  0.00    -0.379 N 
HETATM   21  H   UNL     1      36.435 -13.900  -2.956  1.00  0.00     0.158 HD
HETATM   22  H   UNL     1      37.395 -13.792  -4.371  1.00  0.00     0.158 HD
ENDBRANCH  19  20
ENDBRANCH   7  15
ENDBRANCH   1   5
BRANCH   2  23
HETATM   23  N   UNL     1      40.629 -15.306   4.094  1.00  0.00    -0.184 NA
HETATM   24  C   UNL     1      41.900 -15.072   4.182  1.00  0.00     0.150 C 
BRANCH  24  25
HETATM   25  C   UNL     1      42.724 -15.727   5.220  1.00  0.00    -0.014 A 
HETATM   26  C   UNL     1      42.998 -17.094   5.118  1.00  0.00     0.049 A 
HETATM   27  C   UNL     1      43.802 -17.718   6.077  1.00  0.00     0.070 A 
HETATM   28  C   UNL     1      44.305 -16.974   7.148  1.00  0.00     0.037 A 
HETATM   29  C   UNL     1      44.024 -15.610   7.250  1.00  0.00     0.004 A 
HETATM   30  C   UNL     1      43.237 -14.984   6.287  1.00  0.00     0.013 A 
BRANCH  27  31
HETATM   31  O   UNL     1      44.006 -19.058   5.882  1.00  0.00    -0.346 OA
BRANCH  31  32
HETATM   32  C   UNL     1      45.157 -19.409   5.109  1.00  0.00     0.219 C 
BRANCH  32  33
HETATM   33  C   UNL     1      44.746 -20.281   3.952  1.00  0.00     0.026 A 
HETATM   34  C   UNL     1      44.754 -21.682   4.010  1.00  0.00     0.045 A 
HETATM   35 CL   UNL     1      45.246 -22.533   5.432  1.00  0.00    -0.084 Cl
HETATM   36  C   UNL     1      44.337 -22.446   2.913  1.00  0.00     0.024 A 
HETATM   37  C   UNL     1      43.898 -21.823   1.744  1.00  0.00     0.005 A 
HETATM   38  C   UNL     1      43.878 -20.434   1.674  1.00  0.00     0.043 A 
HETATM   39  C   UNL     1      44.299 -19.682   2.769  1.00  0.00     0.126 A 
HETATM   40  F   UNL     1      44.252 -18.345   2.674  1.00  0.00    -0.205 F 
ENDBRANCH  32  33
ENDBRANCH  31  32
ENDBRANCH  27  31
ENDBRANCH  24  25
ENDBRANCH   2  23
TORSDOF 10
ENDMDL
