MODEL 1
REMARK VINA RESULT:     -10.1      0.000      0.000
REMARK  8 active torsions:
REMARK  status: ('A' for Active; 'I' for Inactive)
REMARK    1  A    between atoms: C_7  and  C_8 
REMARK       I    between atoms: C_8  and  N_9 
REMARK    2  A    between atoms: N_9  and  N_10 
REMARK    3  A    between atoms: N_10  and  C_11 
REMARK    4  A    between atoms: C_11  and  N_12 
REMARK    5  A    between atoms: N_12  and  C_13 
REMARK    6  A    between atoms: N_15  and  C_16 
REMARK    7  A    between atoms: C_16  and  C_17 
REMARK    8  A    between atoms: C_29  and  C_30 
ROOT
HETATM    1  C   UNL     1      44.627 -11.762   9.322  1.00  0.00     0.290 C 
HETATM    2  N   UNL     1      44.255 -12.993   8.820  1.00  0.00    -0.262 N 
HETATM    3  O   UNL     1      45.553 -11.079   8.893  1.00  0.00    -0.264 OA
HETATM    4  H   UNL     1      43.389 -13.405   9.169  1.00  0.00     0.190 HD
ENDROOT
BRANCH   2   5
HETATM    5  N   UNL     1      44.773 -13.464   7.616  1.00  0.00    -0.273 N 
HETATM    6  H   UNL     1      45.786 -13.395   7.473  1.00  0.00     0.189 HD
BRANCH   5   7
HETATM    7  C   UNL     1      44.052 -14.287   6.791  1.00  0.00     0.192 C 
HETATM    8  S   UNL     1      43.669 -13.939   5.194  1.00  0.00    -0.039 SA
BRANCH   7   9
HETATM    9  N   UNL     1      43.604 -15.467   7.316  1.00  0.00    -0.315 N 
HETATM   10  H   UNL     1      43.307 -15.432   8.281  1.00  0.00     0.170 HD
BRANCH   9  11
HETATM   11  C   UNL     1      43.612 -16.709   6.715  1.00  0.00     0.151 A 
HETATM   12  N   UNL     1      44.720 -17.372   6.371  1.00  0.00    -0.154 NA
HETATM   13  N   UNL     1      44.268 -18.539   5.866  1.00  0.00    -0.275 N 
HETATM   14  C   UNL     1      42.907 -18.627   5.857  1.00  0.00     0.116 A 
HETATM   15  C   UNL     1      42.450 -17.447   6.397  1.00  0.00     0.071 A 
BRANCH  13  16
HETATM   16  C   UNL     1      45.210 -19.519   5.339  1.00  0.00     0.192 C 
BRANCH  16  17
HETATM   17  C   UNL     1      44.679 -20.188   4.104  1.00  0.00     0.000 A 
HETATM   18  C   UNL     1      44.767 -21.575   3.960  1.00  0.00     0.124 A 
HETATM   19  F   UNL     1      45.315 -22.310   4.937  1.00  0.00    -0.205 F 
HETATM   20  C   UNL     1      44.291 -22.217   2.821  1.00  0.00     0.043 A 
HETATM   21  C   UNL     1      43.717 -21.467   1.796  1.00  0.00     0.003 A 
HETATM   22  C   UNL     1      43.629 -20.079   1.916  1.00  0.00     0.001 A 
HETATM   23  C   UNL     1      44.111 -19.440   3.061  1.00  0.00     0.012 A 
ENDBRANCH  16  17
ENDBRANCH  13  16
ENDBRANCH   9  11
ENDBRANCH   7   9
ENDBRANCH   5   7
ENDBRANCH   2   5
BRANCH   1  24
HETATM   24  C   UNL     1      43.771 -11.347  10.445  1.00  0.00     0.150 A 
HETATM   25  N   UNL     1      42.734 -10.495  10.265  1.00  0.00    -0.165 NA
HETATM   26  N   UNL     1      42.209 -10.379  11.495  1.00  0.00    -0.240 N 
HETATM   27  C   UNL     1      42.915 -11.024  12.470  1.00  0.00     0.123 A 
HETATM   28  C   UNL     1      41.036  -9.566  11.752  1.00  0.00     0.221 C 
HETATM   29  N   UNL     1      42.597 -10.889  13.776  1.00  0.00    -0.371 N 
HETATM   30  C   UNL     1      43.903 -11.714  11.814  1.00  0.00     0.089 A 
HETATM   31  C   UNL     1      41.428 -10.125  14.206  1.00  0.00     0.081 C 
HETATM   32  H   UNL     1      43.024 -11.496  14.475  1.00  0.00     0.161 HD
HETATM   33  C   UNL     1      41.706  -9.515  15.578  1.00  0.00     0.032 C 
HETATM   34  C   UNL     1      41.107  -9.016  13.185  1.00  0.00     0.061 C 
BRANCH  28  35
HETATM   35  C   UNL     1      39.786 -10.378  11.499  1.00  0.00     0.409 C 
HETATM   36  F   UNL     1      39.312 -10.228  10.243  1.00  0.00    -0.169 F 
HETATM   37  F   UNL     1      39.949 -11.701  11.718  1.00  0.00    -0.169 F 
HETATM   38  F   UNL     1      38.795  -9.968  12.334  1.00  0.00    -0.169 F 
ENDBRANCH  28  35
ENDBRANCH   1  24
TORSDOF 8
ENDMDL
MODEL 2
REMARK VINA RESULT:      -9.9      3.445      4.271
REMARK  8 active torsions:
REMARK  status: ('A' for Active; 'I' for Inactive)
REMARK    1  A    between atoms: C_7  and  C_8 
REMARK       I    between atoms: C_8  and  N_9 
REMARK    2  A    between atoms: N_9  and  N_10 
REMARK    3  A    between atoms: N_10  and  C_11 
REMARK    4  A    between atoms: C_11  and  N_12 
REMARK    5  A    between atoms: N_12  and  C_13 
REMARK    6  A    between atoms: N_15  and  C_16 
REMARK    7  A    between atoms: C_16  and  C_17 
REMARK    8  A    between atoms: C_29  and  C_30 
ROOT
HETATM    1  C   UNL     1      39.105 -10.567   9.500  1.00  0.00     0.290 C 
HETATM    2  N   UNL     1      39.565 -11.823   9.158  1.00  0.00    -0.262 N 
HETATM    3  O   UNL     1      38.321  -9.898   8.832  1.00  0.00    -0.264 OA
HETATM    4  H   UNL     1      40.107 -12.335   9.854  1.00  0.00     0.190 HD
ENDROOT
BRANCH   2   5
HETATM    5  N   UNL     1      38.986 -12.538   8.112  1.00  0.00    -0.273 N 
HETATM    6  H   UNL     1      37.992 -12.774   8.187  1.00  0.00     0.189 HD
BRANCH   5   7
HETATM    7  C   UNL     1      39.590 -12.642   6.886  1.00  0.00     0.192 C 
HETATM    8  S   UNL     1      39.940 -11.343   5.881  1.00  0.00    -0.039 SA
BRANCH   7   9
HETATM    9  N   UNL     1      39.915 -13.896   6.450  1.00  0.00    -0.315 N 
HETATM   10  H   UNL     1      39.744 -14.645   7.106  1.00  0.00     0.170 HD
BRANCH   9  11
HETATM   11  C   UNL     1      40.540 -14.237   5.268  1.00  0.00     0.151 A 
HETATM   12  N   UNL     1      41.855 -14.441   5.145  1.00  0.00    -0.154 NA
HETATM   13  N   UNL     1      42.019 -14.791   3.852  1.00  0.00    -0.275 N 
HETATM   14  C   UNL     1      40.852 -14.793   3.146  1.00  0.00     0.116 A 
HETATM   15  C   UNL     1      39.872 -14.429   4.039  1.00  0.00     0.071 A 
BRANCH  13  16
HETATM   16  C   UNL     1      43.355 -15.054   3.331  1.00  0.00     0.192 C 
BRANCH  16  17
HETATM   17  C   UNL     1      43.516 -16.489   2.918  1.00  0.00     0.000 A 
HETATM   18  C   UNL     1      43.651 -17.490   3.883  1.00  0.00     0.124 A 
HETATM   19  F   UNL     1      43.622 -17.166   5.183  1.00  0.00    -0.205 F 
HETATM   20  C   UNL     1      43.812 -18.825   3.525  1.00  0.00     0.043 A 
HETATM   21  C   UNL     1      43.843 -19.178   2.177  1.00  0.00     0.003 A 
HETATM   22  C   UNL     1      43.719 -18.191   1.197  1.00  0.00     0.001 A 
HETATM   23  C   UNL     1      43.562 -16.852   1.563  1.00  0.00     0.012 A 
ENDBRANCH  16  17
ENDBRANCH  13  16
ENDBRANCH   9  11
ENDBRANCH   7   9
ENDBRANCH   5   7
ENDBRANCH   2   5
BRANCH   1  24
HETATM   24  C   UNL     1      39.664 -10.110  10.783  1.00  0.00     0.150 A 
HETATM   25  N   UNL     1      40.721 -10.733  11.355  1.00  0.00    -0.165 NA
HETATM   26  N   UNL     1      40.930 -10.027  12.478  1.00  0.00    -0.240 N 
HETATM   27  C   UNL     1      40.001  -9.053  12.709  1.00  0.00     0.123 A 
HETATM   28  C   UNL     1      42.011 -10.344  13.390  1.00  0.00     0.221 C 
HETATM   29  N   UNL     1      39.990  -8.350  13.862  1.00  0.00    -0.371 N 
HETATM   30  C   UNL     1      39.197  -9.038  11.597  1.00  0.00     0.089 A 
HETATM   31  C   UNL     1      41.026  -8.527  14.878  1.00  0.00     0.081 C 
HETATM   32  H   UNL     1      39.400  -7.524  13.955  1.00  0.00     0.161 HD
HETATM   33  C   UNL     1      40.425  -8.256  16.256  1.00  0.00     0.032 C 
HETATM   34  C   UNL     1      41.596  -9.957  14.818  1.00  0.00     0.061 C 
BRANCH  28  35
HETATM   35  C   UNL     1      43.278  -9.651  12.942  1.00  0.00     0.409 C 
HETATM   36  F   UNL     1      43.035  -8.579  12.157  1.00  0.00    -0.169 F 
HETATM   37  F   UNL     1      44.058  -9.238  13.964  1.00  0.00    -0.169 F 
HETATM   38  F   UNL     1      44.032 -10.505  12.201  1.00  0.00    -0.169 F 
ENDBRANCH  28  35
ENDBRANCH   1  24
TORSDOF 8
ENDMDL
MODEL 3
REMARK VINA RESULT:      -9.8      3.221      4.099
REMARK  8 active torsions:
REMARK  status: ('A' for Active; 'I' for Inactive)
REMARK    1  A    between atoms: C_7  and  C_8 
REMARK       I    between atoms: C_8  and  N_9 
REMARK    2  A    between atoms: N_9  and  N_10 
REMARK    3  A    between atoms: N_10  and  C_11 
REMARK    4  A    between atoms: C_11  and  N_12 
REMARK    5  A    between atoms: N_12  and  C_13 
REMARK    6  A    between atoms: N_15  and  C_16 
REMARK    7  A    between atoms: C_16  and  C_17 
REMARK    8  A    between atoms: C_29  and  C_30 
ROOT
HETATM    1  C   UNL     1      39.231 -10.657   9.184  1.00  0.00     0.290 C 
HETATM    2  N   UNL     1      39.767 -11.870   8.800  1.00  0.00    -0.262 N 
HETATM    3  O   UNL     1      38.401 -10.020   8.541  1.00  0.00    -0.264 OA
HETATM    4  H   UNL     1      40.346 -12.368   9.477  1.00  0.00     0.190 HD
ENDROOT
BRANCH   2   5
HETATM    5  N   UNL     1      39.226 -12.590   7.737  1.00  0.00    -0.273 N 
HETATM    6  H   UNL     1      38.252 -12.900   7.817  1.00  0.00     0.189 HD
BRANCH   5   7
HETATM    7  C   UNL     1      39.817 -12.607   6.501  1.00  0.00     0.192 C 
HETATM    8  S   UNL     1      39.132 -11.968   5.107  1.00  0.00    -0.039 SA
BRANCH   7   9
HETATM    9  N   UNL     1      41.044 -13.200   6.399  1.00  0.00    -0.315 N 
HETATM   10  H   UNL     1      41.742 -12.876   7.054  1.00  0.00     0.170 HD
BRANCH   9  11
HETATM   11  C   UNL     1      41.461 -14.105   5.444  1.00  0.00     0.151 A 
HETATM   12  N   UNL     1      40.876 -15.285   5.220  1.00  0.00    -0.154 NA
HETATM   13  N   UNL     1      41.569 -15.812   4.189  1.00  0.00    -0.275 N 
HETATM   14  C   UNL     1      42.591 -15.011   3.767  1.00  0.00     0.116 A 
HETATM   15  C   UNL     1      42.550 -13.896   4.570  1.00  0.00     0.071 A 
BRANCH  13  16
HETATM   16  C   UNL     1      41.237 -17.139   3.688  1.00  0.00     0.192 C 
BRANCH  16  17
HETATM   17  C   UNL     1      42.396 -18.086   3.815  1.00  0.00     0.000 A 
HETATM   18  C   UNL     1      42.892 -18.749   2.691  1.00  0.00     0.124 A 
HETATM   19  F   UNL     1      42.338 -18.527   1.491  1.00  0.00    -0.205 F 
HETATM   20  C   UNL     1      43.958 -19.638   2.785  1.00  0.00     0.043 A 
HETATM   21  C   UNL     1      44.546 -19.880   4.025  1.00  0.00     0.003 A 
HETATM   22  C   UNL     1      44.059 -19.234   5.163  1.00  0.00     0.001 A 
HETATM   23  C   UNL     1      42.986 -18.345   5.062  1.00  0.00     0.012 A 
ENDBRANCH  16  17
ENDBRANCH  13  16
ENDBRANCH   9  11
ENDBRANCH   7   9
ENDBRANCH   5   7
ENDBRANCH   2   5
BRANCH   1  24
HETATM   24  C   UNL     1      39.771 -10.204  10.476  1.00  0.00     0.150 A 
HETATM   25  N   UNL     1      40.803 -10.844  11.074  1.00  0.00    -0.165 NA
HETATM   26  N   UNL     1      41.001 -10.136  12.197  1.00  0.00    -0.240 N 
HETATM   27  C   UNL     1      40.086  -9.143  12.403  1.00  0.00     0.123 A 
HETATM   28  C   UNL     1      42.056 -10.468  13.135  1.00  0.00     0.221 C 
HETATM   29  N   UNL     1      40.065  -8.433  13.552  1.00  0.00    -0.371 N 
HETATM   30  C   UNL     1      39.308  -9.119  11.274  1.00  0.00     0.089 A 
HETATM   31  C   UNL     1      41.074  -8.625  14.591  1.00  0.00     0.081 C 
HETATM   32  H   UNL     1      39.488  -7.596  13.628  1.00  0.00     0.161 HD
HETATM   33  C   UNL     1      40.449  -8.335  15.954  1.00  0.00     0.032 C 
HETATM   34  C   UNL     1      41.618 -10.065  14.551  1.00  0.00     0.061 C 
BRANCH  28  35
HETATM   35  C   UNL     1      43.346  -9.802  12.710  1.00  0.00     0.409 C 
HETATM   36  F   UNL     1      43.142  -8.752  11.885  1.00  0.00    -0.169 F 
HETATM   37  F   UNL     1      44.095  -9.367  13.746  1.00  0.00    -0.169 F 
HETATM   38  F   UNL     1      44.115 -10.686  12.022  1.00  0.00    -0.169 F 
ENDBRANCH  28  35
ENDBRANCH   1  24
TORSDOF 8
ENDMDL
MODEL 4
REMARK VINA RESULT:      -9.8      1.687      2.243
REMARK  8 active torsions:
REMARK  status: ('A' for Active; 'I' for Inactive)
REMARK    1  A    between atoms: C_7  and  C_8 
REMARK       I    between atoms: C_8  and  N_9 
REMARK    2  A    between atoms: N_9  and  N_10 
REMARK    3  A    between atoms: N_10  and  C_11 
REMARK    4  A    between atoms: C_11  and  N_12 
REMARK    5  A    between atoms: N_12  and  C_13 
REMARK    6  A    between atoms: N_15  and  C_16 
REMARK    7  A    between atoms: C_16  and  C_17 
REMARK    8  A    between atoms: C_29  and  C_30 
ROOT
HETATM    1  C   UNL     1      44.422 -11.548   9.197  1.00  0.00     0.290 C 
HETATM    2  N   UNL     1      43.998 -12.804   8.809  1.00  0.00    -0.262 N 
HETATM    3  O   UNL     1      45.515 -11.060   8.924  1.00  0.00    -0.264 OA
HETATM    4  H   UNL     1      43.022 -13.048   8.980  1.00  0.00     0.190 HD
ENDROOT
BRANCH   2   5
HETATM    5  N   UNL     1      44.710 -13.543   7.867  1.00  0.00    -0.273 N 
HETATM    6  H   UNL     1      45.717 -13.661   8.014  1.00  0.00     0.189 HD
BRANCH   5   7
HETATM    7  C   UNL     1      44.082 -14.364   6.967  1.00  0.00     0.192 C 
HETATM    8  S   UNL     1      43.820 -13.988   5.352  1.00  0.00    -0.039 SA
BRANCH   7   9
HETATM    9  N   UNL     1      43.625 -15.567   7.428  1.00  0.00    -0.315 N 
HETATM   10  H   UNL     1      43.300 -15.575   8.385  1.00  0.00     0.170 HD
BRANCH   9  11
HETATM   11  C   UNL     1      43.656 -16.782   6.774  1.00  0.00     0.151 A 
HETATM   12  N   UNL     1      44.776 -17.402   6.391  1.00  0.00    -0.154 NA
HETATM   13  N   UNL     1      44.348 -18.557   5.841  1.00  0.00    -0.275 N 
HETATM   14  C   UNL     1      42.989 -18.679   5.842  1.00  0.00     0.116 A 
HETATM   15  C   UNL     1      42.510 -17.535   6.437  1.00  0.00     0.071 A 
BRANCH  13  16
HETATM   16  C   UNL     1      45.307 -19.490   5.264  1.00  0.00     0.192 C 
BRANCH  16  17
HETATM   17  C   UNL     1      44.739 -20.198   4.067  1.00  0.00     0.000 A 
HETATM   18  C   UNL     1      44.786 -21.591   3.984  1.00  0.00     0.124 A 
HETATM   19  F   UNL     1      45.329 -22.298   4.985  1.00  0.00    -0.205 F 
HETATM   20  C   UNL     1      44.276 -22.270   2.881  1.00  0.00     0.043 A 
HETATM   21  C   UNL     1      43.707 -21.550   1.832  1.00  0.00     0.003 A 
HETATM   22  C   UNL     1      43.659 -20.156   1.891  1.00  0.00     0.001 A 
HETATM   23  C   UNL     1      44.177 -19.481   3.000  1.00  0.00     0.012 A 
ENDBRANCH  16  17
ENDBRANCH  13  16
ENDBRANCH   9  11
ENDBRANCH   7   9
ENDBRANCH   5   7
ENDBRANCH   2   5
BRANCH   1  24
HETATM   24  C   UNL     1      43.397 -10.843   9.983  1.00  0.00     0.150 A 
HETATM   25  N   UNL     1      43.358 -10.931  11.333  1.00  0.00    -0.165 NA
HETATM   26  N   UNL     1      42.314 -10.156  11.666  1.00  0.00    -0.240 N 
HETATM   27  C   UNL     1      41.618  -9.662  10.599  1.00  0.00     0.123 A 
HETATM   28  C   UNL     1      41.930  -9.941  13.048  1.00  0.00     0.221 C 
HETATM   29  N   UNL     1      40.464  -8.981  10.765  1.00  0.00    -0.371 N 
HETATM   30  C   UNL     1      42.331 -10.038   9.488  1.00  0.00     0.089 A 
HETATM   31  C   UNL     1      39.949  -8.656  12.094  1.00  0.00     0.081 C 
HETATM   32  H   UNL     1      40.043  -8.483   9.981  1.00  0.00     0.161 HD
HETATM   33  C   UNL     1      38.424  -8.608  12.041  1.00  0.00     0.032 C 
HETATM   34  C   UNL     1      40.413  -9.707  13.120  1.00  0.00     0.061 C 
BRANCH  28  35
HETATM   35  C   UNL     1      42.727  -8.794  13.627  1.00  0.00     0.409 C 
HETATM   36  F   UNL     1      42.059  -8.136  14.600  1.00  0.00    -0.169 F 
HETATM   37  F   UNL     1      43.922  -9.168  14.134  1.00  0.00    -0.169 F 
HETATM   38  F   UNL     1      42.988  -7.879  12.656  1.00  0.00    -0.169 F 
ENDBRANCH  28  35
ENDBRANCH   1  24
TORSDOF 8
ENDMDL
MODEL 5
REMARK VINA RESULT:      -9.7      6.479      9.931
REMARK  8 active torsions:
REMARK  status: ('A' for Active; 'I' for Inactive)
REMARK    1  A    between atoms: C_7  and  C_8 
REMARK       I    between atoms: C_8  and  N_9 
REMARK    2  A    between atoms: N_9  and  N_10 
REMARK    3  A    between atoms: N_10  and  C_11 
REMARK    4  A    between atoms: C_11  and  N_12 
REMARK    5  A    between atoms: N_12  and  C_13 
REMARK    6  A    between atoms: N_15  and  C_16 
REMARK    7  A    between atoms: C_16  and  C_17 
REMARK    8  A    between atoms: C_29  and  C_30 
ROOT
HETATM    1  C   UNL     1      41.480 -15.317   2.458  1.00  0.00     0.290 C 
HETATM    2  N   UNL     1      40.383 -15.470   3.282  1.00  0.00    -0.262 N 
HETATM    3  O   UNL     1      42.647 -15.291   2.838  1.00  0.00    -0.264 OA
HETATM    4  H   UNL     1      39.475 -15.611   2.840  1.00  0.00     0.190 HD
ENDROOT
BRANCH   2   5
HETATM    5  N   UNL     1      40.534 -15.840   4.616  1.00  0.00    -0.273 N 
HETATM    6  H   UNL     1      40.604 -16.840   4.830  1.00  0.00     0.189 HD
BRANCH   5   7
HETATM    7  C   UNL     1      40.913 -14.940   5.578  1.00  0.00     0.192 C 
HETATM    8  S   UNL     1      40.120 -13.495   5.899  1.00  0.00    -0.039 SA
BRANCH   7   9
HETATM    9  N   UNL     1      42.026 -15.238   6.313  1.00  0.00    -0.315 N 
HETATM   10  H   UNL     1      42.458 -14.458   6.790  1.00  0.00     0.170 HD
BRANCH   9  11
HETATM   11  C   UNL     1      42.679 -16.450   6.392  1.00  0.00     0.151 A 
HETATM   12  N   UNL     1      43.682 -16.818   5.588  1.00  0.00    -0.154 NA
HETATM   13  N   UNL     1      44.043 -18.037   6.041  1.00  0.00    -0.275 N 
HETATM   14  C   UNL     1      43.286 -18.463   7.093  1.00  0.00     0.116 A 
HETATM   15  C   UNL     1      42.384 -17.455   7.340  1.00  0.00     0.071 A 
BRANCH  13  16
HETATM   16  C   UNL     1      45.100 -18.782   5.368  1.00  0.00     0.192 C 
BRANCH  16  17
HETATM   17  C   UNL     1      44.580 -19.514   4.164  1.00  0.00     0.000 A 
HETATM   18  C   UNL     1      44.825 -20.880   4.010  1.00  0.00     0.124 A 
HETATM   19  F   UNL     1      45.514 -21.542   4.950  1.00  0.00    -0.205 F 
HETATM   20  C   UNL     1      44.362 -21.579   2.899  1.00  0.00     0.043 A 
HETATM   21  C   UNL     1      43.643 -20.907   1.912  1.00  0.00     0.003 A 
HETATM   22  C   UNL     1      43.396 -19.539   2.043  1.00  0.00     0.001 A 
HETATM   23  C   UNL     1      43.866 -18.843   3.160  1.00  0.00     0.012 A 
ENDBRANCH  16  17
ENDBRANCH  13  16
ENDBRANCH   9  11
ENDBRANCH   7   9
ENDBRANCH   5   7
ENDBRANCH   2   5
BRANCH   1  24
HETATM   24  C   UNL     1      41.090 -15.192   1.044  1.00  0.00     0.150 A 
HETATM   25  N   UNL     1      40.393 -14.122   0.596  1.00  0.00    -0.165 NA
HETATM   26  N   UNL     1      40.248 -14.371  -0.715  1.00  0.00    -0.240 N 
HETATM   27  C   UNL     1      40.721 -15.589  -1.111  1.00  0.00     0.123 A 
HETATM   28  C   UNL     1      39.572 -13.442  -1.600  1.00  0.00     0.221 C 
HETATM   29  N   UNL     1      40.526 -16.047  -2.366  1.00  0.00    -0.371 N 
HETATM   30  C   UNL     1      41.330 -16.126  -0.004  1.00  0.00     0.089 A 
HETATM   31  C   UNL     1      39.884 -15.225  -3.391  1.00  0.00     0.081 C 
HETATM   32  H   UNL     1      41.017 -16.878  -2.694  1.00  0.00     0.161 HD
HETATM   33  C   UNL     1      39.139 -16.134  -4.366  1.00  0.00     0.032 C 
HETATM   34  C   UNL     1      38.908 -14.225  -2.743  1.00  0.00     0.061 C 
BRANCH  28  35
HETATM   35  C   UNL     1      40.554 -12.403  -2.097  1.00  0.00     0.409 C 
HETATM   36  F   UNL     1      41.833 -12.834  -2.054  1.00  0.00    -0.169 F 
HETATM   37  F   UNL     1      40.306 -11.987  -3.358  1.00  0.00    -0.169 F 
HETATM   38  F   UNL     1      40.494 -11.299  -1.307  1.00  0.00    -0.169 F 
ENDBRANCH  28  35
ENDBRANCH   1  24
TORSDOF 8
ENDMDL
MODEL 6
REMARK VINA RESULT:      -9.6      6.440      9.647
REMARK  8 active torsions:
REMARK  status: ('A' for Active; 'I' for Inactive)
REMARK    1  A    between atoms: C_7  and  C_8 
REMARK       I    between atoms: C_8  and  N_9 
REMARK    2  A    between atoms: N_9  and  N_10 
REMARK    3  A    between atoms: N_10  and  C_11 
REMARK    4  A    between atoms: C_11  and  N_12 
REMARK    5  A    between atoms: N_12  and  C_13 
REMARK    6  A    between atoms: N_15  and  C_16 
REMARK    7  A    between atoms: C_16  and  C_17 
REMARK    8  A    between atoms: C_29  and  C_30 
ROOT
HETATM    1  C   UNL     1      42.855 -15.092   2.323  1.00  0.00     0.290 C 
HETATM    2  N   UNL     1      43.091 -13.954   3.069  1.00  0.00    -0.262 N 
HETATM    3  O   UNL     1      43.173 -16.230   2.656  1.00  0.00    -0.264 OA
HETATM    4  H   UNL     1      42.664 -13.083   2.754  1.00  0.00     0.190 HD
ENDROOT
BRANCH   2   5
HETATM    5  N   UNL     1      43.520 -14.039   4.392  1.00  0.00    -0.273 N 
HETATM    6  H   UNL     1      44.517 -13.895   4.582  1.00  0.00     0.189 HD
BRANCH   5   7
HETATM    7  C   UNL     1      42.641 -13.980   5.442  1.00  0.00     0.192 C 
HETATM    8  S   UNL     1      41.613 -12.689   5.754  1.00  0.00    -0.039 SA
BRANCH   7   9
HETATM    9  N   UNL     1      42.614 -15.043   6.300  1.00  0.00    -0.315 N 
HETATM   10  H   UNL     1      42.497 -14.814   7.277  1.00  0.00     0.170 HD
BRANCH   9  11
HETATM   11  C   UNL     1      42.833 -16.371   5.997  1.00  0.00     0.151 A 
HETATM   12  N   UNL     1      44.042 -16.916   5.832  1.00  0.00    -0.154 NA
HETATM   13  N   UNL     1      43.791 -18.221   5.597  1.00  0.00    -0.275 N 
HETATM   14  C   UNL     1      42.459 -18.516   5.585  1.00  0.00     0.116 A 
HETATM   15  C   UNL     1      41.809 -17.331   5.835  1.00  0.00     0.071 A 
BRANCH  13  16
HETATM   16  C   UNL     1      44.891 -19.137   5.323  1.00  0.00     0.192 C 
BRANCH  16  17
HETATM   17  C   UNL     1      44.579 -20.048   4.169  1.00  0.00     0.000 A 
HETATM   18  C   UNL     1      44.752 -21.428   4.293  1.00  0.00     0.124 A 
HETATM   19  F   UNL     1      45.185 -21.941   5.454  1.00  0.00    -0.205 F 
HETATM   20  C   UNL     1      44.479 -22.291   3.236  1.00  0.00     0.043 A 
HETATM   21  C   UNL     1      44.026 -21.773   2.024  1.00  0.00     0.003 A 
HETATM   22  C   UNL     1      43.856 -20.396   1.876  1.00  0.00     0.001 A 
HETATM   23  C   UNL     1      44.135 -19.535   2.941  1.00  0.00     0.012 A 
ENDBRANCH  16  17
ENDBRANCH  13  16
ENDBRANCH   9  11
ENDBRANCH   7   9
ENDBRANCH   5   7
ENDBRANCH   2   5
BRANCH   1  24
HETATM   24  C   UNL     1      42.160 -14.785   1.062  1.00  0.00     0.150 A 
HETATM   25  N   UNL     1      42.078 -13.519   0.591  1.00  0.00    -0.165 NA
HETATM   26  N   UNL     1      41.396 -13.656  -0.557  1.00  0.00    -0.240 N 
HETATM   27  C   UNL     1      40.946 -14.924  -0.793  1.00  0.00     0.123 A 
HETATM   28  C   UNL     1      41.107 -12.524  -1.415  1.00  0.00     0.221 C 
HETATM   29  N   UNL     1      40.127 -15.198  -1.832  1.00  0.00    -0.371 N 
HETATM   30  C   UNL     1      41.476 -15.697   0.208  1.00  0.00     0.089 A 
HETATM   31  C   UNL     1      39.758 -14.174  -2.809  1.00  0.00     0.081 C 
HETATM   32  H   UNL     1      39.930 -16.164  -2.091  1.00  0.00     0.161 HD
HETATM   33  C   UNL     1      38.362 -14.478  -3.347  1.00  0.00     0.032 C 
HETATM   34  C   UNL     1      39.787 -12.778  -2.159  1.00  0.00     0.061 C 
BRANCH  28  35
HETATM   35  C   UNL     1      42.269 -12.284  -2.353  1.00  0.00     0.409 C 
HETATM   36  F   UNL     1      43.294 -11.637  -1.757  1.00  0.00    -0.169 F 
HETATM   37  F   UNL     1      42.763 -13.416  -2.900  1.00  0.00    -0.169 F 
HETATM   38  F   UNL     1      41.870 -11.498  -3.388  1.00  0.00    -0.169 F 
ENDBRANCH  28  35
ENDBRANCH   1  24
TORSDOF 8
ENDMDL
MODEL 7
REMARK VINA RESULT:      -9.5      6.515      9.962
REMARK  8 active torsions:
REMARK  status: ('A' for Active; 'I' for Inactive)
REMARK    1  A    between atoms: C_7  and  C_8 
REMARK       I    between atoms: C_8  and  N_9 
REMARK    2  A    between atoms: N_9  and  N_10 
REMARK    3  A    between atoms: N_10  and  C_11 
REMARK    4  A    between atoms: C_11  and  N_12 
REMARK    5  A    between atoms: N_12  and  C_13 
REMARK    6  A    between atoms: N_15  and  C_16 
REMARK    7  A    between atoms: C_16  and  C_17 
REMARK    8  A    between atoms: C_29  and  C_30 
ROOT
HETATM    1  C   UNL     1      42.575 -13.295   2.396  1.00  0.00     0.290 C 
HETATM    2  N   UNL     1      41.843 -12.293   3.002  1.00  0.00    -0.262 N 
HETATM    3  O   UNL     1      43.511 -13.895   2.915  1.00  0.00    -0.264 OA
HETATM    4  H   UNL     1      41.006 -11.961   2.524  1.00  0.00     0.190 HD
ENDROOT
BRANCH   2   5
HETATM    5  N   UNL     1      41.972 -12.036   4.366  1.00  0.00    -0.273 N 
HETATM    6  H   UNL     1      42.561 -11.247   4.650  1.00  0.00     0.189 HD
BRANCH   5   7
HETATM    7  C   UNL     1      41.108 -12.569   5.287  1.00  0.00     0.192 C 
HETATM    8  S   UNL     1      39.475 -12.193   5.394  1.00  0.00    -0.039 SA
BRANCH   7   9
HETATM    9  N   UNL     1      41.622 -13.459   6.188  1.00  0.00    -0.315 N 
HETATM   10  H   UNL     1      41.918 -13.066   7.071  1.00  0.00     0.170 HD
BRANCH   9  11
HETATM   11  C   UNL     1      41.876 -14.800   5.991  1.00  0.00     0.151 A 
HETATM   12  N   UNL     1      43.100 -15.325   5.872  1.00  0.00    -0.154 NA
HETATM   13  N   UNL     1      42.884 -16.651   5.741  1.00  0.00    -0.275 N 
HETATM   14  C   UNL     1      41.560 -16.981   5.749  1.00  0.00     0.116 A 
HETATM   15  C   UNL     1      40.878 -15.796   5.903  1.00  0.00     0.071 A 
BRANCH  13  16
HETATM   16  C   UNL     1      44.008 -17.556   5.542  1.00  0.00     0.192 C 
BRANCH  16  17
HETATM   17  C   UNL     1      43.938 -18.243   4.207  1.00  0.00     0.000 A 
HETATM   18  C   UNL     1      44.187 -19.613   4.105  1.00  0.00     0.124 A 
HETATM   19  F   UNL     1      44.475 -20.319   5.207  1.00  0.00    -0.205 F 
HETATM   20  C   UNL     1      44.137 -20.269   2.879  1.00  0.00     0.043 A 
HETATM   21  C   UNL     1      43.836 -19.549   1.724  1.00  0.00     0.003 A 
HETATM   22  C   UNL     1      43.594 -18.177   1.804  1.00  0.00     0.001 A 
HETATM   23  C   UNL     1      43.649 -17.524   3.038  1.00  0.00     0.012 A 
ENDBRANCH  16  17
ENDBRANCH  13  16
ENDBRANCH   9  11
ENDBRANCH   7   9
ENDBRANCH   5   7
ENDBRANCH   2   5
BRANCH   1  24
HETATM   24  C   UNL     1      42.095 -13.573   1.032  1.00  0.00     0.150 A 
HETATM   25  N   UNL     1      41.866 -12.576   0.146  1.00  0.00    -0.165 NA
HETATM   26  N   UNL     1      41.461 -13.224  -0.957  1.00  0.00    -0.240 N 
HETATM   27  C   UNL     1      41.318 -14.573  -0.794  1.00  0.00     0.123 A 
HETATM   28  C   UNL     1      41.135 -12.520  -2.182  1.00  0.00     0.221 C 
HETATM   29  N   UNL     1      40.787 -15.347  -1.765  1.00  0.00    -0.371 N 
HETATM   30  C   UNL     1      41.779 -14.843   0.470  1.00  0.00     0.089 A 
HETATM   31  C   UNL     1      40.427 -14.799  -3.072  1.00  0.00     0.081 C 
HETATM   32  H   UNL     1      40.833 -16.363  -1.696  1.00  0.00     0.161 HD
HETATM   33  C   UNL     1      39.248 -15.588  -3.637  1.00  0.00     0.032 C 
HETATM   34  C   UNL     1      40.060 -13.309  -2.946  1.00  0.00     0.061 C 
BRANCH  28  35
HETATM   35  C   UNL     1      42.390 -12.304  -2.997  1.00  0.00     0.409 C 
HETATM   36  F   UNL     1      43.316 -13.267  -2.793  1.00  0.00    -0.169 F 
HETATM   37  F   UNL     1      42.164 -12.230  -4.327  1.00  0.00    -0.169 F 
HETATM   38  F   UNL     1      42.974 -11.130  -2.639  1.00  0.00    -0.169 F 
ENDBRANCH  28  35
ENDBRANCH   1  24
TORSDOF 8
ENDMDL
MODEL 8
REMARK VINA RESULT:      -9.1      6.556     10.152
REMARK  8 active torsions:
REMARK  status: ('A' for Active; 'I' for Inactive)
REMARK    1  A    between atoms: C_7  and  C_8 
REMARK       I    between atoms: C_8  and  N_9 
REMARK    2  A    between atoms: N_9  and  N_10 
REMARK    3  A    between atoms: N_10  and  C_11 
REMARK    4  A    between atoms: C_11  and  N_12 
REMARK    5  A    between atoms: N_12  and  C_13 
REMARK    6  A    between atoms: N_15  and  C_16 
REMARK    7  A    between atoms: C_16  and  C_17 
REMARK    8  A    between atoms: C_29  and  C_30 
ROOT
HETATM    1  C   UNL     1      42.226 -13.381   2.135  1.00  0.00     0.290 C 
HETATM    2  N   UNL     1      41.854 -12.326   2.945  1.00  0.00    -0.262 N 
HETATM    3  O   UNL     1      43.171 -14.134   2.350  1.00  0.00    -0.264 OA
HETATM    4  H   UNL     1      40.974 -11.855   2.736  1.00  0.00     0.190 HD
ENDROOT
BRANCH   2   5
HETATM    5  N   UNL     1      42.403 -12.169   4.215  1.00  0.00    -0.273 N 
HETATM    6  H   UNL     1      43.153 -11.479   4.331  1.00  0.00     0.189 HD
BRANCH   5   7
HETATM    7  C   UNL     1      41.775 -12.643   5.338  1.00  0.00     0.192 C 
HETATM    8  S   UNL     1      40.140 -12.450   5.669  1.00  0.00    -0.039 SA
BRANCH   7   9
HETATM    9  N   UNL     1      42.542 -13.304   6.255  1.00  0.00    -0.315 N 
HETATM   10  H   UNL     1      42.879 -12.747   7.027  1.00  0.00     0.170 HD
BRANCH   9  11
HETATM   11  C   UNL     1      42.990 -14.608   6.189  1.00  0.00     0.151 A 
HETATM   12  N   UNL     1      42.508 -15.527   5.348  1.00  0.00    -0.154 NA
HETATM   13  N   UNL     1      43.252 -16.626   5.591  1.00  0.00    -0.275 N 
HETATM   14  C   UNL     1      44.177 -16.439   6.577  1.00  0.00     0.116 A 
HETATM   15  C   UNL     1      44.025 -15.136   6.991  1.00  0.00     0.071 A 
BRANCH  13  16
HETATM   16  C   UNL     1      42.979 -17.866   4.876  1.00  0.00     0.192 C 
BRANCH  16  17
HETATM   17  C   UNL     1      42.904 -17.645   3.392  1.00  0.00     0.000 A 
HETATM   18  C   UNL     1      41.674 -17.407   2.775  1.00  0.00     0.124 A 
HETATM   19  F   UNL     1      40.558 -17.363   3.516  1.00  0.00    -0.205 F 
HETATM   20  C   UNL     1      41.578 -17.209   1.401  1.00  0.00     0.043 A 
HETATM   21  C   UNL     1      42.730 -17.251   0.617  1.00  0.00     0.003 A 
HETATM   22  C   UNL     1      43.968 -17.496   1.213  1.00  0.00     0.001 A 
HETATM   23  C   UNL     1      44.056 -17.698   2.593  1.00  0.00     0.012 A 
ENDBRANCH  16  17
ENDBRANCH  13  16
ENDBRANCH   9  11
ENDBRANCH   7   9
ENDBRANCH   5   7
ENDBRANCH   2   5
BRANCH   1  24
HETATM   24  C   UNL     1      41.341 -13.511   0.966  1.00  0.00     0.150 A 
HETATM   25  N   UNL     1      41.840 -13.624  -0.288  1.00  0.00    -0.165 NA
HETATM   26  N   UNL     1      40.742 -13.731  -1.052  1.00  0.00    -0.240 N 
HETATM   27  C   UNL     1      39.567 -13.587  -0.370  1.00  0.00     0.123 A 
HETATM   28  C   UNL     1      40.824 -13.906  -2.489  1.00  0.00     0.221 C 
HETATM   29  N   UNL     1      38.381 -13.530  -1.014  1.00  0.00    -0.371 N 
HETATM   30  C   UNL     1      39.917 -13.503   0.954  1.00  0.00     0.089 A 
HETATM   31  C   UNL     1      38.285 -13.714  -2.461  1.00  0.00     0.081 C 
HETATM   32  H   UNL     1      37.508 -13.584  -0.491  1.00  0.00     0.161 HD
HETATM   33  C   UNL     1      37.106 -12.900  -2.991  1.00  0.00     0.032 C 
HETATM   34  C   UNL     1      39.590 -13.268  -3.146  1.00  0.00     0.061 C 
BRANCH  28  35
HETATM   35  C   UNL     1      40.968 -15.375  -2.818  1.00  0.00     0.409 C 
HETATM   36  F   UNL     1      40.818 -16.168  -1.735  1.00  0.00    -0.169 F 
HETATM   37  F   UNL     1      40.100 -15.804  -3.761  1.00  0.00    -0.169 F 
HETATM   38  F   UNL     1      42.214 -15.618  -3.302  1.00  0.00    -0.169 F 
ENDBRANCH  28  35
ENDBRANCH   1  24
TORSDOF 8
ENDMDL
MODEL 9
REMARK VINA RESULT:      -9.0      6.802     10.249
REMARK  8 active torsions:
REMARK  status: ('A' for Active; 'I' for Inactive)
REMARK    1  A    between atoms: C_7  and  C_8 
REMARK       I    between atoms: C_8  and  N_9 
REMARK    2  A    between atoms: N_9  and  N_10 
REMARK    3  A    between atoms: N_10  and  C_11 
REMARK    4  A    between atoms: C_11  and  N_12 
REMARK    5  A    between atoms: N_12  and  C_13 
REMARK    6  A    between atoms: N_15  and  C_16 
REMARK    7  A    between atoms: C_16  and  C_17 
REMARK    8  A    between atoms: C_29  and  C_30 
ROOT
HETATM    1  C   UNL     1      41.307 -14.655   1.991  1.00  0.00     0.290 C 
HETATM    2  N   UNL     1      40.200 -14.555   2.811  1.00  0.00    -0.262 N 
HETATM    3  O   UNL     1      42.404 -15.081   2.340  1.00  0.00    -0.264 OA
HETATM    4  H   UNL     1      39.309 -14.313   2.378  1.00  0.00     0.190 HD
ENDROOT
BRANCH   2   5
HETATM    5  N   UNL     1      40.183 -15.153   4.069  1.00  0.00    -0.273 N 
HETATM    6  H   UNL     1      40.047 -16.168   4.114  1.00  0.00     0.189 HD
BRANCH   5   7
HETATM    7  C   UNL     1      40.657 -14.510   5.182  1.00  0.00     0.192 C 
HETATM    8  S   UNL     1      39.862 -13.261   5.974  1.00  0.00    -0.039 SA
BRANCH   7   9
HETATM    9  N   UNL     1      41.871 -14.908   5.668  1.00  0.00    -0.315 N 
HETATM   10  H   UNL     1      42.502 -14.164   5.932  1.00  0.00     0.170 HD
BRANCH   9  11
HETATM   11  C   UNL     1      42.365 -16.194   5.740  1.00  0.00     0.151 A 
HETATM   12  N   UNL     1      43.527 -16.585   5.207  1.00  0.00    -0.154 NA
HETATM   13  N   UNL     1      43.631 -17.886   5.549  1.00  0.00    -0.275 N 
HETATM   14  C   UNL     1      42.560 -18.339   6.264  1.00  0.00     0.116 A 
HETATM   15  C   UNL     1      41.715 -17.262   6.398  1.00  0.00     0.071 A 
BRANCH  13  16
HETATM   16  C   UNL     1      44.772 -18.670   5.096  1.00  0.00     0.192 C 
BRANCH  16  17
HETATM   17  C   UNL     1      44.402 -19.586   3.965  1.00  0.00     0.000 A 
HETATM   18  C   UNL     1      44.745 -20.939   4.011  1.00  0.00     0.124 A 
HETATM   19  F   UNL     1      45.395 -21.423   5.078  1.00  0.00    -0.205 F 
HETATM   20  C   UNL     1      44.421 -21.805   2.971  1.00  0.00     0.043 A 
HETATM   21  C   UNL     1      43.743 -21.318   1.854  1.00  0.00     0.003 A 
HETATM   22  C   UNL     1      43.400 -19.966   1.785  1.00  0.00     0.001 A 
HETATM   23  C   UNL     1      43.731 -19.102   2.831  1.00  0.00     0.012 A 
ENDBRANCH  16  17
ENDBRANCH  13  16
ENDBRANCH   9  11
ENDBRANCH   7   9
ENDBRANCH   5   7
ENDBRANCH   2   5
BRANCH   1  24
HETATM   24  C   UNL     1      41.018 -14.192   0.624  1.00  0.00     0.150 A 
HETATM   25  N   UNL     1      41.341 -14.940  -0.457  1.00  0.00    -0.165 NA
HETATM   26  N   UNL     1      40.914 -14.195  -1.490  1.00  0.00    -0.240 N 
HETATM   27  C   UNL     1      40.433 -12.967  -1.135  1.00  0.00     0.123 A 
HETATM   28  C   UNL     1      41.038 -14.648  -2.862  1.00  0.00     0.221 C 
HETATM   29  N   UNL     1      40.096 -12.048  -2.065  1.00  0.00    -0.371 N 
HETATM   30  C   UNL     1      40.429 -12.955   0.237  1.00  0.00     0.089 A 
HETATM   31  C   UNL     1      40.138 -12.351  -3.495  1.00  0.00     0.081 C 
HETATM   32  H   UNL     1      39.591 -11.204  -1.795  1.00  0.00     0.161 HD
HETATM   33  C   UNL     1      40.458 -11.074  -4.267  1.00  0.00     0.032 C 
HETATM   34  C   UNL     1      41.200 -13.429  -3.783  1.00  0.00     0.061 C 
BRANCH  28  35
HETATM   35  C   UNL     1      39.845 -15.502  -3.228  1.00  0.00     0.409 C 
HETATM   36  F   UNL     1      38.745 -15.195  -2.508  1.00  0.00    -0.169 F 
HETATM   37  F   UNL     1      39.511 -15.430  -4.535  1.00  0.00    -0.169 F 
HETATM   38  F   UNL     1      40.119 -16.808  -2.972  1.00  0.00    -0.169 F 
ENDBRANCH  28  35
ENDBRANCH   1  24
TORSDOF 8
ENDMDL
MODEL 10
REMARK VINA RESULT:      -9.0      2.668      3.247
REMARK  8 active torsions:
REMARK  status: ('A' for Active; 'I' for Inactive)
REMARK    1  A    between atoms: C_7  and  C_8 
REMARK       I    between atoms: C_8  and  N_9 
REMARK    2  A    between atoms: N_9  and  N_10 
REMARK    3  A    between atoms: N_10  and  C_11 
REMARK    4  A    between atoms: C_11  and  N_12 
REMARK    5  A    between atoms: N_12  and  C_13 
REMARK    6  A    between atoms: N_15  and  C_16 
REMARK    7  A    between atoms: C_16  and  C_17 
REMARK    8  A    between atoms: C_29  and  C_30 
ROOT
HETATM    1  C   UNL     1      40.095 -10.972   7.681  1.00  0.00     0.290 C 
HETATM    2  N   UNL     1      41.052 -11.873   7.257  1.00  0.00    -0.262 N 
HETATM    3  O   UNL     1      39.101 -10.646   7.038  1.00  0.00    -0.264 OA
HETATM    4  H   UNL     1      41.759 -12.165   7.931  1.00  0.00     0.190 HD
ENDROOT
BRANCH   2   5
HETATM    5  N   UNL     1      40.840 -12.668   6.133  1.00  0.00    -0.273 N 
HETATM    6  H   UNL     1      40.253 -12.289   5.383  1.00  0.00     0.189 HD
BRANCH   5   7
HETATM    7  C   UNL     1      41.627 -13.756   5.858  1.00  0.00     0.192 C 
HETATM    8  S   UNL     1      43.257 -13.876   6.241  1.00  0.00    -0.039 SA
BRANCH   7   9
HETATM    9  N   UNL     1      41.040 -14.809   5.214  1.00  0.00    -0.315 N 
HETATM   10  H   UNL     1      40.039 -14.746   5.093  1.00  0.00     0.170 HD
BRANCH   9  11
HETATM   11  C   UNL     1      41.640 -15.984   4.809  1.00  0.00     0.151 A 
HETATM   12  N   UNL     1      42.596 -16.059   3.879  1.00  0.00    -0.154 NA
HETATM   13  N   UNL     1      42.917 -17.369   3.834  1.00  0.00    -0.275 N 
HETATM   14  C   UNL     1      42.178 -18.131   4.691  1.00  0.00     0.116 A 
HETATM   15  C   UNL     1      41.332 -17.258   5.335  1.00  0.00     0.071 A 
BRANCH  13  16
HETATM   16  C   UNL     1      43.915 -17.843   2.884  1.00  0.00     0.192 C 
BRANCH  16  17
HETATM   17  C   UNL     1      44.029 -19.341   2.901  1.00  0.00     0.000 A 
HETATM   18  C   UNL     1      44.704 -19.985   3.941  1.00  0.00     0.124 A 
HETATM   19  F   UNL     1      45.240 -19.260   4.933  1.00  0.00    -0.205 F 
HETATM   20  C   UNL     1      44.832 -21.370   3.975  1.00  0.00     0.043 A 
HETATM   21  C   UNL     1      44.279 -22.138   2.951  1.00  0.00     0.003 A 
HETATM   22  C   UNL     1      43.609 -21.513   1.898  1.00  0.00     0.001 A 
HETATM   23  C   UNL     1      43.488 -20.121   1.869  1.00  0.00     0.012 A 
ENDBRANCH  16  17
ENDBRANCH  13  16
ENDBRANCH   9  11
ENDBRANCH   7   9
ENDBRANCH   5   7
ENDBRANCH   2   5
BRANCH   1  24
HETATM   24  C   UNL     1      40.400 -10.440   9.019  1.00  0.00     0.150 A 
HETATM   25  N   UNL     1      41.132 -11.147   9.911  1.00  0.00    -0.165 NA
HETATM   26  N   UNL     1      41.196 -10.334  10.977  1.00  0.00    -0.240 N 
HETATM   27  C   UNL     1      40.457  -9.192  10.857  1.00  0.00     0.123 A 
HETATM   28  C   UNL     1      41.931 -10.698  12.173  1.00  0.00     0.221 C 
HETATM   29  N   UNL     1      40.306  -8.339  11.893  1.00  0.00    -0.371 N 
HETATM   30  C   UNL     1      39.975  -9.198   9.572  1.00  0.00     0.089 A 
HETATM   31  C   UNL     1      40.999  -8.545  13.164  1.00  0.00     0.081 C 
HETATM   32  H   UNL     1      39.891  -7.419  11.746  1.00  0.00     0.161 HD
HETATM   33  C   UNL     1      40.144  -7.980  14.296  1.00  0.00     0.032 C 
HETATM   34  C   UNL     1      41.263 -10.045  13.393  1.00  0.00     0.061 C 
BRANCH  28  35
HETATM   35  C   UNL     1      43.383 -10.304  12.021  1.00  0.00     0.409 C 
HETATM   36  F   UNL     1      43.563  -9.321  11.113  1.00  0.00    -0.169 F 
HETATM   37  F   UNL     1      43.957  -9.903  13.176  1.00  0.00    -0.169 F 
HETATM   38  F   UNL     1      44.104 -11.369  11.582  1.00  0.00    -0.169 F 
ENDBRANCH  28  35
ENDBRANCH   1  24
TORSDOF 8
ENDMDL
