MODEL 1
REMARK VINA RESULT:      -9.8      0.000      0.000
REMARK  8 active torsions:
REMARK  status: ('A' for Active; 'I' for Inactive)
REMARK    1  A    between atoms: C_2  and  S_3 
REMARK    2  A    between atoms: S_3  and  C_4 
REMARK    3  A    between atoms: C_7  and  C_8 
REMARK    4  A    between atoms: C_8  and  C_9 
REMARK       I    between atoms: C_9  and  N_10 
REMARK    5  A    between atoms: N_10  and  C_11 
REMARK    6  A    between atoms: N_17  and  C_19 
REMARK    7  A    between atoms: C_19  and  C_20 
REMARK    8  A    between atoms: C_27  and  C_28 
REMARK       I    between atoms: C_28  and  N_29 
ROOT
HETATM    1  C   UNL     1      43.606 -14.797   7.149  1.00  0.00     0.093 A 
HETATM    2  S   UNL     1      43.656 -16.475   7.434  1.00  0.00    -0.074 SA
HETATM    3  C   UNL     1      42.767 -16.822   6.043  1.00  0.00     0.018 A 
HETATM    4  C   UNL     1      42.385 -15.682   5.365  1.00  0.00    -0.023 A 
HETATM    5  C   UNL     1      41.613 -15.768   4.073  1.00  0.00     0.068 C 
HETATM    6  C   UNL     1      41.075 -17.189   3.805  1.00  0.00     0.240 C 
HETATM    7  N   UNL     1      42.086 -18.276   4.159  1.00  0.00    -0.063 N 
HETATM    8  H   UNL     1      41.612 -19.175   4.016  1.00  0.00     0.280 HD
HETATM    9  C   UNL     1      42.448 -18.216   5.633  1.00  0.00     0.282 C 
HETATM   10  C   UNL     1      42.844 -14.480   6.029  1.00  0.00     0.073 A 
ENDROOT
BRANCH   1  11
HETATM   11  N   UNL     1      44.330 -13.921   7.948  1.00  0.00    -0.320 N 
HETATM   12  C   UNL     1      45.476 -13.221   7.592  1.00  0.00     0.226 C 
HETATM   13  O   UNL     1      46.122 -13.348   6.556  1.00  0.00    -0.273 OA
HETATM   14  H   UNL     1      43.981 -13.781   8.892  1.00  0.00     0.169 HD
BRANCH  12  15
HETATM   15  C   UNL     1      45.903 -12.220   8.656  1.00  0.00     0.141 C 
BRANCH  15  16
HETATM   16  C   UNL     1      44.792 -11.847   9.607  1.00  0.00    -0.049 A 
HETATM   17  C   UNL     1      43.751 -11.007   9.190  1.00  0.00     0.009 A 
HETATM   18  C   UNL     1      42.699 -10.696  10.056  1.00  0.00     0.019 A 
HETATM   19  C   UNL     1      42.660 -11.230  11.346  1.00  0.00     0.001 A 
HETATM   20  C   UNL     1      43.703 -12.058  11.770  1.00  0.00     0.019 A 
HETATM   21  C   UNL     1      44.756 -12.371  10.905  1.00  0.00     0.009 A 
BRANCH  19  22
HETATM   22  S   UNL     1      41.304 -10.792  12.418  1.00  0.00    -0.126 SA
BRANCH  22  23
HETATM   23  C   UNL     1      41.879  -9.188  13.112  1.00  0.00     0.044 C 
HETATM   24  C   UNL     1      41.822  -8.084  12.060  1.00  0.00     0.021 C 
HETATM   25  C   UNL     1      43.310  -9.372  13.615  1.00  0.00     0.021 C 
ENDBRANCH  22  23
ENDBRANCH  19  22
ENDBRANCH  15  16
ENDBRANCH  12  15
ENDBRANCH   1  11
BRANCH  10  26
HETATM   26  C   UNL     1      42.588 -13.126   5.537  1.00  0.00     0.252 C 
HETATM   27  N   UNL     1      41.807 -12.331   6.329  1.00  0.00    -0.366 N 
HETATM   28  H   UNL     1      41.145 -12.753   6.971  1.00  0.00     0.159 HD
HETATM   29  H   UNL     1      41.503 -11.466   5.895  1.00  0.00     0.159 HD
HETATM   30  O   UNL     1      42.996 -12.732   4.452  1.00  0.00    -0.268 OA
ENDBRANCH  10  26
BRANCH   7  31
HETATM   31  C   UNL     1      43.306 -18.317   3.265  1.00  0.00     0.273 C 
BRANCH  31  32
HETATM   32  C   UNL     1      43.786 -19.721   3.013  1.00  0.00    -0.033 A 
HETATM   33  C   UNL     1      43.447 -20.394   1.830  1.00  0.00     0.009 A 
HETATM   34  C   UNL     1      43.876 -21.705   1.615  1.00  0.00     0.001 A 
HETATM   35  C   UNL     1      44.649 -22.353   2.576  1.00  0.00     0.000 A 
HETATM   36  C   UNL     1      44.996 -21.694   3.753  1.00  0.00     0.001 A 
HETATM   37  C   UNL     1      44.567 -20.385   3.972  1.00  0.00     0.009 A 
ENDBRANCH  31  32
ENDBRANCH   7  31
TORSDOF 8
ENDMDL
MODEL 2
REMARK VINA RESULT:      -9.0      2.186      2.971
REMARK  8 active torsions:
REMARK  status: ('A' for Active; 'I' for Inactive)
REMARK    1  A    between atoms: C_2  and  S_3 
REMARK    2  A    between atoms: S_3  and  C_4 
REMARK    3  A    between atoms: C_7  and  C_8 
REMARK    4  A    between atoms: C_8  and  C_9 
REMARK       I    between atoms: C_9  and  N_10 
REMARK    5  A    between atoms: N_10  and  C_11 
REMARK    6  A    between atoms: N_17  and  C_19 
REMARK    7  A    between atoms: C_19  and  C_20 
REMARK    8  A    between atoms: C_27  and  C_28 
REMARK       I    between atoms: C_28  and  N_29 
ROOT
HETATM    1  C   UNL     1      41.647 -13.512   4.859  1.00  0.00     0.093 A 
HETATM    2  S   UNL     1      41.522 -14.967   5.735  1.00  0.00    -0.074 SA
HETATM    3  C   UNL     1      41.448 -15.902   4.332  1.00  0.00     0.018 A 
HETATM    4  C   UNL     1      41.476 -15.134   3.186  1.00  0.00    -0.023 A 
HETATM    5  C   UNL     1      41.457 -15.774   1.821  1.00  0.00     0.068 C 
HETATM    6  C   UNL     1      41.106 -17.275   1.882  1.00  0.00     0.240 C 
HETATM    7  N   UNL     1      41.785 -17.990   3.047  1.00  0.00    -0.063 N 
HETATM    8  H   UNL     1      41.434 -18.954   3.043  1.00  0.00     0.280 HD
HETATM    9  C   UNL     1      41.357 -17.386   4.373  1.00  0.00     0.282 C 
HETATM   10  C   UNL     1      41.557 -13.719   3.486  1.00  0.00     0.073 A 
ENDROOT
BRANCH   1  11
HETATM   11  N   UNL     1      41.884 -12.310   5.513  1.00  0.00    -0.320 N 
HETATM   12  C   UNL     1      40.963 -11.299   5.760  1.00  0.00     0.226 C 
HETATM   13  O   UNL     1      39.813 -11.234   5.334  1.00  0.00    -0.273 OA
HETATM   14  H   UNL     1      42.832 -12.157   5.844  1.00  0.00     0.169 HD
BRANCH  12  15
HETATM   15  C   UNL     1      41.524 -10.203   6.653  1.00  0.00     0.141 C 
BRANCH  15  16
HETATM   16  C   UNL     1      41.395 -10.506   8.126  1.00  0.00    -0.049 A 
HETATM   17  C   UNL     1      42.534 -10.589   8.938  1.00  0.00     0.009 A 
HETATM   18  C   UNL     1      42.413 -10.827  10.310  1.00  0.00     0.019 A 
HETATM   19  C   UNL     1      41.154 -10.969  10.897  1.00  0.00     0.001 A 
HETATM   20  C   UNL     1      40.016 -10.900  10.088  1.00  0.00     0.019 A 
HETATM   21  C   UNL     1      40.134 -10.661   8.716  1.00  0.00     0.009 A 
BRANCH  19  22
HETATM   22  S   UNL     1      41.052 -11.285  12.649  1.00  0.00    -0.126 SA
BRANCH  22  23
HETATM   23  C   UNL     1      41.988  -9.862  13.342  1.00  0.00     0.044 C 
HETATM   24  C   UNL     1      42.285 -10.070  14.824  1.00  0.00     0.021 C 
HETATM   25  C   UNL     1      41.154  -8.599  13.137  1.00  0.00     0.021 C 
ENDBRANCH  22  23
ENDBRANCH  19  22
ENDBRANCH  15  16
ENDBRANCH  12  15
ENDBRANCH   1  11
BRANCH  10  26
HETATM   26  C   UNL     1      41.604 -12.670   2.468  1.00  0.00     0.252 C 
HETATM   27  N   UNL     1      40.452 -11.958   2.278  1.00  0.00    -0.366 N 
HETATM   28  H   UNL     1      39.558 -12.374   2.513  1.00  0.00     0.159 HD
HETATM   29  H   UNL     1      40.453 -11.358   1.460  1.00  0.00     0.159 HD
HETATM   30  O   UNL     1      42.595 -12.466   1.778  1.00  0.00    -0.268 OA
ENDBRANCH  10  26
BRANCH   7  31
HETATM   31  C   UNL     1      43.288 -18.109   2.922  1.00  0.00     0.273 C 
BRANCH  31  32
HETATM   32  C   UNL     1      43.753 -19.540   2.928  1.00  0.00    -0.033 A 
HETATM   33  C   UNL     1      43.502 -20.381   1.834  1.00  0.00     0.009 A 
HETATM   34  C   UNL     1      43.915 -21.714   1.858  1.00  0.00     0.001 A 
HETATM   35  C   UNL     1      44.585 -22.218   2.971  1.00  0.00     0.000 A 
HETATM   36  C   UNL     1      44.846 -21.391   4.061  1.00  0.00     0.001 A 
HETATM   37  C   UNL     1      44.431 -20.059   4.042  1.00  0.00     0.009 A 
ENDBRANCH  31  32
ENDBRANCH   7  31
TORSDOF 8
ENDMDL
MODEL 3
REMARK VINA RESULT:      -8.8      2.493      3.196
REMARK  8 active torsions:
REMARK  status: ('A' for Active; 'I' for Inactive)
REMARK    1  A    between atoms: C_2  and  S_3 
REMARK    2  A    between atoms: S_3  and  C_4 
REMARK    3  A    between atoms: C_7  and  C_8 
REMARK    4  A    between atoms: C_8  and  C_9 
REMARK       I    between atoms: C_9  and  N_10 
REMARK    5  A    between atoms: N_10  and  C_11 
REMARK    6  A    between atoms: N_17  and  C_19 
REMARK    7  A    between atoms: C_19  and  C_20 
REMARK    8  A    between atoms: C_27  and  C_28 
REMARK       I    between atoms: C_28  and  N_29 
ROOT
HETATM    1  C   UNL     1      41.094 -13.158   4.855  1.00  0.00     0.093 A 
HETATM    2  S   UNL     1      41.068 -14.660   5.657  1.00  0.00    -0.074 SA
HETATM    3  C   UNL     1      41.029 -15.525   4.209  1.00  0.00     0.018 A 
HETATM    4  C   UNL     1      40.995 -14.701   3.103  1.00  0.00    -0.023 A 
HETATM    5  C   UNL     1      40.994 -15.271   1.708  1.00  0.00     0.068 C 
HETATM    6  C   UNL     1      40.732 -16.791   1.696  1.00  0.00     0.240 C 
HETATM    7  N   UNL     1      41.469 -17.523   2.815  1.00  0.00    -0.063 N 
HETATM    8  H   UNL     1      41.175 -18.504   2.766  1.00  0.00     0.280 HD
HETATM    9  C   UNL     1      41.026 -17.013   4.175  1.00  0.00     0.282 C 
HETATM   10  C   UNL     1      40.997 -13.300   3.475  1.00  0.00     0.073 A 
ENDROOT
BRANCH   1  11
HETATM   11  N   UNL     1      41.269 -11.978   5.567  1.00  0.00    -0.320 N 
HETATM   12  C   UNL     1      40.301 -11.284   6.283  1.00  0.00     0.226 C 
HETATM   13  O   UNL     1      39.096 -11.521   6.308  1.00  0.00    -0.273 OA
HETATM   14  H   UNL     1      42.206 -11.584   5.561  1.00  0.00     0.169 HD
BRANCH  12  15
HETATM   15  C   UNL     1      40.882 -10.129   7.083  1.00  0.00     0.141 C 
BRANCH  15  16
HETATM   16  C   UNL     1      41.168 -10.481   8.522  1.00  0.00    -0.049 A 
HETATM   17  C   UNL     1      42.487 -10.597   8.978  1.00  0.00     0.009 A 
HETATM   18  C   UNL     1      42.754 -10.881  10.321  1.00  0.00     0.019 A 
HETATM   19  C   UNL     1      41.708 -11.037  11.234  1.00  0.00     0.001 A 
HETATM   20  C   UNL     1      40.390 -10.935  10.780  1.00  0.00     0.019 A 
HETATM   21  C   UNL     1      40.121 -10.650   9.438  1.00  0.00     0.009 A 
BRANCH  19  22
HETATM   22  S   UNL     1      42.098 -11.412  12.933  1.00  0.00    -0.126 SA
BRANCH  22  23
HETATM   23  C   UNL     1      42.102  -9.738  13.694  1.00  0.00     0.044 C 
HETATM   24  C   UNL     1      43.492  -9.111  13.632  1.00  0.00     0.021 C 
HETATM   25  C   UNL     1      41.643  -9.874  15.145  1.00  0.00     0.021 C 
ENDBRANCH  22  23
ENDBRANCH  19  22
ENDBRANCH  15  16
ENDBRANCH  12  15
ENDBRANCH   1  11
BRANCH  10  26
HETATM   26  C   UNL     1      40.967 -12.201   2.511  1.00  0.00     0.252 C 
HETATM   27  N   UNL     1      42.079 -12.049   1.731  1.00  0.00    -0.366 N 
HETATM   28  H   UNL     1      42.976 -12.389   2.059  1.00  0.00     0.159 HD
HETATM   29  H   UNL     1      42.109 -11.188   1.195  1.00  0.00     0.159 HD
HETATM   30  O   UNL     1      40.028 -11.418   2.433  1.00  0.00    -0.268 OA
ENDBRANCH  10  26
BRANCH   7  31
HETATM   31  C   UNL     1      42.975 -17.545   2.667  1.00  0.00     0.273 C 
BRANCH  31  32
HETATM   32  C   UNL     1      43.544 -18.931   2.805  1.00  0.00    -0.033 A 
HETATM   33  C   UNL     1      43.383 -19.878   1.784  1.00  0.00     0.009 A 
HETATM   34  C   UNL     1      43.894 -21.169   1.931  1.00  0.00     0.001 A 
HETATM   35  C   UNL     1      44.572 -21.525   3.095  1.00  0.00     0.000 A 
HETATM   36  C   UNL     1      44.743 -20.591   4.114  1.00  0.00     0.001 A 
HETATM   37  C   UNL     1      44.232 -19.301   3.973  1.00  0.00     0.009 A 
ENDBRANCH  31  32
ENDBRANCH   7  31
TORSDOF 8
ENDMDL
MODEL 4
REMARK VINA RESULT:      -8.8      3.573      4.776
REMARK  8 active torsions:
REMARK  status: ('A' for Active; 'I' for Inactive)
REMARK    1  A    between atoms: C_2  and  S_3 
REMARK    2  A    between atoms: S_3  and  C_4 
REMARK    3  A    between atoms: C_7  and  C_8 
REMARK    4  A    between atoms: C_8  and  C_9 
REMARK       I    between atoms: C_9  and  N_10 
REMARK    5  A    between atoms: N_10  and  C_11 
REMARK    6  A    between atoms: N_17  and  C_19 
REMARK    7  A    between atoms: C_19  and  C_20 
REMARK    8  A    between atoms: C_27  and  C_28 
REMARK       I    between atoms: C_28  and  N_29 
ROOT
HETATM    1  C   UNL     1      42.868 -14.130   4.983  1.00  0.00     0.093 A 
HETATM    2  S   UNL     1      43.436 -15.215   3.801  1.00  0.00    -0.074 SA
HETATM    3  C   UNL     1      41.928 -15.316   3.050  1.00  0.00     0.018 A 
HETATM    4  C   UNL     1      40.966 -14.570   3.699  1.00  0.00    -0.023 A 
HETATM    5  C   UNL     1      39.556 -14.492   3.171  1.00  0.00     0.068 C 
HETATM    6  C   UNL     1      39.282 -15.539   2.073  1.00  0.00     0.240 C 
HETATM    7  N   UNL     1      40.450 -15.689   1.100  1.00  0.00    -0.063 N 
HETATM    8  H   UNL     1      40.201 -16.451   0.460  1.00  0.00     0.280 HD
HETATM    9  C   UNL     1      41.704 -16.137   1.829  1.00  0.00     0.282 C 
HETATM   10  C   UNL     1      41.502 -13.894   4.863  1.00  0.00     0.073 A 
ENDROOT
BRANCH   1  11
HETATM   11  N   UNL     1      43.746 -13.539   5.882  1.00  0.00    -0.320 N 
HETATM   12  C   UNL     1      44.317 -14.131   7.002  1.00  0.00     0.226 C 
HETATM   13  O   UNL     1      44.050 -15.236   7.466  1.00  0.00    -0.273 OA
HETATM   14  H   UNL     1      43.994 -12.571   5.698  1.00  0.00     0.169 HD
BRANCH  12  15
HETATM   15  C   UNL     1      45.366 -13.246   7.659  1.00  0.00     0.141 C 
BRANCH  15  16
HETATM   16  C   UNL     1      44.805 -12.354   8.739  1.00  0.00    -0.049 A 
HETATM   17  C   UNL     1      45.557 -12.066   9.886  1.00  0.00     0.009 A 
HETATM   18  C   UNL     1      45.056 -11.205  10.867  1.00  0.00     0.019 A 
HETATM   19  C   UNL     1      43.805 -10.604  10.712  1.00  0.00     0.001 A 
HETATM   20  C   UNL     1      43.047 -10.898   9.575  1.00  0.00     0.019 A 
HETATM   21  C   UNL     1      43.546 -11.758   8.592  1.00  0.00     0.009 A 
BRANCH  19  22
HETATM   22  S   UNL     1      43.204  -9.524  11.997  1.00  0.00    -0.126 SA
BRANCH  22  23
HETATM   23  C   UNL     1      42.541 -10.729  13.219  1.00  0.00     0.044 C 
HETATM   24  C   UNL     1      41.171 -11.247  12.791  1.00  0.00     0.021 C 
HETATM   25  C   UNL     1      42.448 -10.030  14.574  1.00  0.00     0.021 C 
ENDBRANCH  22  23
ENDBRANCH  19  22
ENDBRANCH  15  16
ENDBRANCH  12  15
ENDBRANCH   1  11
BRANCH  10  26
HETATM   26  C   UNL     1      40.712 -13.031   5.741  1.00  0.00     0.252 C 
HETATM   27  N   UNL     1      39.811 -13.658   6.556  1.00  0.00    -0.366 N 
HETATM   28  H   UNL     1      39.438 -14.563   6.293  1.00  0.00     0.159 HD
HETATM   29  H   UNL     1      39.161 -13.038   7.028  1.00  0.00     0.159 HD
HETATM   30  O   UNL     1      40.802 -11.810   5.719  1.00  0.00    -0.268 OA
ENDBRANCH  10  26
BRANCH   7  31
HETATM   31  C   UNL     1      40.692 -14.485   0.217  1.00  0.00     0.273 C 
BRANCH  31  32
HETATM   32  C   UNL     1      40.193 -14.692  -1.187  1.00  0.00    -0.033 A 
HETATM   33  C   UNL     1      40.846 -15.575  -2.058  1.00  0.00     0.009 A 
HETATM   34  C   UNL     1      40.390 -15.743  -3.367  1.00  0.00     0.001 A 
HETATM   35  C   UNL     1      39.278 -15.034  -3.816  1.00  0.00     0.000 A 
HETATM   36  C   UNL     1      38.617 -14.158  -2.958  1.00  0.00     0.001 A 
HETATM   37  C   UNL     1      39.071 -13.986  -1.650  1.00  0.00     0.009 A 
ENDBRANCH  31  32
ENDBRANCH   7  31
TORSDOF 8
ENDMDL
MODEL 5
REMARK VINA RESULT:      -8.5      2.472      3.789
REMARK  8 active torsions:
REMARK  status: ('A' for Active; 'I' for Inactive)
REMARK    1  A    between atoms: C_2  and  S_3 
REMARK    2  A    between atoms: S_3  and  C_4 
REMARK    3  A    between atoms: C_7  and  C_8 
REMARK    4  A    between atoms: C_8  and  C_9 
REMARK       I    between atoms: C_9  and  N_10 
REMARK    5  A    between atoms: N_10  and  C_11 
REMARK    6  A    between atoms: N_17  and  C_19 
REMARK    7  A    between atoms: C_19  and  C_20 
REMARK    8  A    between atoms: C_27  and  C_28 
REMARK       I    between atoms: C_28  and  N_29 
ROOT
HETATM    1  C   UNL     1      41.188 -13.936   3.436  1.00  0.00     0.093 A 
HETATM    2  S   UNL     1      40.593 -14.571   1.972  1.00  0.00    -0.074 SA
HETATM    3  C   UNL     1      41.880 -15.651   1.822  1.00  0.00     0.018 A 
HETATM    4  C   UNL     1      42.797 -15.524   2.845  1.00  0.00    -0.023 A 
HETATM    5  C   UNL     1      44.006 -16.421   2.921  1.00  0.00     0.068 C 
HETATM    6  C   UNL     1      44.225 -17.222   1.621  1.00  0.00     0.240 C 
HETATM    7  N   UNL     1      42.921 -17.754   1.032  1.00  0.00    -0.063 N 
HETATM    8  H   UNL     1      43.164 -18.203   0.143  1.00  0.00     0.280 HD
HETATM    9  C   UNL     1      41.979 -16.612   0.690  1.00  0.00     0.282 C 
HETATM   10  C   UNL     1      42.416 -14.489   3.785  1.00  0.00     0.073 A 
ENDROOT
BRANCH   1  11
HETATM   11  N   UNL     1      40.438 -13.028   4.171  1.00  0.00    -0.320 N 
HETATM   12  C   UNL     1      39.823 -13.252   5.397  1.00  0.00     0.226 C 
HETATM   13  O   UNL     1      39.728 -14.325   5.985  1.00  0.00    -0.273 OA
HETATM   14  H   UNL     1      40.328 -12.102   3.766  1.00  0.00     0.169 HD
BRANCH  12  15
HETATM   15  C   UNL     1      39.233 -11.984   5.995  1.00  0.00     0.141 C 
BRANCH  15  16
HETATM   16  C   UNL     1      40.007 -11.465   7.182  1.00  0.00    -0.049 A 
HETATM   17  C   UNL     1      41.347 -11.080   7.044  1.00  0.00     0.009 A 
HETATM   18  C   UNL     1      42.053 -10.558   8.132  1.00  0.00     0.019 A 
HETATM   19  C   UNL     1      41.429 -10.397   9.371  1.00  0.00     0.001 A 
HETATM   20  C   UNL     1      40.096 -10.792   9.516  1.00  0.00     0.019 A 
HETATM   21  C   UNL     1      39.387 -11.313   8.429  1.00  0.00     0.009 A 
BRANCH  19  22
HETATM   22  S   UNL     1      42.375  -9.741  10.732  1.00  0.00    -0.126 SA
BRANCH  22  23
HETATM   23  C   UNL     1      42.637 -11.241  11.764  1.00  0.00     0.044 C 
HETATM   24  C   UNL     1      42.740 -10.879  13.243  1.00  0.00     0.021 C 
HETATM   25  C   UNL     1      43.919 -11.925  11.292  1.00  0.00     0.021 C 
ENDBRANCH  22  23
ENDBRANCH  19  22
ENDBRANCH  15  16
ENDBRANCH  12  15
ENDBRANCH   1  11
BRANCH  10  26
HETATM   26  C   UNL     1      43.198 -14.135   4.969  1.00  0.00     0.252 C 
HETATM   27  N   UNL     1      42.789 -14.687   6.152  1.00  0.00    -0.366 N 
HETATM   28  H   UNL     1      41.823 -14.972   6.268  1.00  0.00     0.159 HD
HETATM   29  H   UNL     1      43.233 -14.300   6.978  1.00  0.00     0.159 HD
HETATM   30  O   UNL     1      44.133 -13.347   4.930  1.00  0.00    -0.268 OA
ENDBRANCH  10  26
BRANCH   7  31
HETATM   31  C   UNL     1      42.251 -18.830   1.858  1.00  0.00     0.273 C 
BRANCH  31  32
HETATM   32  C   UNL     1      43.224 -19.869   2.346  1.00  0.00    -0.033 A 
HETATM   33  C   UNL     1      43.508 -21.005   1.574  1.00  0.00     0.009 A 
HETATM   34  C   UNL     1      44.393 -21.976   2.046  1.00  0.00     0.001 A 
HETATM   35  C   UNL     1      45.005 -21.819   3.288  1.00  0.00     0.000 A 
HETATM   36  C   UNL     1      44.735 -20.693   4.061  1.00  0.00     0.001 A 
HETATM   37  C   UNL     1      43.849 -19.722   3.595  1.00  0.00     0.009 A 
ENDBRANCH  31  32
ENDBRANCH   7  31
TORSDOF 8
ENDMDL
MODEL 6
REMARK VINA RESULT:      -8.4      5.916      9.615
REMARK  8 active torsions:
REMARK  status: ('A' for Active; 'I' for Inactive)
REMARK    1  A    between atoms: C_2  and  S_3 
REMARK    2  A    between atoms: S_3  and  C_4 
REMARK    3  A    between atoms: C_7  and  C_8 
REMARK    4  A    between atoms: C_8  and  C_9 
REMARK       I    between atoms: C_9  and  N_10 
REMARK    5  A    between atoms: N_10  and  C_11 
REMARK    6  A    between atoms: N_17  and  C_19 
REMARK    7  A    between atoms: C_19  and  C_20 
REMARK    8  A    between atoms: C_27  and  C_28 
REMARK       I    between atoms: C_28  and  N_29 
ROOT
HETATM    1  C   UNL     1      42.000 -14.252   1.365  1.00  0.00     0.093 A 
HETATM    2  S   UNL     1      41.614 -12.808   0.549  1.00  0.00    -0.074 SA
HETATM    3  C   UNL     1      41.151 -13.627  -0.853  1.00  0.00     0.018 A 
HETATM    4  C   UNL     1      41.317 -14.992  -0.744  1.00  0.00    -0.023 A 
HETATM    5  C   UNL     1      40.929 -15.914  -1.871  1.00  0.00     0.068 C 
HETATM    6  C   UNL     1      40.643 -15.151  -3.181  1.00  0.00     0.240 C 
HETATM    7  N   UNL     1      39.859 -13.862  -2.951  1.00  0.00    -0.063 N 
HETATM    8  H   UNL     1      39.786 -13.398  -3.863  1.00  0.00     0.280 HD
HETATM    9  C   UNL     1      40.634 -12.914  -2.052  1.00  0.00     0.282 C 
HETATM   10  C   UNL     1      41.851 -15.370   0.548  1.00  0.00     0.073 A 
ENDROOT
BRANCH   1  11
HETATM   11  N   UNL     1      42.344 -14.235   2.710  1.00  0.00    -0.320 N 
HETATM   12  C   UNL     1      41.477 -14.132   3.791  1.00  0.00     0.226 C 
HETATM   13  O   UNL     1      40.270 -13.910   3.747  1.00  0.00    -0.273 OA
HETATM   14  H   UNL     1      43.335 -14.306   2.922  1.00  0.00     0.169 HD
BRANCH  12  15
HETATM   15  C   UNL     1      42.182 -14.321   5.126  1.00  0.00     0.141 C 
BRANCH  15  16
HETATM   16  C   UNL     1      42.589 -15.750   5.390  1.00  0.00    -0.049 A 
HETATM   17  C   UNL     1      43.816 -16.040   6.000  1.00  0.00     0.009 A 
HETATM   18  C   UNL     1      44.175 -17.361   6.285  1.00  0.00     0.019 A 
HETATM   19  C   UNL     1      43.308 -18.412   5.981  1.00  0.00     0.001 A 
HETATM   20  C   UNL     1      42.088 -18.129   5.360  1.00  0.00     0.019 A 
HETATM   21  C   UNL     1      41.727 -16.809   5.075  1.00  0.00     0.009 A 
BRANCH  19  22
HETATM   22  S   UNL     1      43.816 -20.081   6.350  1.00  0.00    -0.126 SA
BRANCH  22  23
HETATM   23  C   UNL     1      44.903 -20.468   4.917  1.00  0.00     0.044 C 
HETATM   24  C   UNL     1      44.328 -19.897   3.623  1.00  0.00     0.021 C 
HETATM   25  C   UNL     1      45.035 -21.986   4.816  1.00  0.00     0.021 C 
ENDBRANCH  22  23
ENDBRANCH  19  22
ENDBRANCH  15  16
ENDBRANCH  12  15
ENDBRANCH   1  11
BRANCH  10  26
HETATM   26  C   UNL     1      42.128 -16.750   0.946  1.00  0.00     0.252 C 
HETATM   27  N   UNL     1      43.373 -17.228   0.648  1.00  0.00    -0.366 N 
HETATM   28  H   UNL     1      43.898 -16.824  -0.119  1.00  0.00     0.159 HD
HETATM   29  H   UNL     1      43.487 -18.228   0.776  1.00  0.00     0.159 HD
HETATM   30  O   UNL     1      41.283 -17.467   1.467  1.00  0.00    -0.268 OA
ENDBRANCH  10  26
BRANCH   7  31
HETATM   31  C   UNL     1      38.434 -14.066  -2.486  1.00  0.00     0.273 C 
BRANCH  31  32
HETATM   32  C   UNL     1      37.427 -13.595  -3.500  1.00  0.00    -0.033 A 
HETATM   33  C   UNL     1      37.236 -12.227  -3.740  1.00  0.00     0.009 A 
HETATM   34  C   UNL     1      36.281 -11.799  -4.664  1.00  0.00     0.001 A 
HETATM   35  C   UNL     1      35.513 -12.731  -5.359  1.00  0.00     0.000 A 
HETATM   36  C   UNL     1      35.698 -14.093  -5.133  1.00  0.00     0.001 A 
HETATM   37  C   UNL     1      36.648 -14.525  -4.207  1.00  0.00     0.009 A 
ENDBRANCH  31  32
ENDBRANCH   7  31
TORSDOF 8
ENDMDL
MODEL 7
REMARK VINA RESULT:      -8.4      4.805      8.724
REMARK  8 active torsions:
REMARK  status: ('A' for Active; 'I' for Inactive)
REMARK    1  A    between atoms: C_2  and  S_3 
REMARK    2  A    between atoms: S_3  and  C_4 
REMARK    3  A    between atoms: C_7  and  C_8 
REMARK    4  A    between atoms: C_8  and  C_9 
REMARK       I    between atoms: C_9  and  N_10 
REMARK    5  A    between atoms: N_10  and  C_11 
REMARK    6  A    between atoms: N_17  and  C_19 
REMARK    7  A    between atoms: C_19  and  C_20 
REMARK    8  A    between atoms: C_27  and  C_28 
REMARK       I    between atoms: C_28  and  N_29 
ROOT
HETATM    1  C   UNL     1      40.558 -14.006   3.696  1.00  0.00     0.093 A 
HETATM    2  S   UNL     1      39.843 -15.176   2.687  1.00  0.00    -0.074 SA
HETATM    3  C   UNL     1      38.898 -14.029   1.888  1.00  0.00     0.018 A 
HETATM    4  C   UNL     1      39.074 -12.758   2.393  1.00  0.00    -0.023 A 
HETATM    5  C   UNL     1      38.350 -11.577   1.797  1.00  0.00     0.068 C 
HETATM    6  C   UNL     1      37.228 -12.005   0.829  1.00  0.00     0.240 C 
HETATM    7  N   UNL     1      37.637 -13.175  -0.063  1.00  0.00    -0.063 N 
HETATM    8  H   UNL     1      36.808 -13.428  -0.612  1.00  0.00     0.280 HD
HETATM    9  C   UNL     1      37.983 -14.395   0.773  1.00  0.00     0.282 C 
HETATM   10  C   UNL     1      40.026 -12.738   3.485  1.00  0.00     0.073 A 
ENDROOT
BRANCH   1  11
HETATM   11  N   UNL     1      41.597 -14.348   4.551  1.00  0.00    -0.320 N 
HETATM   12  C   UNL     1      41.496 -15.040   5.753  1.00  0.00     0.226 C 
HETATM   13  O   UNL     1      40.461 -15.359   6.331  1.00  0.00    -0.273 OA
HETATM   14  H   UNL     1      42.529 -14.061   4.266  1.00  0.00     0.169 HD
BRANCH  12  15
HETATM   15  C   UNL     1      42.854 -15.393   6.340  1.00  0.00     0.141 C 
BRANCH  15  16
HETATM   16  C   UNL     1      43.338 -16.767   5.946  1.00  0.00    -0.049 A 
HETATM   17  C   UNL     1      42.491 -17.652   5.265  1.00  0.00     0.009 A 
HETATM   18  C   UNL     1      42.951 -18.908   4.861  1.00  0.00     0.019 A 
HETATM   19  C   UNL     1      44.268 -19.296   5.115  1.00  0.00     0.001 A 
HETATM   20  C   UNL     1      45.113 -18.422   5.805  1.00  0.00     0.019 A 
HETATM   21  C   UNL     1      44.655 -17.164   6.210  1.00  0.00     0.009 A 
BRANCH  19  22
HETATM   22  S   UNL     1      44.805 -20.915   4.593  1.00  0.00    -0.126 SA
BRANCH  22  23
HETATM   23  C   UNL     1      44.846 -20.723   2.764  1.00  0.00     0.044 C 
HETATM   24  C   UNL     1      44.269 -19.375   2.340  1.00  0.00     0.021 C 
HETATM   25  C   UNL     1      44.040 -21.865   2.148  1.00  0.00     0.021 C 
ENDBRANCH  22  23
ENDBRANCH  19  22
ENDBRANCH  15  16
ENDBRANCH  12  15
ENDBRANCH   1  11
BRANCH  10  26
HETATM   26  C   UNL     1      40.411 -11.527   4.211  1.00  0.00     0.252 C 
HETATM   27  N   UNL     1      41.649 -11.020   3.928  1.00  0.00    -0.366 N 
HETATM   28  H   UNL     1      42.375 -11.631   3.573  1.00  0.00     0.159 HD
HETATM   29  H   UNL     1      41.962 -10.288   4.557  1.00  0.00     0.159 HD
HETATM   30  O   UNL     1      39.698 -11.017   5.066  1.00  0.00    -0.268 OA
ENDBRANCH  10  26
BRANCH   7  31
HETATM   31  C   UNL     1      38.709 -12.847  -1.079  1.00  0.00     0.273 C 
BRANCH  31  32
HETATM   32  C   UNL     1      38.886 -13.939  -2.099  1.00  0.00    -0.033 A 
HETATM   33  C   UNL     1      37.814 -14.352  -2.903  1.00  0.00     0.009 A 
HETATM   34  C   UNL     1      37.982 -15.383  -3.829  1.00  0.00     0.001 A 
HETATM   35  C   UNL     1      39.220 -16.007  -3.963  1.00  0.00     0.000 A 
HETATM   36  C   UNL     1      40.294 -15.602  -3.175  1.00  0.00     0.001 A 
HETATM   37  C   UNL     1      40.130 -14.574  -2.246  1.00  0.00     0.009 A 
ENDBRANCH  31  32
ENDBRANCH   7  31
TORSDOF 8
ENDMDL
MODEL 8
REMARK VINA RESULT:      -8.3      5.621      8.885
REMARK  8 active torsions:
REMARK  status: ('A' for Active; 'I' for Inactive)
REMARK    1  A    between atoms: C_2  and  S_3 
REMARK    2  A    between atoms: S_3  and  C_4 
REMARK    3  A    between atoms: C_7  and  C_8 
REMARK    4  A    between atoms: C_8  and  C_9 
REMARK       I    between atoms: C_9  and  N_10 
REMARK    5  A    between atoms: N_10  and  C_11 
REMARK    6  A    between atoms: N_17  and  C_19 
REMARK    7  A    between atoms: C_19  and  C_20 
REMARK    8  A    between atoms: C_27  and  C_28 
REMARK       I    between atoms: C_28  and  N_29 
ROOT
HETATM    1  C   UNL     1      42.064 -13.694   3.001  1.00  0.00     0.093 A 
HETATM    2  S   UNL     1      43.183 -13.900   4.269  1.00  0.00    -0.074 SA
HETATM    3  C   UNL     1      42.808 -15.535   4.444  1.00  0.00     0.018 A 
HETATM    4  C   UNL     1      41.809 -15.942   3.584  1.00  0.00    -0.023 A 
HETATM    5  C   UNL     1      41.347 -17.377   3.551  1.00  0.00     0.068 C 
HETATM    6  C   UNL     1      41.881 -18.192   4.747  1.00  0.00     0.240 C 
HETATM    7  N   UNL     1      43.338 -17.870   5.073  1.00  0.00    -0.063 N 
HETATM    8  H   UNL     1      43.572 -18.403   5.918  1.00  0.00     0.280 HD
HETATM    9  C   UNL     1      43.497 -16.404   5.437  1.00  0.00     0.282 C 
HETATM   10  C   UNL     1      41.338 -14.854   2.751  1.00  0.00     0.073 A 
ENDROOT
BRANCH   1  11
HETATM   11  N   UNL     1      41.999 -12.496   2.302  1.00  0.00    -0.320 N 
HETATM   12  C   UNL     1      40.966 -11.567   2.334  1.00  0.00     0.226 C 
HETATM   13  O   UNL     1      39.876 -11.698   2.884  1.00  0.00    -0.273 OA
HETATM   14  H   UNL     1      42.792 -12.280   1.705  1.00  0.00     0.169 HD
BRANCH  12  15
HETATM   15  C   UNL     1      41.307 -10.289   1.581  1.00  0.00     0.141 C 
BRANCH  15  16
HETATM   16  C   UNL     1      41.538 -10.507   0.106  1.00  0.00    -0.049 A 
HETATM   17  C   UNL     1      42.798 -10.271  -0.459  1.00  0.00     0.009 A 
HETATM   18  C   UNL     1      43.026 -10.514  -1.817  1.00  0.00     0.019 A 
HETATM   19  C   UNL     1      42.005 -11.012  -2.629  1.00  0.00     0.001 A 
HETATM   20  C   UNL     1      40.743 -11.237  -2.072  1.00  0.00     0.019 A 
HETATM   21  C   UNL     1      40.513 -10.996  -0.715  1.00  0.00     0.009 A 
BRANCH  19  22
HETATM   22  S   UNL     1      42.340 -11.292  -4.358  1.00  0.00    -0.126 SA
BRANCH  22  23
HETATM   23  C   UNL     1      41.524  -9.840  -5.138  1.00  0.00     0.044 C 
HETATM   24  C   UNL     1      41.486  -9.983  -6.657  1.00  0.00     0.021 C 
HETATM   25  C   UNL     1      42.301  -8.587  -4.740  1.00  0.00     0.021 C 
ENDBRANCH  22  23
ENDBRANCH  19  22
ENDBRANCH  15  16
ENDBRANCH  12  15
ENDBRANCH   1  11
BRANCH  10  26
HETATM   26  C   UNL     1      40.286 -14.993   1.744  1.00  0.00     0.252 C 
HETATM   27  N   UNL     1      39.053 -15.365   2.204  1.00  0.00    -0.366 N 
HETATM   28  H   UNL     1      38.974 -15.884   3.071  1.00  0.00     0.159 HD
HETATM   29  H   UNL     1      38.388 -15.619   1.481  1.00  0.00     0.159 HD
HETATM   30  O   UNL     1      40.496 -14.842   0.548  1.00  0.00    -0.268 OA
ENDBRANCH  10  26
BRANCH   7  31
HETATM   31  C   UNL     1      44.332 -18.318   4.025  1.00  0.00     0.273 C 
BRANCH  31  32
HETATM   32  C   UNL     1      44.418 -19.817   3.918  1.00  0.00    -0.033 A 
HETATM   33  C   UNL     1      44.740 -20.598   5.037  1.00  0.00     0.009 A 
HETATM   34  C   UNL     1      44.842 -21.986   4.923  1.00  0.00     0.001 A 
HETATM   35  C   UNL     1      44.620 -22.605   3.695  1.00  0.00     0.000 A 
HETATM   36  C   UNL     1      44.293 -21.840   2.578  1.00  0.00     0.001 A 
HETATM   37  C   UNL     1      44.193 -20.453   2.687  1.00  0.00     0.009 A 
ENDBRANCH  31  32
ENDBRANCH   7  31
TORSDOF 8
ENDMDL
MODEL 9
REMARK VINA RESULT:      -8.3      5.836      9.470
REMARK  8 active torsions:
REMARK  status: ('A' for Active; 'I' for Inactive)
REMARK    1  A    between atoms: C_2  and  S_3 
REMARK    2  A    between atoms: S_3  and  C_4 
REMARK    3  A    between atoms: C_7  and  C_8 
REMARK    4  A    between atoms: C_8  and  C_9 
REMARK       I    between atoms: C_9  and  N_10 
REMARK    5  A    between atoms: N_10  and  C_11 
REMARK    6  A    between atoms: N_17  and  C_19 
REMARK    7  A    between atoms: C_19  and  C_20 
REMARK    8  A    between atoms: C_27  and  C_28 
REMARK       I    between atoms: C_28  and  N_29 
ROOT
HETATM    1  C   UNL     1      41.216 -13.326   2.555  1.00  0.00     0.093 A 
HETATM    2  S   UNL     1      42.405 -13.411   3.771  1.00  0.00    -0.074 SA
HETATM    3  C   UNL     1      42.207 -15.076   3.963  1.00  0.00     0.018 A 
HETATM    4  C   UNL     1      41.218 -15.587   3.147  1.00  0.00    -0.023 A 
HETATM    5  C   UNL     1      40.904 -17.061   3.135  1.00  0.00     0.068 C 
HETATM    6  C   UNL     1      41.572 -17.812   4.305  1.00  0.00     0.240 C 
HETATM    7  N   UNL     1      43.001 -17.342   4.566  1.00  0.00    -0.063 N 
HETATM    8  H   UNL     1      43.326 -17.844   5.399  1.00  0.00     0.280 HD
HETATM    9  C   UNL     1      43.025 -15.865   4.923  1.00  0.00     0.282 C 
HETATM   10  C   UNL     1      40.601 -14.556   2.337  1.00  0.00     0.073 A 
ENDROOT
BRANCH   1  11
HETATM   11  N   UNL     1      40.997 -12.144   1.860  1.00  0.00    -0.320 N 
HETATM   12  C   UNL     1      41.673 -11.706   0.727  1.00  0.00     0.226 C 
HETATM   13  O   UNL     1      42.663 -12.222   0.216  1.00  0.00    -0.273 OA
HETATM   14  H   UNL     1      40.266 -11.538   2.220  1.00  0.00     0.169 HD
BRANCH  12  15
HETATM   15  C   UNL     1      41.055 -10.450   0.128  1.00  0.00     0.141 C 
BRANCH  15  16
HETATM   16  C   UNL     1      40.067 -10.737  -0.976  1.00  0.00    -0.049 A 
HETATM   17  C   UNL     1      40.487 -10.788  -2.311  1.00  0.00     0.009 A 
HETATM   18  C   UNL     1      39.582 -11.097  -3.330  1.00  0.00     0.019 A 
HETATM   19  C   UNL     1      38.246 -11.375  -3.032  1.00  0.00     0.001 A 
HETATM   20  C   UNL     1      37.820 -11.313  -1.703  1.00  0.00     0.019 A 
HETATM   21  C   UNL     1      38.724 -11.005  -0.681  1.00  0.00     0.009 A 
BRANCH  19  22
HETATM   22  S   UNL     1      37.126 -11.749  -4.368  1.00  0.00    -0.126 SA
BRANCH  22  23
HETATM   23  C   UNL     1      36.585 -13.454  -3.937  1.00  0.00     0.044 C 
HETATM   24  C   UNL     1      37.784 -14.382  -3.764  1.00  0.00     0.021 C 
HETATM   25  C   UNL     1      35.676 -13.961  -5.055  1.00  0.00     0.021 C 
ENDBRANCH  22  23
ENDBRANCH  19  22
ENDBRANCH  15  16
ENDBRANCH  12  15
ENDBRANCH   1  11
BRANCH  10  26
HETATM   26  C   UNL     1      39.525 -14.806   1.378  1.00  0.00     0.252 C 
HETATM   27  N   UNL     1      39.908 -15.043   0.087  1.00  0.00    -0.366 N 
HETATM   28  H   UNL     1      40.792 -14.682  -0.251  1.00  0.00     0.159 HD
HETATM   29  H   UNL     1      39.150 -15.045  -0.587  1.00  0.00     0.159 HD
HETATM   30  O   UNL     1      38.342 -14.754   1.688  1.00  0.00    -0.268 OA
ENDBRANCH  10  26
BRANCH   7  31
HETATM   31  C   UNL     1      43.988 -17.690   3.474  1.00  0.00     0.273 C 
BRANCH  31  32
HETATM   32  C   UNL     1      44.091 -19.174   3.246  1.00  0.00    -0.033 A 
HETATM   33  C   UNL     1      44.652 -20.012   4.220  1.00  0.00     0.009 A 
HETATM   34  C   UNL     1      44.767 -21.384   3.990  1.00  0.00     0.001 A 
HETATM   35  C   UNL     1      44.321 -21.931   2.789  1.00  0.00     0.000 A 
HETATM   36  C   UNL     1      43.757 -21.110   1.816  1.00  0.00     0.001 A 
HETATM   37  C   UNL     1      43.643 -19.738   2.041  1.00  0.00     0.009 A 
ENDBRANCH  31  32
ENDBRANCH   7  31
TORSDOF 8
ENDMDL
MODEL 10
REMARK VINA RESULT:      -8.0      4.482      5.760
REMARK  8 active torsions:
REMARK  status: ('A' for Active; 'I' for Inactive)
REMARK    1  A    between atoms: C_2  and  S_3 
REMARK    2  A    between atoms: S_3  and  C_4 
REMARK    3  A    between atoms: C_7  and  C_8 
REMARK    4  A    between atoms: C_8  and  C_9 
REMARK       I    between atoms: C_9  and  N_10 
REMARK    5  A    between atoms: N_10  and  C_11 
REMARK    6  A    between atoms: N_17  and  C_19 
REMARK    7  A    between atoms: C_19  and  C_20 
REMARK    8  A    between atoms: C_27  and  C_28 
REMARK       I    between atoms: C_28  and  N_29 
ROOT
HETATM    1  C   UNL     1      42.271 -13.647   5.535  1.00  0.00     0.093 A 
HETATM    2  S   UNL     1      43.770 -14.189   6.133  1.00  0.00    -0.074 SA
HETATM    3  C   UNL     1      43.344 -15.813   5.963  1.00  0.00     0.018 A 
HETATM    4  C   UNL     1      42.056 -15.974   5.495  1.00  0.00    -0.023 A 
HETATM    5  C   UNL     1      41.488 -17.345   5.237  1.00  0.00     0.068 C 
HETATM    6  C   UNL     1      42.368 -18.465   5.829  1.00  0.00     0.240 C 
HETATM    7  N   UNL     1      43.859 -18.210   5.626  1.00  0.00    -0.063 N 
HETATM    8  H   UNL     1      44.354 -18.965   6.113  1.00  0.00     0.280 HD
HETATM    9  C   UNL     1      44.282 -16.918   6.302  1.00  0.00     0.282 C 
HETATM   10  C   UNL     1      41.401 -14.701   5.272  1.00  0.00     0.073 A 
ENDROOT
BRANCH   1  11
HETATM   11  N   UNL     1      42.049 -12.297   5.298  1.00  0.00    -0.320 N 
HETATM   12  C   UNL     1      41.252 -11.438   6.046  1.00  0.00     0.226 C 
HETATM   13  O   UNL     1      40.504 -11.748   6.969  1.00  0.00    -0.273 OA
HETATM   14  H   UNL     1      42.522 -11.898   4.492  1.00  0.00     0.169 HD
BRANCH  12  15
HETATM   15  C   UNL     1      41.378  -9.989   5.602  1.00  0.00     0.141 C 
BRANCH  15  16
HETATM   16  C   UNL     1      40.049  -9.292   5.448  1.00  0.00    -0.049 A 
HETATM   17  C   UNL     1      39.318  -9.407   4.259  1.00  0.00     0.009 A 
HETATM   18  C   UNL     1      38.067  -8.798   4.131  1.00  0.00     0.019 A 
HETATM   19  C   UNL     1      37.516  -8.077   5.193  1.00  0.00     0.001 A 
HETATM   20  C   UNL     1      38.248  -7.949   6.377  1.00  0.00     0.019 A 
HETATM   21  C   UNL     1      39.500  -8.558   6.508  1.00  0.00     0.009 A 
BRANCH  19  22
HETATM   22  S   UNL     1      35.924  -7.306   4.977  1.00  0.00    -0.126 SA
BRANCH  22  23
HETATM   23  C   UNL     1      34.899  -8.719   4.396  1.00  0.00     0.044 C 
HETATM   24  C   UNL     1      34.517  -8.553   2.928  1.00  0.00     0.021 C 
HETATM   25  C   UNL     1      33.646  -8.788   5.269  1.00  0.00     0.021 C 
ENDBRANCH  22  23
ENDBRANCH  19  22
ENDBRANCH  15  16
ENDBRANCH  12  15
ENDBRANCH   1  11
BRANCH  10  26
HETATM   26  C   UNL     1      40.032 -14.563   4.775  1.00  0.00     0.252 C 
HETATM   27  N   UNL     1      39.076 -14.267   5.707  1.00  0.00    -0.366 N 
HETATM   28  H   UNL     1      39.222 -14.520   6.678  1.00  0.00     0.159 HD
HETATM   29  H   UNL     1      38.120 -14.344   5.375  1.00  0.00     0.159 HD
HETATM   30  O   UNL     1      39.735 -14.754   3.603  1.00  0.00    -0.268 OA
ENDBRANCH  10  26
BRANCH   7  31
HETATM   31  C   UNL     1      44.321 -18.289   4.187  1.00  0.00     0.273 C 
BRANCH  31  32
HETATM   32  C   UNL     1      44.321 -19.699   3.661  1.00  0.00    -0.033 A 
HETATM   33  C   UNL     1      44.763 -20.764   4.460  1.00  0.00     0.009 A 
HETATM   34  C   UNL     1      44.783 -22.065   3.955  1.00  0.00     0.001 A 
HETATM   35  C   UNL     1      44.360 -22.316   2.652  1.00  0.00     0.000 A 
HETATM   36  C   UNL     1      43.913 -21.268   1.851  1.00  0.00     0.001 A 
HETATM   37  C   UNL     1      43.894 -19.966   2.350  1.00  0.00     0.009 A 
ENDBRANCH  31  32
ENDBRANCH   7  31
TORSDOF 8
ENDMDL
