MODEL 1
REMARK VINA RESULT:      -9.1      0.000      0.000
REMARK  5 active torsions:
REMARK  status: ('A' for Active; 'I' for Inactive)
REMARK    1  A    between atoms: N_3  and  C_4 
REMARK    2  A    between atoms: C_12  and  C_13 
REMARK    3  A    between atoms: C_13  and  N_14 
REMARK       I    between atoms: N_14  and  C_15 
REMARK       I    between atoms: C_15  and  N_16 
REMARK    4  A    between atoms: N_16  and  C_17 
REMARK    5  A    between atoms: C_17  and  C_18 
ROOT
HETATM    1  C   UNL     1      41.921 -15.322   5.332  1.00  0.00     0.165 C 
ENDROOT
BRANCH   1   2
HETATM    2  C   UNL     1      42.557 -16.278   4.369  1.00  0.00    -0.016 A 
HETATM    3  C   UNL     1      42.663 -17.660   4.494  1.00  0.00     0.021 A 
HETATM    4  N   UNL     1      43.351 -18.158   3.386  1.00  0.00    -0.319 N 
HETATM    5  C   UNL     1      42.075 -18.521   5.568  1.00  0.00     0.069 C 
HETATM    6  C   UNL     1      43.623 -17.089   2.537  1.00  0.00     0.014 A 
HETATM    7  C   UNL     1      44.397 -17.185   1.266  1.00  0.00     0.068 C 
HETATM    8  C   UNL     1      43.146 -15.937   3.130  1.00  0.00     0.035 A 
BRANCH   4   9
HETATM    9  C   UNL     1      43.728 -19.517   3.175  1.00  0.00     0.039 A 
HETATM   10  C   UNL     1      43.251 -20.211   2.055  1.00  0.00     0.030 A 
HETATM   11  C   UNL     1      43.612 -21.544   1.852  1.00  0.00     0.002 A 
HETATM   12  C   UNL     1      44.450 -22.188   2.760  1.00  0.00     0.000 A 
HETATM   13  C   UNL     1      44.929 -21.501   3.874  1.00  0.00     0.002 A 
HETATM   14  C   UNL     1      44.568 -20.168   4.085  1.00  0.00     0.030 A 
ENDBRANCH   4   9
ENDBRANCH   1   2
BRANCH   1  15
HETATM   15  N   UNL     1      42.807 -15.169   6.463  1.00  0.00    -0.339 N 
HETATM   16  C   UNL     1      43.696 -14.134   6.530  1.00  0.00     0.316 C 
HETATM   17  N   UNL     1      44.276 -14.051   7.767  1.00  0.00    -0.339 N 
HETATM   18  O   UNL     1      43.922 -13.357   5.614  1.00  0.00    -0.247 OA
HETATM   19  H   UNL     1      44.379 -14.918   8.271  1.00  0.00     0.164 HD
HETATM   20  H   UNL     1      42.502 -15.572   7.335  1.00  0.00     0.164 HD
BRANCH  17  21
HETATM   21  C   UNL     1      45.244 -13.015   8.047  1.00  0.00     0.162 C 
BRANCH  21  22
HETATM   22  C   UNL     1      44.713 -12.008   9.036  1.00  0.00    -0.040 A 
HETATM   23  C   UNL     1      43.491 -11.361   8.803  1.00  0.00     0.009 A 
HETATM   24  C   UNL     1      42.972 -10.466   9.741  1.00  0.00     0.001 A 
HETATM   25  C   UNL     1      43.664 -10.210  10.923  1.00  0.00     0.000 A 
HETATM   26  C   UNL     1      44.874 -10.854  11.173  1.00  0.00     0.001 A 
HETATM   27  C   UNL     1      45.391 -11.754  10.239  1.00  0.00     0.009 A 
ENDBRANCH  21  22
ENDBRANCH  17  21
ENDBRANCH   1  15
TORSDOF 5
ENDMDL
MODEL 2
REMARK VINA RESULT:      -8.9      1.843     10.055
REMARK  5 active torsions:
REMARK  status: ('A' for Active; 'I' for Inactive)
REMARK    1  A    between atoms: N_3  and  C_4 
REMARK    2  A    between atoms: C_12  and  C_13 
REMARK    3  A    between atoms: C_13  and  N_14 
REMARK       I    between atoms: N_14  and  C_15 
REMARK       I    between atoms: C_15  and  N_16 
REMARK    4  A    between atoms: N_16  and  C_17 
REMARK    5  A    between atoms: C_17  and  C_18 
ROOT
HETATM    1  C   UNL     1      45.050 -13.112   8.036  1.00  0.00     0.165 C 
ENDROOT
BRANCH   1   2
HETATM    2  C   UNL     1      44.185 -12.192   8.841  1.00  0.00    -0.016 A 
HETATM    3  C   UNL     1      44.214 -11.990  10.218  1.00  0.00     0.021 A 
HETATM    4  N   UNL     1      43.223 -11.068  10.557  1.00  0.00    -0.319 N 
HETATM    5  C   UNL     1      45.185 -12.571  11.198  1.00  0.00     0.069 C 
HETATM    6  C   UNL     1      42.612 -10.647   9.379  1.00  0.00     0.014 A 
HETATM    7  C   UNL     1      41.459  -9.703   9.306  1.00  0.00     0.068 C 
HETATM    8  C   UNL     1      43.190 -11.329   8.326  1.00  0.00     0.035 A 
BRANCH   4   9
HETATM    9  C   UNL     1      42.882 -10.651  11.877  1.00  0.00     0.039 A 
HETATM   10  C   UNL     1      41.756 -11.192  12.514  1.00  0.00     0.030 A 
HETATM   11  C   UNL     1      41.415 -10.778  13.803  1.00  0.00     0.002 A 
HETATM   12  C   UNL     1      42.195  -9.831  14.463  1.00  0.00     0.000 A 
HETATM   13  C   UNL     1      43.317  -9.292  13.835  1.00  0.00     0.002 A 
HETATM   14  C   UNL     1      43.662  -9.699  12.543  1.00  0.00     0.030 A 
ENDBRANCH   4   9
ENDBRANCH   1   2
BRANCH   1  15
HETATM   15  N   UNL     1      44.234 -14.220   7.593  1.00  0.00    -0.339 N 
HETATM   16  C   UNL     1      44.028 -14.459   6.264  1.00  0.00     0.316 C 
HETATM   17  N   UNL     1      43.418 -15.667   6.061  1.00  0.00    -0.339 N 
HETATM   18  O   UNL     1      44.374 -13.707   5.364  1.00  0.00    -0.247 OA
HETATM   19  H   UNL     1      42.804 -15.987   6.795  1.00  0.00     0.164 HD
HETATM   20  H   UNL     1      44.158 -15.006   8.220  1.00  0.00     0.164 HD
BRANCH  17  21
HETATM   21  C   UNL     1      43.116 -16.113   4.720  1.00  0.00     0.162 C 
BRANCH  21  22
HETATM   22  C   UNL     1      43.614 -17.514   4.472  1.00  0.00    -0.040 A 
HETATM   23  C   UNL     1      43.485 -18.098   3.203  1.00  0.00     0.009 A 
HETATM   24  C   UNL     1      43.991 -19.376   2.956  1.00  0.00     0.001 A 
HETATM   25  C   UNL     1      44.634 -20.083   3.970  1.00  0.00     0.000 A 
HETATM   26  C   UNL     1      44.779 -19.511   5.232  1.00  0.00     0.001 A 
HETATM   27  C   UNL     1      44.280 -18.231   5.479  1.00  0.00     0.009 A 
ENDBRANCH  21  22
ENDBRANCH  17  21
ENDBRANCH   1  15
TORSDOF 5
ENDMDL
MODEL 3
REMARK VINA RESULT:      -8.7      1.252      2.276
REMARK  5 active torsions:
REMARK  status: ('A' for Active; 'I' for Inactive)
REMARK    1  A    between atoms: N_3  and  C_4 
REMARK    2  A    between atoms: C_12  and  C_13 
REMARK    3  A    between atoms: C_13  and  N_14 
REMARK       I    between atoms: N_14  and  C_15 
REMARK       I    between atoms: C_15  and  N_16 
REMARK    4  A    between atoms: N_16  and  C_17 
REMARK    5  A    between atoms: C_17  and  C_18 
ROOT
HETATM    1  C   UNL     1      43.290 -14.843   5.080  1.00  0.00     0.165 C 
ENDROOT
BRANCH   1   2
HETATM    2  C   UNL     1      43.477 -16.329   5.039  1.00  0.00    -0.016 A 
HETATM    3  C   UNL     1      43.660 -17.128   3.915  1.00  0.00     0.021 A 
HETATM    4  N   UNL     1      43.767 -18.458   4.323  1.00  0.00    -0.319 N 
HETATM    5  C   UNL     1      43.815 -16.675   2.496  1.00  0.00     0.069 C 
HETATM    6  C   UNL     1      43.711 -18.483   5.714  1.00  0.00     0.014 A 
HETATM    7  C   UNL     1      43.732 -19.720   6.547  1.00  0.00     0.068 C 
HETATM    8  C   UNL     1      43.530 -17.188   6.160  1.00  0.00     0.035 A 
BRANCH   4   9
HETATM    9  C   UNL     1      43.888 -19.591   3.466  1.00  0.00     0.039 A 
HETATM   10  C   UNL     1      44.928 -20.510   3.662  1.00  0.00     0.030 A 
HETATM   11  C   UNL     1      45.053 -21.615   2.818  1.00  0.00     0.002 A 
HETATM   12  C   UNL     1      44.144 -21.810   1.780  1.00  0.00     0.000 A 
HETATM   13  C   UNL     1      43.106 -20.900   1.583  1.00  0.00     0.002 A 
HETATM   14  C   UNL     1      42.977 -19.790   2.422  1.00  0.00     0.030 A 
ENDBRANCH   4   9
ENDBRANCH   1   2
BRANCH   1  15
HETATM   15  N   UNL     1      43.316 -14.426   6.464  1.00  0.00    -0.339 N 
HETATM   16  C   UNL     1      44.390 -13.758   6.981  1.00  0.00     0.316 C 
HETATM   17  N   UNL     1      44.120 -13.270   8.231  1.00  0.00    -0.339 N 
HETATM   18  O   UNL     1      45.446 -13.585   6.391  1.00  0.00    -0.247 OA
HETATM   19  H   UNL     1      43.463 -13.797   8.785  1.00  0.00     0.164 HD
HETATM   20  H   UNL     1      42.424 -14.282   6.910  1.00  0.00     0.164 HD
BRANCH  17  21
HETATM   21  C   UNL     1      45.126 -12.522   8.951  1.00  0.00     0.162 C 
BRANCH  21  22
HETATM   22  C   UNL     1      44.553 -11.844  10.170  1.00  0.00    -0.040 A 
HETATM   23  C   UNL     1      44.415 -10.450  10.206  1.00  0.00     0.009 A 
HETATM   24  C   UNL     1      43.837  -9.823  11.312  1.00  0.00     0.001 A 
HETATM   25  C   UNL     1      43.387 -10.580  12.391  1.00  0.00     0.000 A 
HETATM   26  C   UNL     1      43.507 -11.968  12.364  1.00  0.00     0.001 A 
HETATM   27  C   UNL     1      44.079 -12.597  11.256  1.00  0.00     0.009 A 
ENDBRANCH  21  22
ENDBRANCH  17  21
ENDBRANCH   1  15
TORSDOF 5
ENDMDL
MODEL 4
REMARK VINA RESULT:      -8.7      2.333      4.190
REMARK  5 active torsions:
REMARK  status: ('A' for Active; 'I' for Inactive)
REMARK    1  A    between atoms: N_3  and  C_4 
REMARK    2  A    between atoms: C_12  and  C_13 
REMARK    3  A    between atoms: C_13  and  N_14 
REMARK       I    between atoms: N_14  and  C_15 
REMARK       I    between atoms: C_15  and  N_16 
REMARK    4  A    between atoms: N_16  and  C_17 
REMARK    5  A    between atoms: C_17  and  C_18 
ROOT
HETATM    1  C   UNL     1      44.986 -13.679   7.312  1.00  0.00     0.165 C 
ENDROOT
BRANCH   1   2
HETATM    2  C   UNL     1      44.293 -14.832   6.652  1.00  0.00    -0.016 A 
HETATM    3  C   UNL     1      43.795 -14.890   5.354  1.00  0.00     0.021 A 
HETATM    4  N   UNL     1      43.203 -16.139   5.157  1.00  0.00    -0.319 N 
HETATM    5  C   UNL     1      43.928 -13.851   4.285  1.00  0.00     0.069 C 
HETATM    6  C   UNL     1      43.386 -16.885   6.318  1.00  0.00     0.014 A 
HETATM    7  C   UNL     1      42.851 -18.259   6.541  1.00  0.00     0.068 C 
HETATM    8  C   UNL     1      44.046 -16.095   7.238  1.00  0.00     0.035 A 
BRANCH   4   9
HETATM    9  C   UNL     1      42.514 -16.563   3.983  1.00  0.00     0.039 A 
HETATM   10  C   UNL     1      41.166 -16.223   3.800  1.00  0.00     0.030 A 
HETATM   11  C   UNL     1      40.487 -16.646   2.656  1.00  0.00     0.002 A 
HETATM   12  C   UNL     1      41.147 -17.403   1.690  1.00  0.00     0.000 A 
HETATM   13  C   UNL     1      42.488 -17.741   1.866  1.00  0.00     0.002 A 
HETATM   14  C   UNL     1      43.173 -17.325   3.011  1.00  0.00     0.030 A 
ENDBRANCH   4   9
ENDBRANCH   1   2
BRANCH   1  15
HETATM   15  N   UNL     1      44.078 -13.105   8.280  1.00  0.00    -0.339 N 
HETATM   16  C   UNL     1      44.345 -11.904   8.873  1.00  0.00     0.316 C 
HETATM   17  N   UNL     1      43.267 -11.444   9.580  1.00  0.00    -0.339 N 
HETATM   18  O   UNL     1      45.400 -11.296   8.761  1.00  0.00    -0.247 OA
HETATM   19  H   UNL     1      42.658 -12.146   9.973  1.00  0.00     0.164 HD
HETATM   20  H   UNL     1      43.111 -13.383   8.214  1.00  0.00     0.164 HD
BRANCH  17  21
HETATM   21  C   UNL     1      43.341 -10.182  10.279  1.00  0.00     0.162 C 
BRANCH  21  22
HETATM   22  C   UNL     1      42.815 -10.291  11.688  1.00  0.00    -0.040 A 
HETATM   23  C   UNL     1      43.466  -9.634  12.741  1.00  0.00     0.009 A 
HETATM   24  C   UNL     1      42.952  -9.691  14.038  1.00  0.00     0.001 A 
HETATM   25  C   UNL     1      41.781 -10.400  14.298  1.00  0.00     0.000 A 
HETATM   26  C   UNL     1      41.117 -11.048  13.259  1.00  0.00     0.001 A 
HETATM   27  C   UNL     1      41.626 -10.987  11.960  1.00  0.00     0.009 A 
ENDBRANCH  21  22
ENDBRANCH  17  21
ENDBRANCH   1  15
TORSDOF 5
ENDMDL
MODEL 5
REMARK VINA RESULT:      -8.3      4.637      8.273
REMARK  5 active torsions:
REMARK  status: ('A' for Active; 'I' for Inactive)
REMARK    1  A    between atoms: N_3  and  C_4 
REMARK    2  A    between atoms: C_12  and  C_13 
REMARK    3  A    between atoms: C_13  and  N_14 
REMARK       I    between atoms: N_14  and  C_15 
REMARK       I    between atoms: C_15  and  N_16 
REMARK    4  A    between atoms: N_16  and  C_17 
REMARK    5  A    between atoms: C_17  and  C_18 
ROOT
HETATM    1  C   UNL     1      42.077 -13.074   2.440  1.00  0.00     0.165 C 
ENDROOT
BRANCH   1   2
HETATM    2  C   UNL     1      41.714 -13.129   0.988  1.00  0.00    -0.016 A 
HETATM    3  C   UNL     1      40.801 -13.982   0.375  1.00  0.00     0.021 A 
HETATM    4  N   UNL     1      40.788 -13.715  -0.995  1.00  0.00    -0.319 N 
HETATM    5  C   UNL     1      39.896 -14.970   1.041  1.00  0.00     0.069 C 
HETATM    6  C   UNL     1      41.654 -12.650  -1.230  1.00  0.00     0.014 A 
HETATM    7  C   UNL     1      41.972 -12.090  -2.575  1.00  0.00     0.068 C 
HETATM    8  C   UNL     1      42.226 -12.287  -0.026  1.00  0.00     0.035 A 
BRANCH   4   9
HETATM    9  C   UNL     1      40.040 -14.424  -1.980  1.00  0.00     0.039 A 
HETATM   10  C   UNL     1      40.597 -15.543  -2.613  1.00  0.00     0.030 A 
HETATM   11  C   UNL     1      39.870 -16.233  -3.584  1.00  0.00     0.002 A 
HETATM   12  C   UNL     1      38.586 -15.813  -3.925  1.00  0.00     0.000 A 
HETATM   13  C   UNL     1      38.026 -14.702  -3.297  1.00  0.00     0.002 A 
HETATM   14  C   UNL     1      38.750 -14.005  -2.327  1.00  0.00     0.030 A 
ENDBRANCH   4   9
ENDBRANCH   1   2
BRANCH   1  15
HETATM   15  N   UNL     1      42.944 -14.194   2.728  1.00  0.00    -0.339 N 
HETATM   16  C   UNL     1      42.570 -15.170   3.608  1.00  0.00     0.316 C 
HETATM   17  N   UNL     1      43.429 -16.235   3.569  1.00  0.00    -0.339 N 
HETATM   18  O   UNL     1      41.575 -15.118   4.317  1.00  0.00    -0.247 OA
HETATM   19  H   UNL     1      44.386 -16.029   3.327  1.00  0.00     0.164 HD
HETATM   20  H   UNL     1      43.610 -14.446   2.015  1.00  0.00     0.164 HD
BRANCH  17  21
HETATM   21  C   UNL     1      43.205 -17.380   4.422  1.00  0.00     0.162 C 
BRANCH  21  22
HETATM   22  C   UNL     1      43.635 -18.663   3.758  1.00  0.00    -0.040 A 
HETATM   23  C   UNL     1      44.462 -19.569   4.437  1.00  0.00     0.009 A 
HETATM   24  C   UNL     1      44.822 -20.782   3.845  1.00  0.00     0.001 A 
HETATM   25  C   UNL     1      44.356 -21.106   2.572  1.00  0.00     0.000 A 
HETATM   26  C   UNL     1      43.524 -20.221   1.891  1.00  0.00     0.001 A 
HETATM   27  C   UNL     1      43.158 -19.010   2.484  1.00  0.00     0.009 A 
ENDBRANCH  21  22
ENDBRANCH  17  21
ENDBRANCH   1  15
TORSDOF 5
ENDMDL
MODEL 6
REMARK VINA RESULT:      -8.3      4.291      7.880
REMARK  5 active torsions:
REMARK  status: ('A' for Active; 'I' for Inactive)
REMARK    1  A    between atoms: N_3  and  C_4 
REMARK    2  A    between atoms: C_12  and  C_13 
REMARK    3  A    between atoms: C_13  and  N_14 
REMARK       I    between atoms: N_14  and  C_15 
REMARK       I    between atoms: C_15  and  N_16 
REMARK    4  A    between atoms: N_16  and  C_17 
REMARK    5  A    between atoms: C_17  and  C_18 
ROOT
HETATM    1  C   UNL     1      43.046 -14.530   3.033  1.00  0.00     0.165 C 
ENDROOT
BRANCH   1   2
HETATM    2  C   UNL     1      43.216 -15.933   3.531  1.00  0.00    -0.016 A 
HETATM    3  C   UNL     1      43.609 -17.050   2.800  1.00  0.00     0.021 A 
HETATM    4  N   UNL     1      43.612 -18.160   3.645  1.00  0.00    -0.319 N 
HETATM    5  C   UNL     1      44.051 -17.087   1.370  1.00  0.00     0.069 C 
HETATM    6  C   UNL     1      43.278 -17.723   4.924  1.00  0.00     0.014 A 
HETATM    7  C   UNL     1      43.114 -18.609   6.113  1.00  0.00     0.068 C 
HETATM    8  C   UNL     1      43.031 -16.366   4.864  1.00  0.00     0.035 A 
BRANCH   4   9
HETATM    9  C   UNL     1      43.886 -19.506   3.260  1.00  0.00     0.039 A 
HETATM   10  C   UNL     1      43.258 -20.054   2.134  1.00  0.00     0.030 A 
HETATM   11  C   UNL     1      43.517 -21.373   1.761  1.00  0.00     0.002 A 
HETATM   12  C   UNL     1      44.404 -22.149   2.505  1.00  0.00     0.000 A 
HETATM   13  C   UNL     1      45.033 -21.608   3.624  1.00  0.00     0.002 A 
HETATM   14  C   UNL     1      44.775 -20.288   4.005  1.00  0.00     0.030 A 
ENDBRANCH   4   9
ENDBRANCH   1   2
BRANCH   1  15
HETATM   15  N   UNL     1      41.766 -14.443   2.367  1.00  0.00    -0.339 N 
HETATM   16  C   UNL     1      41.598 -13.662   1.259  1.00  0.00     0.316 C 
HETATM   17  N   UNL     1      40.386 -13.892   0.665  1.00  0.00    -0.339 N 
HETATM   18  O   UNL     1      42.434 -12.882   0.828  1.00  0.00    -0.247 OA
HETATM   19  H   UNL     1      39.635 -14.176   1.276  1.00  0.00     0.164 HD
HETATM   20  H   UNL     1      41.144 -15.228   2.478  1.00  0.00     0.164 HD
BRANCH  17  21
HETATM   21  C   UNL     1      40.015 -13.169  -0.530  1.00  0.00     0.162 C 
BRANCH  21  22
HETATM   22  C   UNL     1      39.782 -14.099  -1.695  1.00  0.00    -0.040 A 
HETATM   23  C   UNL     1      40.757 -15.038  -2.057  1.00  0.00     0.009 A 
HETATM   24  C   UNL     1      40.525 -15.935  -3.103  1.00  0.00     0.001 A 
HETATM   25  C   UNL     1      39.315 -15.906  -3.794  1.00  0.00     0.000 A 
HETATM   26  C   UNL     1      38.332 -14.985  -3.437  1.00  0.00     0.001 A 
HETATM   27  C   UNL     1      38.561 -14.093  -2.388  1.00  0.00     0.009 A 
ENDBRANCH  21  22
ENDBRANCH  17  21
ENDBRANCH   1  15
TORSDOF 5
ENDMDL
MODEL 7
REMARK VINA RESULT:      -8.3      2.664      3.923
REMARK  5 active torsions:
REMARK  status: ('A' for Active; 'I' for Inactive)
REMARK    1  A    between atoms: N_3  and  C_4 
REMARK    2  A    between atoms: C_12  and  C_13 
REMARK    3  A    between atoms: C_13  and  N_14 
REMARK       I    between atoms: N_14  and  C_15 
REMARK       I    between atoms: C_15  and  N_16 
REMARK    4  A    between atoms: N_16  and  C_17 
REMARK    5  A    between atoms: C_17  and  C_18 
ROOT
HETATM    1  C   UNL     1      39.340 -13.333   5.834  1.00  0.00     0.165 C 
ENDROOT
BRANCH   1   2
HETATM    2  C   UNL     1      40.642 -13.941   5.411  1.00  0.00    -0.016 A 
HETATM    3  C   UNL     1      41.114 -15.218   5.701  1.00  0.00     0.021 A 
HETATM    4  N   UNL     1      42.381 -15.366   5.135  1.00  0.00    -0.319 N 
HETATM    5  C   UNL     1      40.386 -16.313   6.416  1.00  0.00     0.069 C 
HETATM    6  C   UNL     1      42.676 -14.197   4.438  1.00  0.00     0.014 A 
HETATM    7  C   UNL     1      43.963 -13.924   3.736  1.00  0.00     0.068 C 
HETATM    8  C   UNL     1      41.622 -13.320   4.603  1.00  0.00     0.035 A 
BRANCH   4   9
HETATM    9  C   UNL     1      43.232 -16.503   5.269  1.00  0.00     0.039 A 
HETATM   10  C   UNL     1      43.203 -17.517   4.302  1.00  0.00     0.030 A 
HETATM   11  C   UNL     1      44.028 -18.635   4.436  1.00  0.00     0.002 A 
HETATM   12  C   UNL     1      44.885 -18.745   5.530  1.00  0.00     0.000 A 
HETATM   13  C   UNL     1      44.919 -17.737   6.493  1.00  0.00     0.002 A 
HETATM   14  C   UNL     1      44.093 -16.617   6.366  1.00  0.00     0.030 A 
ENDBRANCH   4   9
ENDBRANCH   1   2
BRANCH   1  15
HETATM   15  N   UNL     1      39.390 -13.114   7.262  1.00  0.00    -0.339 N 
HETATM   16  C   UNL     1      39.668 -11.880   7.778  1.00  0.00     0.316 C 
HETATM   17  N   UNL     1      39.452 -11.842   9.129  1.00  0.00    -0.339 N 
HETATM   18  O   UNL     1      40.030 -10.919   7.116  1.00  0.00    -0.247 OA
HETATM   19  H   UNL     1      39.590 -12.708   9.628  1.00  0.00     0.164 HD
HETATM   20  H   UNL     1      38.853 -13.744   7.836  1.00  0.00     0.164 HD
BRANCH  17  21
HETATM   21  C   UNL     1      39.681 -10.622   9.868  1.00  0.00     0.162 C 
BRANCH  21  22
HETATM   22  C   UNL     1      40.962 -10.680  10.660  1.00  0.00    -0.040 A 
HETATM   23  C   UNL     1      42.168 -10.246  10.092  1.00  0.00     0.009 A 
HETATM   24  C   UNL     1      43.347 -10.250  10.840  1.00  0.00     0.001 A 
HETATM   25  C   UNL     1      43.335 -10.684  12.164  1.00  0.00     0.000 A 
HETATM   26  C   UNL     1      42.142 -11.107  12.746  1.00  0.00     0.001 A 
HETATM   27  C   UNL     1      40.960 -11.097  12.001  1.00  0.00     0.009 A 
ENDBRANCH  21  22
ENDBRANCH  17  21
ENDBRANCH   1  15
TORSDOF 5
ENDMDL
MODEL 8
REMARK VINA RESULT:      -8.2      5.632      9.175
REMARK  5 active torsions:
REMARK  status: ('A' for Active; 'I' for Inactive)
REMARK    1  A    between atoms: N_3  and  C_4 
REMARK    2  A    between atoms: C_12  and  C_13 
REMARK    3  A    between atoms: C_13  and  N_14 
REMARK       I    between atoms: N_14  and  C_15 
REMARK       I    between atoms: C_15  and  N_16 
REMARK    4  A    between atoms: N_16  and  C_17 
REMARK    5  A    between atoms: C_17  and  C_18 
ROOT
HETATM    1  C   UNL     1      39.667 -14.601   2.430  1.00  0.00     0.165 C 
ENDROOT
BRANCH   1   2
HETATM    2  C   UNL     1      39.632 -14.439   0.941  1.00  0.00    -0.016 A 
HETATM    3  C   UNL     1      38.545 -14.067   0.155  1.00  0.00     0.021 A 
HETATM    4  N   UNL     1      38.941 -14.063  -1.183  1.00  0.00    -0.319 N 
HETATM    5  C   UNL     1      37.189 -13.644   0.626  1.00  0.00     0.069 C 
HETATM    6  C   UNL     1      40.297 -14.376  -1.228  1.00  0.00     0.014 A 
HETATM    7  C   UNL     1      41.095 -14.534  -2.478  1.00  0.00     0.068 C 
HETATM    8  C   UNL     1      40.727 -14.610   0.063  1.00  0.00     0.035 A 
BRANCH   4   9
HETATM    9  C   UNL     1      38.098 -13.808  -2.305  1.00  0.00     0.039 A 
HETATM   10  C   UNL     1      37.789 -12.489  -2.664  1.00  0.00     0.030 A 
HETATM   11  C   UNL     1      36.957 -12.238  -3.757  1.00  0.00     0.002 A 
HETATM   12  C   UNL     1      36.435 -13.297  -4.496  1.00  0.00     0.000 A 
HETATM   13  C   UNL     1      36.742 -14.611  -4.145  1.00  0.00     0.002 A 
HETATM   14  C   UNL     1      37.571 -14.869  -3.050  1.00  0.00     0.030 A 
ENDBRANCH   4   9
ENDBRANCH   1   2
BRANCH   1  15
HETATM   15  N   UNL     1      40.211 -15.907   2.726  1.00  0.00    -0.339 N 
HETATM   16  C   UNL     1      41.483 -16.052   3.200  1.00  0.00     0.316 C 
HETATM   17  N   UNL     1      41.719 -17.334   3.617  1.00  0.00    -0.339 N 
HETATM   18  O   UNL     1      42.301 -15.146   3.277  1.00  0.00    -0.247 OA
HETATM   19  H   UNL     1      41.207 -18.061   3.140  1.00  0.00     0.164 HD
HETATM   20  H   UNL     1      39.548 -16.632   2.952  1.00  0.00     0.164 HD
BRANCH  17  21
HETATM   21  C   UNL     1      43.008 -17.696   4.162  1.00  0.00     0.162 C 
BRANCH  21  22
HETATM   22  C   UNL     1      43.482 -19.027   3.637  1.00  0.00    -0.040 A 
HETATM   23  C   UNL     1      43.132 -19.445   2.345  1.00  0.00     0.009 A 
HETATM   24  C   UNL     1      43.612 -20.654   1.837  1.00  0.00     0.001 A 
HETATM   25  C   UNL     1      44.450 -21.456   2.609  1.00  0.00     0.000 A 
HETATM   26  C   UNL     1      44.816 -21.047   3.890  1.00  0.00     0.001 A 
HETATM   27  C   UNL     1      44.342 -19.836   4.398  1.00  0.00     0.009 A 
ENDBRANCH  21  22
ENDBRANCH  17  21
ENDBRANCH   1  15
TORSDOF 5
ENDMDL
MODEL 9
REMARK VINA RESULT:      -8.2      2.580      3.864
REMARK  5 active torsions:
REMARK  status: ('A' for Active; 'I' for Inactive)
REMARK    1  A    between atoms: N_3  and  C_4 
REMARK    2  A    between atoms: C_12  and  C_13 
REMARK    3  A    between atoms: C_13  and  N_14 
REMARK       I    between atoms: N_14  and  C_15 
REMARK       I    between atoms: C_15  and  N_16 
REMARK    4  A    between atoms: N_16  and  C_17 
REMARK    5  A    between atoms: C_17  and  C_18 
ROOT
HETATM    1  C   UNL     1      39.518 -13.590   5.428  1.00  0.00     0.165 C 
ENDROOT
BRANCH   1   2
HETATM    2  C   UNL     1      40.696 -14.481   5.175  1.00  0.00    -0.016 A 
HETATM    3  C   UNL     1      40.959 -15.233   4.034  1.00  0.00     0.021 A 
HETATM    4  N   UNL     1      42.148 -15.938   4.226  1.00  0.00    -0.319 N 
HETATM    5  C   UNL     1      40.179 -15.245   2.757  1.00  0.00     0.069 C 
HETATM    6  C   UNL     1      42.661 -15.578   5.470  1.00  0.00     0.014 A 
HETATM    7  C   UNL     1      43.893 -16.152   6.083  1.00  0.00     0.068 C 
HETATM    8  C   UNL     1      41.780 -14.692   6.058  1.00  0.00     0.035 A 
BRANCH   4   9
HETATM    9  C   UNL     1      42.722 -16.877   3.320  1.00  0.00     0.039 A 
HETATM   10  C   UNL     1      43.593 -16.438   2.314  1.00  0.00     0.030 A 
HETATM   11  C   UNL     1      44.148 -17.355   1.419  1.00  0.00     0.002 A 
HETATM   12  C   UNL     1      43.841 -18.710   1.526  1.00  0.00     0.000 A 
HETATM   13  C   UNL     1      42.977 -19.152   2.527  1.00  0.00     0.002 A 
HETATM   14  C   UNL     1      42.415 -18.239   3.423  1.00  0.00     0.030 A 
ENDBRANCH   4   9
ENDBRANCH   1   2
BRANCH   1  15
HETATM   15  N   UNL     1      39.479 -13.290   6.842  1.00  0.00    -0.339 N 
HETATM   16  C   UNL     1      39.730 -12.030   7.304  1.00  0.00     0.316 C 
HETATM   17  N   UNL     1      39.428 -11.915   8.634  1.00  0.00    -0.339 N 
HETATM   18  O   UNL     1      40.139 -11.108   6.612  1.00  0.00    -0.247 OA
HETATM   19  H   UNL     1      39.530 -12.751   9.189  1.00  0.00     0.164 HD
HETATM   20  H   UNL     1      38.902 -13.886   7.415  1.00  0.00     0.164 HD
BRANCH  17  21
HETATM   21  C   UNL     1      39.616 -10.654   9.315  1.00  0.00     0.162 C 
BRANCH  21  22
HETATM   22  C   UNL     1      40.640 -10.762  10.417  1.00  0.00    -0.040 A 
HETATM   23  C   UNL     1      40.260 -11.177  11.700  1.00  0.00     0.009 A 
HETATM   24  C   UNL     1      41.214 -11.327  12.709  1.00  0.00     0.001 A 
HETATM   25  C   UNL     1      42.558 -11.069  12.447  1.00  0.00     0.000 A 
HETATM   26  C   UNL     1      42.952 -10.667  11.172  1.00  0.00     0.001 A 
HETATM   27  C   UNL     1      42.000 -10.523  10.160  1.00  0.00     0.009 A 
ENDBRANCH  21  22
ENDBRANCH  17  21
ENDBRANCH   1  15
TORSDOF 5
ENDMDL
MODEL 10
REMARK VINA RESULT:      -8.2      5.655      9.675
REMARK  5 active torsions:
REMARK  status: ('A' for Active; 'I' for Inactive)
REMARK    1  A    between atoms: N_3  and  C_4 
REMARK    2  A    between atoms: C_12  and  C_13 
REMARK    3  A    between atoms: C_13  and  N_14 
REMARK       I    between atoms: N_14  and  C_15 
REMARK       I    between atoms: C_15  and  N_16 
REMARK    4  A    between atoms: N_16  and  C_17 
REMARK    5  A    between atoms: C_17  and  C_18 
ROOT
HETATM    1  C   UNL     1      41.257 -16.458  -0.076  1.00  0.00     0.165 C 
ENDROOT
BRANCH   1   2
HETATM    2  C   UNL     1      41.362 -15.029  -0.511  1.00  0.00    -0.016 A 
HETATM    3  C   UNL     1      41.125 -14.510  -1.780  1.00  0.00     0.021 A 
HETATM    4  N   UNL     1      41.364 -13.136  -1.755  1.00  0.00    -0.319 N 
HETATM    5  C   UNL     1      40.610 -15.247  -2.978  1.00  0.00     0.069 C 
HETATM    6  C   UNL     1      41.694 -12.785  -0.449  1.00  0.00     0.014 A 
HETATM    7  C   UNL     1      42.080 -11.414  -0.006  1.00  0.00     0.068 C 
HETATM    8  C   UNL     1      41.699 -13.934   0.317  1.00  0.00     0.035 A 
BRANCH   4   9
HETATM    9  C   UNL     1      41.303 -12.254  -2.874  1.00  0.00     0.039 A 
HETATM   10  C   UNL     1      40.091 -11.640  -3.218  1.00  0.00     0.030 A 
HETATM   11  C   UNL     1      40.028 -10.784  -4.319  1.00  0.00     0.002 A 
HETATM   12  C   UNL     1      41.171 -10.533  -5.076  1.00  0.00     0.000 A 
HETATM   13  C   UNL     1      42.379 -11.139  -4.736  1.00  0.00     0.002 A 
HETATM   14  C   UNL     1      42.448 -12.000  -3.638  1.00  0.00     0.030 A 
ENDBRANCH   4   9
ENDBRANCH   1   2
BRANCH   1  15
HETATM   15  N   UNL     1      42.510 -16.832   0.542  1.00  0.00    -0.339 N 
HETATM   16  C   UNL     1      42.557 -17.270   1.835  1.00  0.00     0.316 C 
HETATM   17  N   UNL     1      43.790 -17.773   2.148  1.00  0.00    -0.339 N 
HETATM   18  O   UNL     1      41.610 -17.249   2.608  1.00  0.00    -0.247 OA
HETATM   19  H   UNL     1      44.575 -17.370   1.659  1.00  0.00     0.164 HD
HETATM   20  H   UNL     1      43.246 -17.136  -0.075  1.00  0.00     0.164 HD
BRANCH  17  21
HETATM   21  C   UNL     1      44.047 -18.297   3.471  1.00  0.00     0.162 C 
BRANCH  21  22
HETATM   22  C   UNL     1      44.280 -19.786   3.446  1.00  0.00    -0.040 A 
HETATM   23  C   UNL     1      44.715 -20.455   4.600  1.00  0.00     0.009 A 
HETATM   24  C   UNL     1      44.883 -21.841   4.595  1.00  0.00     0.001 A 
HETATM   25  C   UNL     1      44.615 -22.576   3.441  1.00  0.00     0.000 A 
HETATM   26  C   UNL     1      44.171 -21.926   2.292  1.00  0.00     0.001 A 
HETATM   27  C   UNL     1      43.997 -20.541   2.296  1.00  0.00     0.009 A 
ENDBRANCH  21  22
ENDBRANCH  17  21
ENDBRANCH   1  15
TORSDOF 5
ENDMDL
