MODEL 1
REMARK VINA RESULT:      -7.7      0.000      0.000
REMARK  6 active torsions:
REMARK  status: ('A' for Active; 'I' for Inactive)
REMARK    1  A    between atoms: C_2  and  N_3 
REMARK    2  A    between atoms: C_2  and  C_16 
REMARK    3  A    between atoms: N_3  and  C_6 
REMARK    4  A    between atoms: C_16  and  C_17 
REMARK       I    between atoms: C_17  and  N_18 
REMARK    5  A    between atoms: N_18  and  C_19 
REMARK    6  A    between atoms: C_22  and  O_23 
ROOT
HETATM    1  C   UNL     1      44.341 -17.229   1.343  1.00  0.00     0.040 C 
HETATM    2  C   UNL     1      42.962 -17.883   1.383  1.00  0.00     0.191 C 
ENDROOT
BRANCH   2   3
HETATM    3  N   UNL     1      42.579 -18.242   2.815  1.00  0.00    -0.063 N 
HETATM    4  H   UNL     1      41.879 -17.568   3.144  1.00  0.00     0.278 HD
HETATM    5  H   UNL     1      42.092 -19.147   2.784  1.00  0.00     0.278 HD
BRANCH   3   6
HETATM    6  C   UNL     1      43.645 -18.377   3.904  1.00  0.00     0.221 C 
HETATM    7  C   UNL     1      44.055 -19.805   4.204  1.00  0.00    -0.011 A 
HETATM    8  C   UNL     1      44.209 -20.280   5.520  1.00  0.00     0.009 A 
HETATM    9  C   UNL     1      44.350 -20.688   3.141  1.00  0.00     0.011 A 
HETATM   10  C   UNL     1      44.541 -21.623   5.745  1.00  0.00     0.019 A 
HETATM   11  S   UNL     1      44.016 -19.260   6.968  1.00  0.00    -0.129 SA
HETATM   12  C   UNL     1      44.771 -22.492   4.682  1.00  0.00     0.001 A 
HETATM   13  C   UNL     1      44.691 -22.020   3.379  1.00  0.00     0.001 A 
HETATM   14  C   UNL     1      44.233 -17.620   6.238  1.00  0.00     0.082 C 
HETATM   15  C   UNL     1      43.254 -17.482   5.087  1.00  0.00     0.048 C 
ENDBRANCH   3   6
ENDBRANCH   2   3
BRANCH   2  16
HETATM   16  C   UNL     1      41.880 -16.929   0.842  1.00  0.00     0.135 C 
BRANCH  16  17
HETATM   17  C   UNL     1      41.006 -16.432   1.977  1.00  0.00     0.224 C 
HETATM   18  N   UNL     1      41.517 -15.307   2.592  1.00  0.00    -0.327 N 
HETATM   19  H   UNL     1      42.454 -15.011   2.349  1.00  0.00     0.169 HD
HETATM   20  O   UNL     1      39.980 -17.036   2.268  1.00  0.00    -0.273 OA
BRANCH  18  21
HETATM   21  C   UNL     1      40.871 -14.506   3.559  1.00  0.00     0.034 A 
HETATM   22  C   UNL     1      40.869 -14.783   4.925  1.00  0.00     0.032 A 
HETATM   23  C   UNL     1      40.170 -13.956   5.811  1.00  0.00     0.039 A 
HETATM   24  C   UNL     1      39.472 -12.839   5.352  1.00  0.00     0.068 A 
HETATM   25  C   UNL     1      39.469 -12.558   3.988  1.00  0.00     0.039 A 
HETATM   26  C   UNL     1      40.163 -13.388   3.098  1.00  0.00     0.032 A 
BRANCH  24  27
HETATM   27  O   UNL     1      38.835 -12.121   6.324  1.00  0.00    -0.356 OA
HETATM   28  C   UNL     1      39.639 -11.597   7.374  1.00  0.00     0.210 C 
ENDBRANCH  24  27
ENDBRANCH  18  21
ENDBRANCH  16  17
ENDBRANCH   2  16
TORSDOF 6
ENDMDL
MODEL 2
REMARK VINA RESULT:      -7.6      3.071      4.722
REMARK  6 active torsions:
REMARK  status: ('A' for Active; 'I' for Inactive)
REMARK    1  A    between atoms: C_2  and  N_3 
REMARK    2  A    between atoms: C_2  and  C_16 
REMARK    3  A    between atoms: N_3  and  C_6 
REMARK    4  A    between atoms: C_16  and  C_17 
REMARK       I    between atoms: C_17  and  N_18 
REMARK    5  A    between atoms: N_18  and  C_19 
REMARK    6  A    between atoms: C_22  and  O_23 
ROOT
HETATM    1  C   UNL     1      42.977 -15.198   2.595  1.00  0.00     0.040 C 
HETATM    2  C   UNL     1      43.641 -16.566   2.457  1.00  0.00     0.191 C 
ENDROOT
BRANCH   2   3
HETATM    3  N   UNL     1      43.111 -17.529   3.516  1.00  0.00    -0.063 N 
HETATM    4  H   UNL     1      42.267 -17.122   3.933  1.00  0.00     0.278 HD
HETATM    5  H   UNL     1      42.793 -18.376   3.027  1.00  0.00     0.278 HD
BRANCH   3   6
HETATM    6  C   UNL     1      44.008 -18.016   4.655  1.00  0.00     0.221 C 
HETATM    7  C   UNL     1      44.264 -19.509   4.655  1.00  0.00    -0.011 A 
HETATM    8  C   UNL     1      44.204 -20.281   5.830  1.00  0.00     0.009 A 
HETATM    9  C   UNL     1      44.632 -20.158   3.454  1.00  0.00     0.011 A 
HETATM   10  C   UNL     1      44.401 -21.668   5.769  1.00  0.00     0.019 A 
HETATM   11  S   UNL     1      43.897 -19.597   7.447  1.00  0.00    -0.129 SA
HETATM   12  C   UNL     1      44.704 -22.295   4.564  1.00  0.00     0.001 A 
HETATM   13  C   UNL     1      44.836 -21.537   3.408  1.00  0.00     0.001 A 
HETATM   14  C   UNL     1      44.333 -17.867   7.153  1.00  0.00     0.082 C 
HETATM   15  C   UNL     1      43.531 -17.372   5.964  1.00  0.00     0.048 C 
ENDBRANCH   3   6
ENDBRANCH   2   3
BRANCH   2  16
HETATM   16  C   UNL     1      43.346 -17.189   1.080  1.00  0.00     0.135 C 
BRANCH  16  17
HETATM   17  C   UNL     1      41.987 -16.739   0.581  1.00  0.00     0.224 C 
HETATM   18  N   UNL     1      42.070 -15.733  -0.360  1.00  0.00    -0.327 N 
HETATM   19  H   UNL     1      42.970 -15.297  -0.519  1.00  0.00     0.169 HD
HETATM   20  O   UNL     1      40.970 -17.252   1.032  1.00  0.00    -0.273 OA
BRANCH  18  21
HETATM   21  C   UNL     1      41.011 -15.214  -1.137  1.00  0.00     0.034 A 
HETATM   22  C   UNL     1      40.074 -14.297  -0.665  1.00  0.00     0.032 A 
HETATM   23  C   UNL     1      39.032 -13.864  -1.493  1.00  0.00     0.039 A 
HETATM   24  C   UNL     1      38.915 -14.329  -2.802  1.00  0.00     0.068 A 
HETATM   25  C   UNL     1      39.847 -15.247  -3.279  1.00  0.00     0.039 A 
HETATM   26  C   UNL     1      40.887 -15.687  -2.450  1.00  0.00     0.032 A 
BRANCH  24  27
HETATM   27  O   UNL     1      37.852 -13.825  -3.497  1.00  0.00    -0.356 OA
HETATM   28  C   UNL     1      36.961 -14.763  -4.088  1.00  0.00     0.210 C 
ENDBRANCH  24  27
ENDBRANCH  18  21
ENDBRANCH  16  17
ENDBRANCH   2  16
TORSDOF 6
ENDMDL
MODEL 3
REMARK VINA RESULT:      -7.5      3.428      5.148
REMARK  6 active torsions:
REMARK  status: ('A' for Active; 'I' for Inactive)
REMARK    1  A    between atoms: C_2  and  N_3 
REMARK    2  A    between atoms: C_2  and  C_16 
REMARK    3  A    between atoms: N_3  and  C_6 
REMARK    4  A    between atoms: C_16  and  C_17 
REMARK       I    between atoms: C_17  and  N_18 
REMARK    5  A    between atoms: N_18  and  C_19 
REMARK    6  A    between atoms: C_22  and  O_23 
ROOT
HETATM    1  C   UNL     1      39.885 -14.982   3.530  1.00  0.00     0.040 C 
HETATM    2  C   UNL     1      40.893 -16.078   3.192  1.00  0.00     0.191 C 
ENDROOT
BRANCH   2   3
HETATM    3  N   UNL     1      41.015 -17.069   4.346  1.00  0.00    -0.063 N 
HETATM    4  H   UNL     1      40.259 -16.885   5.014  1.00  0.00     0.278 HD
HETATM    5  H   UNL     1      40.822 -18.005   3.966  1.00  0.00     0.278 HD
BRANCH   3   6
HETATM    6  C   UNL     1      42.318 -17.199   5.136  1.00  0.00     0.221 C 
HETATM    7  C   UNL     1      43.198 -18.356   4.707  1.00  0.00    -0.011 A 
HETATM    8  C   UNL     1      43.823 -19.207   5.637  1.00  0.00     0.009 A 
HETATM    9  C   UNL     1      43.454 -18.569   3.334  1.00  0.00     0.011 A 
HETATM   10  C   UNL     1      44.587 -20.293   5.188  1.00  0.00     0.019 A 
HETATM   11  S   UNL     1      43.720 -18.988   7.403  1.00  0.00    -0.129 SA
HETATM   12  C   UNL     1      44.780 -20.520   3.829  1.00  0.00     0.001 A 
HETATM   13  C   UNL     1      44.226 -19.648   2.901  1.00  0.00     0.001 A 
HETATM   14  C   UNL     1      43.240 -17.247   7.485  1.00  0.00     0.082 C 
HETATM   15  C   UNL     1      42.001 -17.057   6.631  1.00  0.00     0.048 C 
ENDBRANCH   3   6
ENDBRANCH   2   3
BRANCH   2  16
HETATM   16  C   UNL     1      40.453 -16.872   1.948  1.00  0.00     0.135 C 
BRANCH  16  17
HETATM   17  C   UNL     1      41.188 -16.372   0.720  1.00  0.00     0.224 C 
HETATM   18  N   UNL     1      40.497 -15.382   0.050  1.00  0.00    -0.327 N 
HETATM   19  H   UNL     1      39.544 -15.189   0.329  1.00  0.00     0.169 HD
HETATM   20  O   UNL     1      42.267 -16.863   0.411  1.00  0.00    -0.273 OA
BRANCH  18  21
HETATM   21  C   UNL     1      40.974 -14.597  -1.022  1.00  0.00     0.034 A 
HETATM   22  C   UNL     1      40.763 -14.901  -2.366  1.00  0.00     0.032 A 
HETATM   23  C   UNL     1      41.305 -14.087  -3.367  1.00  0.00     0.039 A 
HETATM   24  C   UNL     1      42.057 -12.957  -3.045  1.00  0.00     0.068 A 
HETATM   25  C   UNL     1      42.273 -12.649  -1.704  1.00  0.00     0.039 A 
HETATM   26  C   UNL     1      41.737 -13.466  -0.700  1.00  0.00     0.032 A 
BRANCH  24  27
HETATM   27  O   UNL     1      42.526 -12.255  -4.119  1.00  0.00    -0.356 OA
HETATM   28  C   UNL     1      41.931 -10.989  -4.375  1.00  0.00     0.210 C 
ENDBRANCH  24  27
ENDBRANCH  18  21
ENDBRANCH  16  17
ENDBRANCH   2  16
TORSDOF 6
ENDMDL
MODEL 4
REMARK VINA RESULT:      -7.4      2.712      5.202
REMARK  6 active torsions:
REMARK  status: ('A' for Active; 'I' for Inactive)
REMARK    1  A    between atoms: C_2  and  N_3 
REMARK    2  A    between atoms: C_2  and  C_16 
REMARK    3  A    between atoms: N_3  and  C_6 
REMARK    4  A    between atoms: C_16  and  C_17 
REMARK       I    between atoms: C_17  and  N_18 
REMARK    5  A    between atoms: N_18  and  C_19 
REMARK    6  A    between atoms: C_22  and  O_23 
ROOT
HETATM    1  C   UNL     1      42.383 -13.469   5.644  1.00  0.00     0.040 C 
HETATM    2  C   UNL     1      42.028 -14.302   4.415  1.00  0.00     0.191 C 
ENDROOT
BRANCH   2   3
HETATM    3  N   UNL     1      42.034 -15.790   4.757  1.00  0.00    -0.063 N 
HETATM    4  H   UNL     1      41.525 -15.925   5.636  1.00  0.00     0.278 HD
HETATM    5  H   UNL     1      41.474 -16.270   4.041  1.00  0.00     0.278 HD
BRANCH   3   6
HETATM    6  C   UNL     1      43.347 -16.569   4.852  1.00  0.00     0.221 C 
HETATM    7  C   UNL     1      43.520 -17.635   3.789  1.00  0.00    -0.011 A 
HETATM    8  C   UNL     1      43.999 -18.924   4.090  1.00  0.00     0.009 A 
HETATM    9  C   UNL     1      43.251 -17.327   2.436  1.00  0.00     0.011 A 
HETATM   10  C   UNL     1      44.094 -19.890   3.079  1.00  0.00     0.019 A 
HETATM   11  S   UNL     1      44.520 -19.429   5.718  1.00  0.00    -0.129 SA
HETATM   12  C   UNL     1      43.767 -19.582   1.761  1.00  0.00     0.001 A 
HETATM   13  C   UNL     1      43.361 -18.295   1.437  1.00  0.00     0.001 A 
HETATM   14  C   UNL     1      44.824 -17.816   6.475  1.00  0.00     0.082 C 
HETATM   15  C   UNL     1      43.571 -16.974   6.315  1.00  0.00     0.048 C 
ENDBRANCH   3   6
ENDBRANCH   2   3
BRANCH   2  16
HETATM   16  C   UNL     1      40.620 -13.956   3.897  1.00  0.00     0.135 C 
BRANCH  16  17
HETATM   17  C   UNL     1      40.324 -14.727   2.626  1.00  0.00     0.224 C 
HETATM   18  N   UNL     1      40.390 -13.939   1.494  1.00  0.00    -0.327 N 
HETATM   19  H   UNL     1      40.475 -12.937   1.612  1.00  0.00     0.169 HD
HETATM   20  O   UNL     1      40.044 -15.919   2.685  1.00  0.00    -0.273 OA
BRANCH  18  21
HETATM   21  C   UNL     1      40.334 -14.379   0.154  1.00  0.00     0.034 A 
HETATM   22  C   UNL     1      41.240 -15.275  -0.411  1.00  0.00     0.032 A 
HETATM   23  C   UNL     1      41.134 -15.628  -1.761  1.00  0.00     0.039 A 
HETATM   24  C   UNL     1      40.122 -15.102  -2.563  1.00  0.00     0.068 A 
HETATM   25  C   UNL     1      39.215 -14.204  -2.005  1.00  0.00     0.039 A 
HETATM   26  C   UNL     1      39.323 -13.844  -0.656  1.00  0.00     0.032 A 
BRANCH  24  27
HETATM   27  O   UNL     1      40.137 -15.531  -3.860  1.00  0.00    -0.356 OA
HETATM   28  C   UNL     1      38.937 -16.100  -4.368  1.00  0.00     0.210 C 
ENDBRANCH  24  27
ENDBRANCH  18  21
ENDBRANCH  16  17
ENDBRANCH   2  16
TORSDOF 6
ENDMDL
MODEL 5
REMARK VINA RESULT:      -7.4      3.020      7.459
REMARK  6 active torsions:
REMARK  status: ('A' for Active; 'I' for Inactive)
REMARK    1  A    between atoms: C_2  and  N_3 
REMARK    2  A    between atoms: C_2  and  C_16 
REMARK    3  A    between atoms: N_3  and  C_6 
REMARK    4  A    between atoms: C_16  and  C_17 
REMARK       I    between atoms: C_17  and  N_18 
REMARK    5  A    between atoms: N_18  and  C_19 
REMARK    6  A    between atoms: C_22  and  O_23 
ROOT
HETATM    1  C   UNL     1      44.825 -14.056   6.861  1.00  0.00     0.040 C 
HETATM    2  C   UNL     1      43.555 -14.858   6.590  1.00  0.00     0.191 C 
ENDROOT
BRANCH   2   3
HETATM    3  N   UNL     1      43.394 -15.117   5.095  1.00  0.00    -0.063 N 
HETATM    4  H   UNL     1      44.283 -14.907   4.630  1.00  0.00     0.278 HD
HETATM    5  H   UNL     1      43.255 -16.129   4.973  1.00  0.00     0.278 HD
BRANCH   3   6
HETATM    6  C   UNL     1      42.278 -14.443   4.296  1.00  0.00     0.221 C 
HETATM    7  C   UNL     1      41.950 -15.123   2.982  1.00  0.00    -0.011 A 
HETATM    8  C   UNL     1      41.752 -14.398   1.792  1.00  0.00     0.009 A 
HETATM    9  C   UNL     1      41.781 -16.525   2.941  1.00  0.00     0.011 A 
HETATM   10  C   UNL     1      41.500 -15.078   0.592  1.00  0.00     0.019 A 
HETATM   11  S   UNL     1      41.787 -12.619   1.700  1.00  0.00    -0.129 SA
HETATM   12  C   UNL     1      41.395 -16.466   0.563  1.00  0.00     0.001 A 
HETATM   13  C   UNL     1      41.519 -17.189   1.741  1.00  0.00     0.001 A 
HETATM   14  C   UNL     1      41.502 -12.201   3.436  1.00  0.00     0.082 C 
HETATM   15  C   UNL     1      42.534 -12.930   4.274  1.00  0.00     0.048 C 
ENDBRANCH   3   6
ENDBRANCH   2   3
BRANCH   2  16
HETATM   16  C   UNL     1      43.604 -16.228   7.292  1.00  0.00     0.135 C 
BRANCH  16  17
HETATM   17  C   UNL     1      43.278 -17.333   6.306  1.00  0.00     0.224 C 
HETATM   18  N   UNL     1      44.401 -17.851   5.694  1.00  0.00    -0.327 N 
HETATM   19  H   UNL     1      45.285 -17.377   5.830  1.00  0.00     0.169 HD
HETATM   20  O   UNL     1      42.112 -17.658   6.116  1.00  0.00    -0.273 OA
BRANCH  18  21
HETATM   21  C   UNL     1      44.459 -18.990   4.861  1.00  0.00     0.034 A 
HETATM   22  C   UNL     1      44.251 -18.961   3.483  1.00  0.00     0.032 A 
HETATM   23  C   UNL     1      44.290 -20.145   2.739  1.00  0.00     0.039 A 
HETATM   24  C   UNL     1      44.543 -21.371   3.352  1.00  0.00     0.068 A 
HETATM   25  C   UNL     1      44.750 -21.408   4.729  1.00  0.00     0.039 A 
HETATM   26  C   UNL     1      44.705 -20.224   5.478  1.00  0.00     0.032 A 
BRANCH  24  27
HETATM   27  O   UNL     1      44.551 -22.445   2.508  1.00  0.00    -0.356 OA
HETATM   28  C   UNL     1      44.069 -22.231   1.187  1.00  0.00     0.210 C 
ENDBRANCH  24  27
ENDBRANCH  18  21
ENDBRANCH  16  17
ENDBRANCH   2  16
TORSDOF 6
ENDMDL
MODEL 6
REMARK VINA RESULT:      -7.3      4.331      6.039
REMARK  6 active torsions:
REMARK  status: ('A' for Active; 'I' for Inactive)
REMARK    1  A    between atoms: C_2  and  N_3 
REMARK    2  A    between atoms: C_2  and  C_16 
REMARK    3  A    between atoms: N_3  and  C_6 
REMARK    4  A    between atoms: C_16  and  C_17 
REMARK       I    between atoms: C_17  and  N_18 
REMARK    5  A    between atoms: N_18  and  C_19 
REMARK    6  A    between atoms: C_22  and  O_23 
ROOT
HETATM    1  C   UNL     1      42.778 -13.307   5.050  1.00  0.00     0.040 C 
HETATM    2  C   UNL     1      42.999 -13.900   6.440  1.00  0.00     0.191 C 
ENDROOT
BRANCH   2   3
HETATM    3  N   UNL     1      42.527 -15.350   6.485  1.00  0.00    -0.063 N 
HETATM    4  H   UNL     1      41.891 -15.461   7.283  1.00  0.00     0.278 HD
HETATM    5  H   UNL     1      41.947 -15.509   5.651  1.00  0.00     0.278 HD
BRANCH   3   6
HETATM    6  C   UNL     1      43.530 -16.503   6.522  1.00  0.00     0.221 C 
HETATM    7  C   UNL     1      43.601 -17.313   5.243  1.00  0.00    -0.011 A 
HETATM    8  C   UNL     1      43.640 -18.720   5.247  1.00  0.00     0.009 A 
HETATM    9  C   UNL     1      43.688 -16.650   3.998  1.00  0.00     0.011 A 
HETATM   10  C   UNL     1      43.655 -19.423   4.035  1.00  0.00     0.019 A 
HETATM   11  S   UNL     1      43.683 -19.703   6.733  1.00  0.00    -0.129 SA
HETATM   12  C   UNL     1      43.681 -18.751   2.817  1.00  0.00     0.001 A 
HETATM   13  C   UNL     1      43.714 -17.363   2.798  1.00  0.00     0.001 A 
HETATM   14  C   UNL     1      44.271 -18.471   7.918  1.00  0.00     0.082 C 
HETATM   15  C   UNL     1      43.353 -17.265   7.842  1.00  0.00     0.048 C 
ENDBRANCH   3   6
ENDBRANCH   2   3
BRANCH   2  16
HETATM   16  C   UNL     1      44.491 -13.890   6.817  1.00  0.00     0.135 C 
BRANCH  16  17
HETATM   17  C   UNL     1      44.726 -12.978   8.006  1.00  0.00     0.224 C 
HETATM   18  N   UNL     1      43.674 -12.114   8.232  1.00  0.00    -0.327 N 
HETATM   19  H   UNL     1      42.941 -12.057   7.536  1.00  0.00     0.169 HD
HETATM   20  O   UNL     1      45.776 -13.051   8.634  1.00  0.00    -0.273 OA
BRANCH  18  21
HETATM   21  C   UNL     1      43.505 -11.263   9.346  1.00  0.00     0.034 A 
HETATM   22  C   UNL     1      44.410 -11.171  10.402  1.00  0.00     0.032 A 
HETATM   23  C   UNL     1      44.145 -10.328  11.487  1.00  0.00     0.039 A 
HETATM   24  C   UNL     1      42.981  -9.561  11.532  1.00  0.00     0.068 A 
HETATM   25  C   UNL     1      42.072  -9.650  10.482  1.00  0.00     0.039 A 
HETATM   26  C   UNL     1      42.332 -10.498   9.397  1.00  0.00     0.032 A 
BRANCH  24  27
HETATM   27  O   UNL     1      42.849  -8.785  12.649  1.00  0.00    -0.356 OA
HETATM   28  C   UNL     1      43.212  -9.374  13.892  1.00  0.00     0.210 C 
ENDBRANCH  24  27
ENDBRANCH  18  21
ENDBRANCH  16  17
ENDBRANCH   2  16
TORSDOF 6
ENDMDL
MODEL 7
REMARK VINA RESULT:      -7.3      2.501      4.652
REMARK  6 active torsions:
REMARK  status: ('A' for Active; 'I' for Inactive)
REMARK    1  A    between atoms: C_2  and  N_3 
REMARK    2  A    between atoms: C_2  and  C_16 
REMARK    3  A    between atoms: N_3  and  C_6 
REMARK    4  A    between atoms: C_16  and  C_17 
REMARK       I    between atoms: C_17  and  N_18 
REMARK    5  A    between atoms: N_18  and  C_19 
REMARK    6  A    between atoms: C_22  and  O_23 
ROOT
HETATM    1  C   UNL     1      40.816 -17.361   5.600  1.00  0.00     0.040 C 
HETATM    2  C   UNL     1      41.241 -15.933   5.936  1.00  0.00     0.191 C 
ENDROOT
BRANCH   2   3
HETATM    3  N   UNL     1      42.498 -15.551   5.161  1.00  0.00    -0.063 N 
HETATM    4  H   UNL     1      42.231 -15.326   4.197  1.00  0.00     0.278 HD
HETATM    5  H   UNL     1      42.847 -14.669   5.559  1.00  0.00     0.278 HD
BRANCH   3   6
HETATM    6  C   UNL     1      43.703 -16.490   5.105  1.00  0.00     0.221 C 
HETATM    7  C   UNL     1      43.681 -17.470   3.948  1.00  0.00    -0.011 A 
HETATM    8  C   UNL     1      44.007 -18.829   4.110  1.00  0.00     0.009 A 
HETATM    9  C   UNL     1      43.379 -17.010   2.646  1.00  0.00     0.011 A 
HETATM   10  C   UNL     1      43.923 -19.704   3.019  1.00  0.00     0.019 A 
HETATM   11  S   UNL     1      44.549 -19.538   5.653  1.00  0.00    -0.129 SA
HETATM   12  C   UNL     1      43.566 -19.241   1.755  1.00  0.00     0.001 A 
HETATM   13  C   UNL     1      43.309 -17.890   1.565  1.00  0.00     0.001 A 
HETATM   14  C   UNL     1      45.097 -18.049   6.518  1.00  0.00     0.082 C 
HETATM   15  C   UNL     1      43.955 -17.050   6.511  1.00  0.00     0.048 C 
ENDBRANCH   3   6
ENDBRANCH   2   3
BRANCH   2  16
HETATM   16  C   UNL     1      40.142 -14.923   5.557  1.00  0.00     0.135 C 
BRANCH  16  17
HETATM   17  C   UNL     1      40.373 -14.399   4.154  1.00  0.00     0.224 C 
HETATM   18  N   UNL     1      39.718 -15.142   3.191  1.00  0.00    -0.327 N 
HETATM   19  H   UNL     1      39.287 -16.014   3.470  1.00  0.00     0.169 HD
HETATM   20  O   UNL     1      41.096 -13.426   3.976  1.00  0.00    -0.273 OA
BRANCH  18  21
HETATM   21  C   UNL     1      39.591 -14.824   1.821  1.00  0.00     0.034 A 
HETATM   22  C   UNL     1      40.605 -15.005   0.882  1.00  0.00     0.032 A 
HETATM   23  C   UNL     1      40.407 -14.627  -0.451  1.00  0.00     0.039 A 
HETATM   24  C   UNL     1      39.196 -14.073  -0.868  1.00  0.00     0.068 A 
HETATM   25  C   UNL     1      38.181 -13.888   0.067  1.00  0.00     0.039 A 
HETATM   26  C   UNL     1      38.379 -14.259   1.403  1.00  0.00     0.032 A 
BRANCH  24  27
HETATM   27  O   UNL     1      39.141 -13.749  -2.194  1.00  0.00    -0.356 OA
HETATM   28  C   UNL     1      39.784 -14.634  -3.103  1.00  0.00     0.210 C 
ENDBRANCH  24  27
ENDBRANCH  18  21
ENDBRANCH  16  17
ENDBRANCH   2  16
TORSDOF 6
ENDMDL
MODEL 8
REMARK VINA RESULT:      -6.9      4.115      8.253
REMARK  6 active torsions:
REMARK  status: ('A' for Active; 'I' for Inactive)
REMARK    1  A    between atoms: C_2  and  N_3 
REMARK    2  A    between atoms: C_2  and  C_16 
REMARK    3  A    between atoms: N_3  and  C_6 
REMARK    4  A    between atoms: C_16  and  C_17 
REMARK       I    between atoms: C_17  and  N_18 
REMARK    5  A    between atoms: N_18  and  C_19 
REMARK    6  A    between atoms: C_22  and  O_23 
ROOT
HETATM    1  C   UNL     1      39.645 -12.328   3.346  1.00  0.00     0.040 C 
HETATM    2  C   UNL     1      40.841 -13.035   2.714  1.00  0.00     0.191 C 
ENDROOT
BRANCH   2   3
HETATM    3  N   UNL     1      41.004 -12.614   1.256  1.00  0.00    -0.063 N 
HETATM    4  H   UNL     1      40.091 -12.309   0.901  1.00  0.00     0.278 HD
HETATM    5  H   UNL     1      41.595 -11.772   1.246  1.00  0.00     0.278 HD
BRANCH   3   6
HETATM    6  C   UNL     1      41.612 -13.565   0.226  1.00  0.00     0.221 C 
HETATM    7  C   UNL     1      41.883 -12.935  -1.126  1.00  0.00    -0.011 A 
HETATM    8  C   UNL     1      41.558 -13.580  -2.333  1.00  0.00     0.009 A 
HETATM    9  C   UNL     1      42.533 -11.682  -1.197  1.00  0.00     0.011 A 
HETATM   10  C   UNL     1      41.782 -12.933  -3.556  1.00  0.00     0.019 A 
HETATM   11  S   UNL     1      40.867 -15.221  -2.422  1.00  0.00    -0.129 SA
HETATM   12  C   UNL     1      42.371 -11.672  -3.602  1.00  0.00     0.001 A 
HETATM   13  C   UNL     1      42.761 -11.053  -2.422  1.00  0.00     0.001 A 
HETATM   14  C   UNL     1      41.336 -15.856  -0.796  1.00  0.00     0.082 C 
HETATM   15  C   UNL     1      40.831 -14.885   0.255  1.00  0.00     0.048 C 
ENDBRANCH   3   6
ENDBRANCH   2   3
BRANCH   2  16
HETATM   16  C   UNL     1      42.148 -12.677   3.445  1.00  0.00     0.135 C 
BRANCH  16  17
HETATM   17  C   UNL     1      43.075 -13.876   3.482  1.00  0.00     0.224 C 
HETATM   18  N   UNL     1      42.395 -15.078   3.453  1.00  0.00    -0.327 N 
HETATM   19  H   UNL     1      41.388 -15.062   3.557  1.00  0.00     0.169 HD
HETATM   20  O   UNL     1      44.287 -13.711   3.551  1.00  0.00    -0.273 OA
BRANCH  18  21
HETATM   21  C   UNL     1      42.959 -16.364   3.307  1.00  0.00     0.034 A 
HETATM   22  C   UNL     1      43.484 -16.854   2.112  1.00  0.00     0.032 A 
HETATM   23  C   UNL     1      43.989 -18.157   2.046  1.00  0.00     0.039 A 
HETATM   24  C   UNL     1      43.987 -18.986   3.167  1.00  0.00     0.068 A 
HETATM   25  C   UNL     1      43.461 -18.503   4.363  1.00  0.00     0.039 A 
HETATM   26  C   UNL     1      42.949 -17.201   4.430  1.00  0.00     0.032 A 
BRANCH  24  27
HETATM   27  O   UNL     1      44.508 -20.232   2.961  1.00  0.00    -0.356 OA
HETATM   28  C   UNL     1      44.984 -20.931   4.104  1.00  0.00     0.210 C 
ENDBRANCH  24  27
ENDBRANCH  18  21
ENDBRANCH  16  17
ENDBRANCH   2  16
TORSDOF 6
ENDMDL
MODEL 9
REMARK VINA RESULT:      -6.9      4.147      8.415
REMARK  6 active torsions:
REMARK  status: ('A' for Active; 'I' for Inactive)
REMARK    1  A    between atoms: C_2  and  N_3 
REMARK    2  A    between atoms: C_2  and  C_16 
REMARK    3  A    between atoms: N_3  and  C_6 
REMARK    4  A    between atoms: C_16  and  C_17 
REMARK       I    between atoms: C_17  and  N_18 
REMARK    5  A    between atoms: N_18  and  C_19 
REMARK    6  A    between atoms: C_22  and  O_23 
ROOT
HETATM    1  C   UNL     1      40.141 -13.458   5.895  1.00  0.00     0.040 C 
HETATM    2  C   UNL     1      41.172 -12.339   5.778  1.00  0.00     0.191 C 
ENDROOT
BRANCH   2   3
HETATM    3  N   UNL     1      42.068 -12.305   7.012  1.00  0.00    -0.063 N 
HETATM    4  H   UNL     1      41.707 -12.977   7.697  1.00  0.00     0.278 HD
HETATM    5  H   UNL     1      42.988 -12.670   6.732  1.00  0.00     0.278 HD
BRANCH   3   6
HETATM    6  C   UNL     1      42.346 -10.993   7.747  1.00  0.00     0.221 C 
HETATM    7  C   UNL     1      43.324 -11.114   8.898  1.00  0.00    -0.011 A 
HETATM    8  C   UNL     1      43.097 -10.498  10.143  1.00  0.00     0.009 A 
HETATM    9  C   UNL     1      44.535 -11.820   8.718  1.00  0.00     0.011 A 
HETATM   10  C   UNL     1      44.009 -10.682  11.192  1.00  0.00     0.019 A 
HETATM   11  S   UNL     1      41.694  -9.456  10.489  1.00  0.00    -0.129 SA
HETATM   12  C   UNL     1      45.168 -11.431  11.010  1.00  0.00     0.001 A 
HETATM   13  C   UNL     1      45.439 -11.987   9.767  1.00  0.00     0.001 A 
HETATM   14  C   UNL     1      41.201  -9.010   8.808  1.00  0.00     0.082 C 
HETATM   15  C   UNL     1      41.009 -10.289   8.016  1.00  0.00     0.048 C 
ENDBRANCH   3   6
ENDBRANCH   2   3
BRANCH   2  16
HETATM   16  C   UNL     1      42.082 -12.547   4.554  1.00  0.00     0.135 C 
BRANCH  16  17
HETATM   17  C   UNL     1      42.785 -13.887   4.645  1.00  0.00     0.224 C 
HETATM   18  N   UNL     1      42.304 -14.807   3.736  1.00  0.00    -0.327 N 
HETATM   19  H   UNL     1      41.467 -14.575   3.215  1.00  0.00     0.169 HD
HETATM   20  O   UNL     1      43.663 -14.061   5.482  1.00  0.00    -0.273 OA
BRANCH  18  21
HETATM   21  C   UNL     1      42.849 -16.078   3.450  1.00  0.00     0.034 A 
HETATM   22  C   UNL     1      42.862 -17.141   4.350  1.00  0.00     0.032 A 
HETATM   23  C   UNL     1      43.459 -18.357   3.998  1.00  0.00     0.039 A 
HETATM   24  C   UNL     1      44.043 -18.533   2.743  1.00  0.00     0.068 A 
HETATM   25  C   UNL     1      44.036 -17.473   1.840  1.00  0.00     0.039 A 
HETATM   26  C   UNL     1      43.444 -16.253   2.193  1.00  0.00     0.032 A 
BRANCH  24  27
HETATM   27  O   UNL     1      44.589 -19.767   2.533  1.00  0.00    -0.356 OA
HETATM   28  C   UNL     1      44.640 -20.650   3.647  1.00  0.00     0.210 C 
ENDBRANCH  24  27
ENDBRANCH  18  21
ENDBRANCH  16  17
ENDBRANCH   2  16
TORSDOF 6
ENDMDL
MODEL 10
REMARK VINA RESULT:      -6.8      1.976      3.235
REMARK  6 active torsions:
REMARK  status: ('A' for Active; 'I' for Inactive)
REMARK    1  A    between atoms: C_2  and  N_3 
REMARK    2  A    between atoms: C_2  and  C_16 
REMARK    3  A    between atoms: N_3  and  C_6 
REMARK    4  A    between atoms: C_16  and  C_17 
REMARK       I    between atoms: C_17  and  N_18 
REMARK    5  A    between atoms: N_18  and  C_19 
REMARK    6  A    between atoms: C_22  and  O_23 
ROOT
HETATM    1  C   UNL     1      42.699 -14.269   2.879  1.00  0.00     0.040 C 
HETATM    2  C   UNL     1      41.506 -15.221   2.923  1.00  0.00     0.191 C 
ENDROOT
BRANCH   2   3
HETATM    3  N   UNL     1      41.722 -16.303   3.977  1.00  0.00    -0.063 N 
HETATM    4  H   UNL     1      41.091 -16.122   4.765  1.00  0.00     0.278 HD
HETATM    5  H   UNL     1      41.404 -17.193   3.571  1.00  0.00     0.278 HD
BRANCH   3   6
HETATM    6  C   UNL     1      43.114 -16.579   4.548  1.00  0.00     0.221 C 
HETATM    7  C   UNL     1      43.705 -17.914   4.139  1.00  0.00    -0.011 A 
HETATM    8  C   UNL     1      44.354 -18.759   5.058  1.00  0.00     0.009 A 
HETATM    9  C   UNL     1      43.661 -18.314   2.785  1.00  0.00     0.011 A 
HETATM   10  C   UNL     1      44.840 -20.006   4.640  1.00  0.00     0.019 A 
HETATM   11  S   UNL     1      44.621 -18.339   6.769  1.00  0.00    -0.129 SA
HETATM   12  C   UNL     1      44.734 -20.407   3.311  1.00  0.00     0.001 A 
HETATM   13  C   UNL     1      44.158 -19.554   2.379  1.00  0.00     0.001 A 
HETATM   14  C   UNL     1      44.444 -16.542   6.692  1.00  0.00     0.082 C 
HETATM   15  C   UNL     1      43.111 -16.225   6.040  1.00  0.00     0.048 C 
ENDBRANCH   3   6
ENDBRANCH   2   3
BRANCH   2  16
HETATM   16  C   UNL     1      40.212 -14.472   3.292  1.00  0.00     0.135 C 
BRANCH  16  17
HETATM   17  C   UNL     1      40.208 -14.127   4.768  1.00  0.00     0.224 C 
HETATM   18  N   UNL     1      40.612 -12.831   5.016  1.00  0.00    -0.327 N 
HETATM   19  H   UNL     1      41.002 -12.295   4.251  1.00  0.00     0.169 HD
HETATM   20  O   UNL     1      39.887 -14.975   5.593  1.00  0.00    -0.273 OA
BRANCH  18  21
HETATM   21  C   UNL     1      40.559 -12.152   6.253  1.00  0.00     0.034 A 
HETATM   22  C   UNL     1      39.421 -12.078   7.054  1.00  0.00     0.032 A 
HETATM   23  C   UNL     1      39.446 -11.349   8.248  1.00  0.00     0.039 A 
HETATM   24  C   UNL     1      40.603 -10.693   8.665  1.00  0.00     0.068 A 
HETATM   25  C   UNL     1      41.743 -10.761   7.868  1.00  0.00     0.039 A 
HETATM   26  C   UNL     1      41.719 -11.484   6.669  1.00  0.00     0.032 A 
BRANCH  24  27
HETATM   27  O   UNL     1      40.486 -10.019   9.848  1.00  0.00    -0.356 OA
HETATM   28  C   UNL     1      40.952 -10.681  11.018  1.00  0.00     0.210 C 
ENDBRANCH  24  27
ENDBRANCH  18  21
ENDBRANCH  16  17
ENDBRANCH   2  16
TORSDOF 6
ENDMDL
