MODEL 1
REMARK VINA RESULT:      -7.8      0.000      0.000
REMARK  4 active torsions:
REMARK  status: ('A' for Active; 'I' for Inactive)
REMARK    1  A    between atoms: C_4  and  C_5 
REMARK       I    between atoms: C_5  and  N_6 
REMARK    2  A    between atoms: N_6  and  C_7 
REMARK    3  A    between atoms: C_7  and  N_8 
REMARK    4  A    between atoms: N_8  and  C_9 
ROOT
HETATM    1  C   UNL     1      42.845 -17.087   1.851  1.00  0.00     0.257 C 
HETATM    2  N   UNL     1      41.483 -16.896   2.056  1.00  0.00    -0.299 N 
HETATM    3  O   UNL     1      43.577 -16.437   1.119  1.00  0.00    -0.267 OA
HETATM    4  H   UNL     1      41.013 -17.723   2.404  1.00  0.00     0.171 HD
ENDROOT
BRANCH   2   5
HETATM    5  C   UNL     1      40.666 -16.157   1.264  1.00  0.00     0.179 C 
HETATM    6  S   UNL     1      39.576 -15.126   2.005  1.00  0.00    -0.040 SA
BRANCH   5   7
HETATM    7  N   UNL     1      40.680 -16.225  -0.084  1.00  0.00    -0.332 N 
HETATM    8  H   UNL     1      40.073 -16.952  -0.452  1.00  0.00     0.168 HD
BRANCH   7   9
HETATM    9  C   UNL     1      41.147 -15.306  -1.050  1.00  0.00     0.051 A 
HETATM   10  C   UNL     1      40.979 -15.623  -2.400  1.00  0.00     0.145 A 
HETATM   11  N   UNL     1      41.293 -14.806  -3.435  1.00  0.00    -0.271 NA
HETATM   12  C   UNL     1      41.814 -13.606  -3.110  1.00  0.00     0.116 A 
HETATM   13  C   UNL     1      42.023 -13.190  -1.806  1.00  0.00     0.021 A 
HETATM   14  C   UNL     1      41.676 -14.051  -0.763  1.00  0.00     0.032 A 
ENDBRANCH   7   9
ENDBRANCH   5   7
ENDBRANCH   2   5
BRANCH   1  15
HETATM   15  C   UNL     1      43.398 -18.255   2.586  1.00  0.00     0.033 A 
HETATM   16  C   UNL     1      43.760 -18.091   3.927  1.00  0.00     0.023 A 
HETATM   17  C   UNL     1      44.364 -19.144   4.622  1.00  0.00    -0.061 A 
HETATM   18  C   UNL     1      44.797 -18.979   6.050  1.00  0.00     0.048 C 
HETATM   19  C   UNL     1      44.561 -20.371   3.970  1.00  0.00     0.013 A 
HETATM   20  C   UNL     1      44.166 -20.554   2.637  1.00  0.00    -0.061 A 
HETATM   21  C   UNL     1      43.595 -19.482   1.941  1.00  0.00     0.023 A 
HETATM   22  C   UNL     1      44.399 -21.874   1.962  1.00  0.00     0.048 C 
ENDBRANCH   1  15
TORSDOF 4
ENDMDL
MODEL 2
REMARK VINA RESULT:      -7.8      0.479      1.966
REMARK  4 active torsions:
REMARK  status: ('A' for Active; 'I' for Inactive)
REMARK    1  A    between atoms: C_4  and  C_5 
REMARK       I    between atoms: C_5  and  N_6 
REMARK    2  A    between atoms: N_6  and  C_7 
REMARK    3  A    between atoms: C_7  and  N_8 
REMARK    4  A    between atoms: N_8  and  C_9 
ROOT
HETATM    1  C   UNL     1      43.007 -17.573   1.531  1.00  0.00     0.257 C 
HETATM    2  N   UNL     1      41.849 -16.952   1.987  1.00  0.00    -0.299 N 
HETATM    3  O   UNL     1      43.519 -17.455   0.427  1.00  0.00    -0.267 OA
HETATM    4  H   UNL     1      41.417 -17.436   2.764  1.00  0.00     0.171 HD
ENDROOT
BRANCH   2   5
HETATM    5  C   UNL     1      40.921 -16.347   1.202  1.00  0.00     0.179 C 
HETATM    6  S   UNL     1      39.724 -15.448   1.950  1.00  0.00    -0.040 SA
BRANCH   5   7
HETATM    7  N   UNL     1      40.910 -16.448  -0.144  1.00  0.00    -0.332 N 
HETATM    8  H   UNL     1      40.426 -17.276  -0.477  1.00  0.00     0.168 HD
BRANCH   7   9
HETATM    9  C   UNL     1      41.189 -15.490  -1.144  1.00  0.00     0.051 A 
HETATM   10  C   UNL     1      40.899 -15.815  -2.471  1.00  0.00     0.145 A 
HETATM   11  N   UNL     1      41.027 -14.971  -3.524  1.00  0.00    -0.271 NA
HETATM   12  C   UNL     1      41.478 -13.733  -3.244  1.00  0.00     0.116 A 
HETATM   13  C   UNL     1      41.794 -13.304  -1.965  1.00  0.00     0.021 A 
HETATM   14  C   UNL     1      41.639 -14.195  -0.902  1.00  0.00     0.032 A 
ENDBRANCH   7   9
ENDBRANCH   5   7
ENDBRANCH   2   5
BRANCH   1  15
HETATM   15  C   UNL     1      43.607 -18.507   2.520  1.00  0.00     0.033 A 
HETATM   16  C   UNL     1      43.796 -19.842   2.149  1.00  0.00     0.023 A 
HETATM   17  C   UNL     1      44.276 -20.765   3.084  1.00  0.00    -0.061 A 
HETATM   18  C   UNL     1      44.450 -22.211   2.722  1.00  0.00     0.048 C 
HETATM   19  C   UNL     1      44.602 -20.325   4.376  1.00  0.00     0.013 A 
HETATM   20  C   UNL     1      44.451 -18.980   4.743  1.00  0.00    -0.061 A 
HETATM   21  C   UNL     1      43.936 -18.072   3.810  1.00  0.00     0.023 A 
HETATM   22  C   UNL     1      44.796 -18.540   6.135  1.00  0.00     0.048 C 
ENDBRANCH   1  15
TORSDOF 4
ENDMDL
MODEL 3
REMARK VINA RESULT:      -7.7      2.077      3.096
REMARK  4 active torsions:
REMARK  status: ('A' for Active; 'I' for Inactive)
REMARK    1  A    between atoms: C_4  and  C_5 
REMARK       I    between atoms: C_5  and  N_6 
REMARK    2  A    between atoms: N_6  and  C_7 
REMARK    3  A    between atoms: C_7  and  N_8 
REMARK    4  A    between atoms: N_8  and  C_9 
ROOT
HETATM    1  C   UNL     1      41.663 -17.412   2.334  1.00  0.00     0.257 C 
HETATM    2  N   UNL     1      41.487 -16.333   3.193  1.00  0.00    -0.299 N 
HETATM    3  O   UNL     1      41.036 -17.648   1.312  1.00  0.00    -0.267 OA
HETATM    4  H   UNL     1      41.843 -16.504   4.125  1.00  0.00     0.171 HD
ENDROOT
BRANCH   2   5
HETATM    5  C   UNL     1      40.403 -15.517   3.218  1.00  0.00     0.179 C 
HETATM    6  S   UNL     1      40.294 -14.391   4.451  1.00  0.00    -0.040 SA
BRANCH   5   7
HETATM    7  N   UNL     1      39.407 -15.581   2.309  1.00  0.00    -0.332 N 
HETATM    8  H   UNL     1      38.677 -16.238   2.565  1.00  0.00     0.168 HD
BRANCH   7   9
HETATM    9  C   UNL     1      39.069 -14.712   1.247  1.00  0.00     0.051 A 
HETATM   10  C   UNL     1      40.053 -14.404   0.306  1.00  0.00     0.145 A 
HETATM   11  N   UNL     1      39.856 -13.662  -0.811  1.00  0.00    -0.271 NA
HETATM   12  C   UNL     1      38.609 -13.189  -0.999  1.00  0.00     0.116 A 
HETATM   13  C   UNL     1      37.558 -13.434  -0.131  1.00  0.00     0.021 A 
HETATM   14  C   UNL     1      37.792 -14.214   1.003  1.00  0.00     0.032 A 
ENDBRANCH   7   9
ENDBRANCH   5   7
ENDBRANCH   2   5
BRANCH   1  15
HETATM   15  C   UNL     1      42.701 -18.372   2.793  1.00  0.00     0.033 A 
HETATM   16  C   UNL     1      42.947 -19.511   2.020  1.00  0.00     0.023 A 
HETATM   17  C   UNL     1      43.853 -20.478   2.469  1.00  0.00    -0.061 A 
HETATM   18  C   UNL     1      44.105 -21.728   1.676  1.00  0.00     0.048 C 
HETATM   19  C   UNL     1      44.537 -20.267   3.676  1.00  0.00     0.013 A 
HETATM   20  C   UNL     1      44.324 -19.109   4.437  1.00  0.00    -0.061 A 
HETATM   21  C   UNL     1      43.388 -18.166   3.996  1.00  0.00     0.023 A 
HETATM   22  C   UNL     1      45.061 -18.916   5.730  1.00  0.00     0.048 C 
ENDBRANCH   1  15
TORSDOF 4
ENDMDL
MODEL 4
REMARK VINA RESULT:      -7.7      1.322      2.503
REMARK  4 active torsions:
REMARK  status: ('A' for Active; 'I' for Inactive)
REMARK    1  A    between atoms: C_4  and  C_5 
REMARK       I    between atoms: C_5  and  N_6 
REMARK    2  A    between atoms: N_6  and  C_7 
REMARK    3  A    between atoms: C_7  and  N_8 
REMARK    4  A    between atoms: N_8  and  C_9 
ROOT
HETATM    1  C   UNL     1      42.230 -17.369   1.789  1.00  0.00     0.257 C 
HETATM    2  N   UNL     1      42.777 -16.091   1.827  1.00  0.00    -0.299 N 
HETATM    3  O   UNL     1      41.147 -17.692   1.323  1.00  0.00    -0.267 OA
HETATM    4  H   UNL     1      43.486 -15.982   2.541  1.00  0.00     0.171 HD
ENDROOT
BRANCH   2   5
HETATM    5  C   UNL     1      42.091 -14.936   1.628  1.00  0.00     0.179 C 
HETATM    6  S   UNL     1      42.476 -13.619   2.586  1.00  0.00    -0.040 SA
BRANCH   5   7
HETATM    7  N   UNL     1      41.109 -14.807   0.711  1.00  0.00    -0.332 N 
HETATM    8  H   UNL     1      40.208 -14.584   1.122  1.00  0.00     0.168 HD
BRANCH   7   9
HETATM    9  C   UNL     1      41.171 -14.645  -0.691  1.00  0.00     0.051 A 
HETATM   10  C   UNL     1      41.624 -13.424  -1.195  1.00  0.00     0.145 A 
HETATM   11  N   UNL     1      41.823 -13.151  -2.508  1.00  0.00    -0.271 NA
HETATM   12  C   UNL     1      41.546 -14.147  -3.372  1.00  0.00     0.116 A 
HETATM   13  C   UNL     1      41.093 -15.397  -2.981  1.00  0.00     0.021 A 
HETATM   14  C   UNL     1      40.912 -15.648  -1.620  1.00  0.00     0.032 A 
ENDBRANCH   7   9
ENDBRANCH   5   7
ENDBRANCH   2   5
BRANCH   1  15
HETATM   15  C   UNL     1      43.077 -18.396   2.451  1.00  0.00     0.033 A 
HETATM   16  C   UNL     1      43.308 -19.603   1.784  1.00  0.00     0.023 A 
HETATM   17  C   UNL     1      44.026 -20.624   2.416  1.00  0.00    -0.061 A 
HETATM   18  C   UNL     1      44.254 -21.943   1.736  1.00  0.00     0.048 C 
HETATM   19  C   UNL     1      44.542 -20.404   3.702  1.00  0.00     0.013 A 
HETATM   20  C   UNL     1      44.346 -19.182   4.362  1.00  0.00    -0.061 A 
HETATM   21  C   UNL     1      43.595 -18.181   3.734  1.00  0.00     0.023 A 
HETATM   22  C   UNL     1      44.899 -18.979   5.742  1.00  0.00     0.048 C 
ENDBRANCH   1  15
TORSDOF 4
ENDMDL
MODEL 5
REMARK VINA RESULT:      -7.7      2.072      2.446
REMARK  4 active torsions:
REMARK  status: ('A' for Active; 'I' for Inactive)
REMARK    1  A    between atoms: C_4  and  C_5 
REMARK       I    between atoms: C_5  and  N_6 
REMARK    2  A    between atoms: N_6  and  C_7 
REMARK    3  A    between atoms: C_7  and  N_8 
REMARK    4  A    between atoms: N_8  and  C_9 
ROOT
HETATM    1  C   UNL     1      41.685 -17.421   2.377  1.00  0.00     0.257 C 
HETATM    2  N   UNL     1      41.540 -16.348   3.248  1.00  0.00    -0.299 N 
HETATM    3  O   UNL     1      41.068 -17.616   1.340  1.00  0.00    -0.267 OA
HETATM    4  H   UNL     1      41.870 -16.546   4.184  1.00  0.00     0.171 HD
ENDROOT
BRANCH   2   5
HETATM    5  C   UNL     1      40.490 -15.486   3.265  1.00  0.00     0.179 C 
HETATM    6  S   UNL     1      40.468 -14.298   4.443  1.00  0.00    -0.040 SA
BRANCH   5   7
HETATM    7  N   UNL     1      39.464 -15.553   2.390  1.00  0.00    -0.332 N 
HETATM    8  H   UNL     1      38.726 -16.182   2.691  1.00  0.00     0.168 HD
BRANCH   7   9
HETATM    9  C   UNL     1      39.113 -14.709   1.313  1.00  0.00     0.051 A 
HETATM   10  C   UNL     1      40.112 -14.342   0.408  1.00  0.00     0.145 A 
HETATM   11  N   UNL     1      39.912 -13.615  -0.718  1.00  0.00    -0.271 NA
HETATM   12  C   UNL     1      38.645 -13.222  -0.956  1.00  0.00     0.116 A 
HETATM   13  C   UNL     1      37.579 -13.530  -0.127  1.00  0.00     0.021 A 
HETATM   14  C   UNL     1      37.818 -14.291   1.018  1.00  0.00     0.032 A 
ENDBRANCH   7   9
ENDBRANCH   5   7
ENDBRANCH   2   5
BRANCH   1  15
HETATM   15  C   UNL     1      42.673 -18.431   2.840  1.00  0.00     0.033 A 
HETATM   16  C   UNL     1      43.352 -18.200   4.040  1.00  0.00     0.023 A 
HETATM   17  C   UNL     1      44.351 -19.086   4.460  1.00  0.00    -0.061 A 
HETATM   18  C   UNL     1      45.121 -18.839   5.724  1.00  0.00     0.048 C 
HETATM   19  C   UNL     1      44.627 -20.223   3.685  1.00  0.00     0.013 A 
HETATM   20  C   UNL     1      43.923 -20.481   2.500  1.00  0.00    -0.061 A 
HETATM   21  C   UNL     1      42.951 -19.568   2.072  1.00  0.00     0.023 A 
HETATM   22  C   UNL     1      44.248 -21.698   1.686  1.00  0.00     0.048 C 
ENDBRANCH   1  15
TORSDOF 4
ENDMDL
MODEL 6
REMARK VINA RESULT:      -7.6      1.239      1.267
REMARK  4 active torsions:
REMARK  status: ('A' for Active; 'I' for Inactive)
REMARK    1  A    between atoms: C_4  and  C_5 
REMARK       I    between atoms: C_5  and  N_6 
REMARK    2  A    between atoms: N_6  and  C_7 
REMARK    3  A    between atoms: C_7  and  N_8 
REMARK    4  A    between atoms: N_8  and  C_9 
ROOT
HETATM    1  C   UNL     1      42.195 -17.399   1.665  1.00  0.00     0.257 C 
HETATM    2  N   UNL     1      42.749 -16.127   1.763  1.00  0.00    -0.299 N 
HETATM    3  O   UNL     1      41.149 -17.705   1.111  1.00  0.00    -0.267 OA
HETATM    4  H   UNL     1      43.401 -16.035   2.532  1.00  0.00     0.171 HD
ENDROOT
BRANCH   2   5
HETATM    5  C   UNL     1      42.090 -14.964   1.528  1.00  0.00     0.179 C 
HETATM    6  S   UNL     1      42.419 -13.660   2.524  1.00  0.00    -0.040 SA
BRANCH   5   7
HETATM    7  N   UNL     1      41.178 -14.815   0.544  1.00  0.00    -0.332 N 
HETATM    8  H   UNL     1      40.233 -14.692   0.894  1.00  0.00     0.168 HD
BRANCH   7   9
HETATM    9  C   UNL     1      41.340 -14.518  -0.827  1.00  0.00     0.051 A 
HETATM   10  C   UNL     1      41.002 -15.500  -1.761  1.00  0.00     0.145 A 
HETATM   11  N   UNL     1      41.019 -15.333  -3.106  1.00  0.00    -0.271 NA
HETATM   12  C   UNL     1      41.402 -14.120  -3.551  1.00  0.00     0.116 A 
HETATM   13  C   UNL     1      41.756 -13.074  -2.714  1.00  0.00     0.021 A 
HETATM   14  C   UNL     1      41.716 -13.277  -1.334  1.00  0.00     0.032 A 
ENDBRANCH   7   9
ENDBRANCH   5   7
ENDBRANCH   2   5
BRANCH   1  15
HETATM   15  C   UNL     1      42.979 -18.443   2.376  1.00  0.00     0.033 A 
HETATM   16  C   UNL     1      43.474 -18.155   3.651  1.00  0.00     0.023 A 
HETATM   17  C   UNL     1      44.289 -19.082   4.311  1.00  0.00    -0.061 A 
HETATM   18  C   UNL     1      44.864 -18.780   5.663  1.00  0.00     0.048 C 
HETATM   19  C   UNL     1      44.564 -20.312   3.694  1.00  0.00     0.013 A 
HETATM   20  C   UNL     1      44.039 -20.623   2.431  1.00  0.00    -0.061 A 
HETATM   21  C   UNL     1      43.254 -19.673   1.766  1.00  0.00     0.023 A 
HETATM   22  C   UNL     1      44.359 -21.942   1.791  1.00  0.00     0.048 C 
ENDBRANCH   1  15
TORSDOF 4
ENDMDL
MODEL 7
REMARK VINA RESULT:      -7.3      2.714      4.120
REMARK  4 active torsions:
REMARK  status: ('A' for Active; 'I' for Inactive)
REMARK    1  A    between atoms: C_4  and  C_5 
REMARK       I    between atoms: C_5  and  N_6 
REMARK    2  A    between atoms: N_6  and  C_7 
REMARK    3  A    between atoms: C_7  and  N_8 
REMARK    4  A    between atoms: N_8  and  C_9 
ROOT
HETATM    1  C   UNL     1      41.737 -17.330   2.050  1.00  0.00     0.257 C 
HETATM    2  N   UNL     1      42.374 -16.363   1.280  1.00  0.00    -0.299 N 
HETATM    3  O   UNL     1      40.550 -17.375   2.340  1.00  0.00    -0.267 OA
HETATM    4  H   UNL     1      43.371 -16.312   1.449  1.00  0.00     0.171 HD
ENDROOT
BRANCH   2   5
HETATM    5  C   UNL     1      41.861 -15.146   0.965  1.00  0.00     0.179 C 
HETATM    6  S   UNL     1      41.472 -14.847  -0.635  1.00  0.00    -0.040 SA
BRANCH   5   7
HETATM    7  N   UNL     1      41.666 -14.167   1.874  1.00  0.00    -0.332 N 
HETATM    8  H   UNL     1      40.934 -13.516   1.606  1.00  0.00     0.168 HD
BRANCH   7   9
HETATM    9  C   UNL     1      42.083 -14.061   3.220  1.00  0.00     0.051 A 
HETATM   10  C   UNL     1      43.441 -13.865   3.477  1.00  0.00     0.145 A 
HETATM   11  N   UNL     1      43.978 -13.657   4.705  1.00  0.00    -0.271 NA
HETATM   12  C   UNL     1      43.114 -13.652   5.739  1.00  0.00     0.116 A 
HETATM   13  C   UNL     1      41.749 -13.835   5.598  1.00  0.00     0.021 A 
HETATM   14  C   UNL     1      41.228 -14.034   4.318  1.00  0.00     0.032 A 
ENDBRANCH   7   9
ENDBRANCH   5   7
ENDBRANCH   2   5
BRANCH   1  15
HETATM   15  C   UNL     1      42.662 -18.359   2.593  1.00  0.00     0.033 A 
HETATM   16  C   UNL     1      43.297 -18.111   3.814  1.00  0.00     0.023 A 
HETATM   17  C   UNL     1      44.239 -19.018   4.309  1.00  0.00    -0.061 A 
HETATM   18  C   UNL     1      44.963 -18.755   5.597  1.00  0.00     0.048 C 
HETATM   19  C   UNL     1      44.504 -20.193   3.587  1.00  0.00     0.013 A 
HETATM   20  C   UNL     1      43.843 -20.466   2.381  1.00  0.00    -0.061 A 
HETATM   21  C   UNL     1      42.928 -19.533   1.878  1.00  0.00     0.023 A 
HETATM   22  C   UNL     1      44.155 -21.724   1.625  1.00  0.00     0.048 C 
ENDBRANCH   1  15
TORSDOF 4
ENDMDL
MODEL 8
REMARK VINA RESULT:      -7.0      2.862      4.628
REMARK  4 active torsions:
REMARK  status: ('A' for Active; 'I' for Inactive)
REMARK    1  A    between atoms: C_4  and  C_5 
REMARK       I    between atoms: C_5  and  N_6 
REMARK    2  A    between atoms: N_6  and  C_7 
REMARK    3  A    between atoms: C_7  and  N_8 
REMARK    4  A    between atoms: N_8  and  C_9 
ROOT
HETATM    1  C   UNL     1      41.840 -17.514   1.672  1.00  0.00     0.257 C 
HETATM    2  N   UNL     1      42.087 -16.167   1.911  1.00  0.00    -0.299 N 
HETATM    3  O   UNL     1      40.919 -17.989   1.024  1.00  0.00    -0.267 OA
HETATM    4  H   UNL     1      42.663 -16.006   2.728  1.00  0.00     0.171 HD
ENDROOT
BRANCH   2   5
HETATM    5  C   UNL     1      41.196 -15.159   1.725  1.00  0.00     0.179 C 
HETATM    6  S   UNL     1      41.512 -14.043   0.519  1.00  0.00    -0.040 SA
BRANCH   5   7
HETATM    7  N   UNL     1      40.083 -15.008   2.474  1.00  0.00    -0.332 N 
HETATM    8  H   UNL     1      39.466 -15.812   2.434  1.00  0.00     0.168 HD
BRANCH   7   9
HETATM    9  C   UNL     1      39.778 -14.082   3.497  1.00  0.00     0.051 A 
HETATM   10  C   UNL     1      40.037 -14.449   4.819  1.00  0.00     0.145 A 
HETATM   11  N   UNL     1      39.882 -13.639   5.895  1.00  0.00    -0.271 NA
HETATM   12  C   UNL     1      39.434 -12.394   5.644  1.00  0.00     0.116 A 
HETATM   13  C   UNL     1      39.146 -11.926   4.372  1.00  0.00     0.021 A 
HETATM   14  C   UNL     1      39.329 -12.782   3.285  1.00  0.00     0.032 A 
ENDBRANCH   7   9
ENDBRANCH   5   7
ENDBRANCH   2   5
BRANCH   1  15
HETATM   15  C   UNL     1      42.802 -18.423   2.349  1.00  0.00     0.033 A 
HETATM   16  C   UNL     1      43.087 -19.656   1.756  1.00  0.00     0.023 A 
HETATM   17  C   UNL     1      43.919 -20.571   2.411  1.00  0.00    -0.061 A 
HETATM   18  C   UNL     1      44.209 -21.917   1.814  1.00  0.00     0.048 C 
HETATM   19  C   UNL     1      44.491 -20.216   3.643  1.00  0.00     0.013 A 
HETATM   20  C   UNL     1      44.239 -18.965   4.225  1.00  0.00    -0.061 A 
HETATM   21  C   UNL     1      43.376 -18.073   3.577  1.00  0.00     0.023 A 
HETATM   22  C   UNL     1      44.855 -18.618   5.548  1.00  0.00     0.048 C 
ENDBRANCH   1  15
TORSDOF 4
ENDMDL
MODEL 9
REMARK VINA RESULT:      -6.8      2.373      3.157
REMARK  4 active torsions:
REMARK  status: ('A' for Active; 'I' for Inactive)
REMARK    1  A    between atoms: C_4  and  C_5 
REMARK       I    between atoms: C_5  and  N_6 
REMARK    2  A    between atoms: N_6  and  C_7 
REMARK    3  A    between atoms: C_7  and  N_8 
REMARK    4  A    between atoms: N_8  and  C_9 
ROOT
HETATM    1  C   UNL     1      40.375 -15.657   1.501  1.00  0.00     0.257 C 
HETATM    2  N   UNL     1      41.149 -15.044   0.523  1.00  0.00    -0.299 N 
HETATM    3  O   UNL     1      39.201 -15.432   1.758  1.00  0.00    -0.267 OA
HETATM    4  H   UNL     1      42.144 -15.111   0.702  1.00  0.00     0.171 HD
ENDROOT
BRANCH   2   5
HETATM    5  C   UNL     1      40.837 -13.888  -0.116  1.00  0.00     0.179 C 
HETATM    6  S   UNL     1      41.893 -12.598   0.032  1.00  0.00    -0.040 SA
BRANCH   5   7
HETATM    7  N   UNL     1      39.714 -13.726  -0.848  1.00  0.00    -0.332 N 
HETATM    8  H   UNL     1      39.210 -12.875  -0.620  1.00  0.00     0.168 HD
BRANCH   7   9
HETATM    9  C   UNL     1      39.287 -14.362  -2.035  1.00  0.00     0.051 A 
HETATM   10  C   UNL     1      40.236 -15.051  -2.794  1.00  0.00     0.145 A 
HETATM   11  N   UNL     1      39.963 -15.781  -3.903  1.00  0.00    -0.271 NA
HETATM   12  C   UNL     1      38.673 -15.821  -4.287  1.00  0.00     0.116 A 
HETATM   13  C   UNL     1      37.651 -15.177  -3.609  1.00  0.00     0.021 A 
HETATM   14  C   UNL     1      37.965 -14.444  -2.463  1.00  0.00     0.032 A 
ENDBRANCH   7   9
ENDBRANCH   5   7
ENDBRANCH   2   5
BRANCH   1  15
HETATM   15  C   UNL     1      41.127 -16.641   2.323  1.00  0.00     0.033 A 
HETATM   16  C   UNL     1      41.065 -16.536   3.716  1.00  0.00     0.023 A 
HETATM   17  C   UNL     1      41.831 -17.390   4.517  1.00  0.00    -0.061 A 
HETATM   18  C   UNL     1      41.811 -17.271   6.013  1.00  0.00     0.048 C 
HETATM   19  C   UNL     1      42.624 -18.374   3.905  1.00  0.00     0.013 A 
HETATM   20  C   UNL     1      42.662 -18.509   2.510  1.00  0.00    -0.061 A 
HETATM   21  C   UNL     1      41.919 -17.625   1.718  1.00  0.00     0.023 A 
HETATM   22  C   UNL     1      43.528 -19.562   1.883  1.00  0.00     0.048 C 
ENDBRANCH   1  15
TORSDOF 4
ENDMDL
MODEL 10
REMARK VINA RESULT:      -6.8      4.422      5.675
REMARK  4 active torsions:
REMARK  status: ('A' for Active; 'I' for Inactive)
REMARK    1  A    between atoms: C_4  and  C_5 
REMARK       I    between atoms: C_5  and  N_6 
REMARK    2  A    between atoms: N_6  and  C_7 
REMARK    3  A    between atoms: C_7  and  N_8 
REMARK    4  A    between atoms: N_8  and  C_9 
ROOT
HETATM    1  C   UNL     1      42.660 -15.941   5.601  1.00  0.00     0.257 C 
HETATM    2  N   UNL     1      43.403 -14.770   5.492  1.00  0.00    -0.299 N 
HETATM    3  O   UNL     1      41.741 -16.159   6.377  1.00  0.00    -0.267 OA
HETATM    4  H   UNL     1      44.307 -14.911   5.060  1.00  0.00     0.171 HD
ENDROOT
BRANCH   2   5
HETATM    5  C   UNL     1      43.444 -13.776   6.416  1.00  0.00     0.179 C 
HETATM    6  S   UNL     1      44.789 -13.680   7.407  1.00  0.00    -0.040 SA
BRANCH   5   7
HETATM    7  N   UNL     1      42.450 -12.878   6.582  1.00  0.00    -0.332 N 
HETATM    8  H   UNL     1      42.654 -12.187   7.296  1.00  0.00     0.168 HD
BRANCH   7   9
HETATM    9  C   UNL     1      41.341 -12.568   5.764  1.00  0.00     0.051 A 
HETATM   10  C   UNL     1      40.061 -12.696   6.308  1.00  0.00     0.145 A 
HETATM   11  N   UNL     1      38.911 -12.352   5.678  1.00  0.00    -0.271 NA
HETATM   12  C   UNL     1      39.039 -11.859   4.431  1.00  0.00     0.116 A 
HETATM   13  C   UNL     1      40.258 -11.689   3.796  1.00  0.00     0.021 A 
HETATM   14  C   UNL     1      41.424 -12.041   4.478  1.00  0.00     0.032 A 
ENDBRANCH   7   9
ENDBRANCH   5   7
ENDBRANCH   2   5
BRANCH   1  15
HETATM   15  C   UNL     1      43.118 -17.021   4.688  1.00  0.00     0.033 A 
HETATM   16  C   UNL     1      43.574 -18.219   5.246  1.00  0.00     0.023 A 
HETATM   17  C   UNL     1      44.095 -19.221   4.420  1.00  0.00    -0.061 A 
HETATM   18  C   UNL     1      44.627 -20.500   4.998  1.00  0.00     0.048 C 
HETATM   19  C   UNL     1      44.111 -19.023   3.031  1.00  0.00     0.013 A 
HETATM   20  C   UNL     1      43.621 -17.839   2.462  1.00  0.00    -0.061 A 
HETATM   21  C   UNL     1      43.136 -16.829   3.302  1.00  0.00     0.023 A 
HETATM   22  C   UNL     1      43.662 -17.650   0.974  1.00  0.00     0.048 C 
ENDBRANCH   1  15
TORSDOF 4
ENDMDL
