MODEL 1
REMARK VINA RESULT:      -8.0      0.000      0.000
REMARK  9 active torsions:
REMARK  status: ('A' for Active; 'I' for Inactive)
REMARK    1  A    between atoms: C_5  and  C_6 
REMARK    2  A    between atoms: C_8  and  C_9 
REMARK    3  A    between atoms: C_9  and  C_10 
REMARK       I    between atoms: C_10  and  N_11 
REMARK    4  A    between atoms: N_11  and  C_12 
REMARK    5  A    between atoms: C_12  and  C_13 
REMARK    6  A    between atoms: C_13  and  N_14 
REMARK    7  A    between atoms: C_28  and  C_29 
REMARK    8  A    between atoms: C_29  and  O_30 
REMARK    9  A    between atoms: O_30  and  C_31 
ROOT
HETATM    1  C   UNL     1      40.685 -15.074   1.472  1.00  0.00     0.166 C 
HETATM    2  N   UNL     1      40.779 -14.039   2.518  1.00  0.00    -0.319 N 
HETATM    3  C   UNL     1      41.614 -13.537   3.367  1.00  0.00     0.011 C 
HETATM    4  C   UNL     1      39.432 -13.269   2.553  1.00  0.00     0.170 C 
HETATM    5  S   UNL     1      39.180 -12.524   4.086  1.00  0.00    -0.086 SA
HETATM    6  C   UNL     1      40.965 -12.687   4.453  1.00  0.00     0.135 C 
HETATM    7  N   UNL     1      38.687 -13.114   1.510  1.00  0.00    -0.229 NA
HETATM    8  C   UNL     1      39.233 -13.506   0.285  1.00  0.00     0.048 C 
HETATM    9  C   UNL     1      38.681 -12.734  -0.891  1.00  0.00     0.071 C 
HETATM   10  C   UNL     1      40.254 -14.400   0.211  1.00  0.00     0.069 C 
ENDROOT
BRANCH   3  11
HETATM   11  C   UNL     1      43.098 -13.765   3.271  1.00  0.00     0.156 C 
BRANCH  11  12
HETATM   12  C   UNL     1      43.711 -14.286   4.569  1.00  0.00     0.223 C 
HETATM   13  N   UNL     1      43.280 -15.523   4.967  1.00  0.00    -0.359 N 
HETATM   14  H   UNL     1      42.541 -15.963   4.421  1.00  0.00     0.162 HD
HETATM   15  O   UNL     1      44.540 -13.647   5.210  1.00  0.00    -0.273 OA
BRANCH  13  16
HETATM   16  C   UNL     1      43.500 -16.121   6.292  1.00  0.00     0.150 C 
BRANCH  16  17
HETATM   17  C   UNL     1      44.857 -16.814   6.576  1.00  0.00     0.254 C 
BRANCH  17  18
HETATM   18  N   UNL     1      44.768 -18.327   6.691  1.00  0.00    -0.070 N 
HETATM   19  H   UNL     1      45.678 -18.624   7.096  1.00  0.00     0.279 HD
HETATM   20  C   UNL     1      43.678 -18.819   7.615  1.00  0.00     0.235 C 
HETATM   21  C   UNL     1      43.784 -20.331   7.769  1.00  0.00     0.028 C 
HETATM   22  C   UNL     1      43.712 -21.040   6.424  1.00  0.00     0.003 C 
HETATM   23  C   UNL     1      44.754 -20.488   5.460  1.00  0.00     0.028 C 
HETATM   24  C   UNL     1      44.657 -18.974   5.324  1.00  0.00     0.235 C 
ENDBRANCH  17  18
ENDBRANCH  16  17
ENDBRANCH  13  16
ENDBRANCH  11  12
ENDBRANCH   3  11
BRANCH   1  25
HETATM   25  C   UNL     1      41.614 -16.265   1.634  1.00  0.00    -0.030 A 
HETATM   26  C   UNL     1      41.258 -17.236   2.604  1.00  0.00     0.010 A 
HETATM   27  C   UNL     1      41.968 -18.430   2.752  1.00  0.00     0.007 A 
HETATM   28  C   UNL     1      43.067 -18.696   1.942  1.00  0.00    -0.062 A 
HETATM   29  C   UNL     1      43.758 -20.028   2.003  1.00  0.00     0.048 C 
HETATM   30  C   UNL     1      43.456 -17.735   1.004  1.00  0.00     0.007 A 
HETATM   31  C   UNL     1      42.751 -16.530   0.863  1.00  0.00     0.010 A 
ENDBRANCH   1  25
BRANCH  10  32
HETATM   32  C   UNL     1      41.059 -14.503  -1.000  1.00  0.00     0.294 C 
HETATM   33  O   UNL     1      40.743 -15.290  -1.879  1.00  0.00    -0.259 OA
BRANCH  32  34
HETATM   34  O   UNL     1      42.092 -13.647  -0.958  1.00  0.00    -0.313 OA
BRANCH  34  35
HETATM   35  C   UNL     1      42.075 -12.444  -1.767  1.00  0.00     0.124 C 
HETATM   36  C   UNL     1      42.923 -11.322  -1.174  1.00  0.00     0.040 C 
HETATM   37  C   UNL     1      42.429 -12.748  -3.219  1.00  0.00     0.040 C 
ENDBRANCH  34  35
ENDBRANCH  32  34
ENDBRANCH  10  32
TORSDOF 9
ENDMDL
MODEL 2
REMARK VINA RESULT:      -7.9      1.441      1.943
REMARK  9 active torsions:
REMARK  status: ('A' for Active; 'I' for Inactive)
REMARK    1  A    between atoms: C_5  and  C_6 
REMARK    2  A    between atoms: C_8  and  C_9 
REMARK    3  A    between atoms: C_9  and  C_10 
REMARK       I    between atoms: C_10  and  N_11 
REMARK    4  A    between atoms: N_11  and  C_12 
REMARK    5  A    between atoms: C_12  and  C_13 
REMARK    6  A    between atoms: C_13  and  N_14 
REMARK    7  A    between atoms: C_28  and  C_29 
REMARK    8  A    between atoms: C_29  and  O_30 
REMARK    9  A    between atoms: O_30  and  C_31 
ROOT
HETATM    1  C   UNL     1      39.982 -14.561   0.545  1.00  0.00     0.166 C 
HETATM    2  N   UNL     1      40.053 -13.321   1.339  1.00  0.00    -0.319 N 
HETATM    3  C   UNL     1      40.867 -12.643   2.080  1.00  0.00     0.011 C 
HETATM    4  C   UNL     1      38.710 -12.563   1.165  1.00  0.00     0.170 C 
HETATM    5  S   UNL     1      38.420 -11.498   2.489  1.00  0.00    -0.086 SA
HETATM    6  C   UNL     1      40.193 -11.575   2.933  1.00  0.00     0.135 C 
HETATM    7  N   UNL     1      37.996 -12.642   0.093  1.00  0.00    -0.229 NA
HETATM    8  C   UNL     1      38.573 -13.295  -0.999  1.00  0.00     0.048 C 
HETATM    9  C   UNL     1      38.059 -12.802  -2.332  1.00  0.00     0.071 C 
HETATM   10  C   UNL     1      39.590 -14.182  -0.845  1.00  0.00     0.069 C 
ENDROOT
BRANCH   3  11
HETATM   11  C   UNL     1      42.351 -12.887   2.079  1.00  0.00     0.156 C 
BRANCH  11  12
HETATM   12  C   UNL     1      42.854 -13.539   3.365  1.00  0.00     0.223 C 
HETATM   13  N   UNL     1      41.884 -14.075   4.169  1.00  0.00    -0.359 N 
HETATM   14  H   UNL     1      40.913 -13.936   3.894  1.00  0.00     0.162 HD
HETATM   15  O   UNL     1      44.045 -13.589   3.657  1.00  0.00    -0.273 OA
BRANCH  13  16
HETATM   16  C   UNL     1      42.070 -14.507   5.562  1.00  0.00     0.150 C 
BRANCH  16  17
HETATM   17  C   UNL     1      41.442 -15.850   6.012  1.00  0.00     0.254 C 
BRANCH  17  18
HETATM   18  N   UNL     1      42.451 -16.968   6.220  1.00  0.00    -0.070 N 
HETATM   19  H   UNL     1      41.910 -17.848   6.108  1.00  0.00     0.279 HD
HETATM   20  C   UNL     1      43.571 -16.992   5.206  1.00  0.00     0.235 C 
HETATM   21  C   UNL     1      44.426 -18.234   5.420  1.00  0.00     0.028 C 
HETATM   22  C   UNL     1      44.978 -18.301   6.837  1.00  0.00     0.003 C 
HETATM   23  C   UNL     1      43.858 -18.192   7.864  1.00  0.00     0.028 C 
HETATM   24  C   UNL     1      42.995 -16.959   7.635  1.00  0.00     0.235 C 
ENDBRANCH  17  18
ENDBRANCH  16  17
ENDBRANCH  13  16
ENDBRANCH  11  12
ENDBRANCH   3  11
BRANCH   1  25
HETATM   25  C   UNL     1      40.900 -15.687   0.992  1.00  0.00    -0.030 A 
HETATM   26  C   UNL     1      40.433 -16.524   2.037  1.00  0.00     0.010 A 
HETATM   27  C   UNL     1      41.135 -17.662   2.443  1.00  0.00     0.007 A 
HETATM   28  C   UNL     1      42.335 -18.001   1.826  1.00  0.00    -0.062 A 
HETATM   29  C   UNL     1      43.031 -19.288   2.163  1.00  0.00     0.048 C 
HETATM   30  C   UNL     1      42.830 -17.168   0.819  1.00  0.00     0.007 A 
HETATM   31  C   UNL     1      42.131 -16.019   0.418  1.00  0.00     0.010 A 
ENDBRANCH   1  25
BRANCH  10  32
HETATM   32  C   UNL     1      40.428 -14.549  -1.980  1.00  0.00     0.294 C 
HETATM   33  O   UNL     1      40.014 -15.338  -2.816  1.00  0.00    -0.259 OA
BRANCH  32  34
HETATM   34  O   UNL     1      41.607 -13.909  -1.927  1.00  0.00    -0.313 OA
BRANCH  34  35
HETATM   35  C   UNL     1      41.682 -12.496  -2.242  1.00  0.00     0.124 C 
HETATM   36  C   UNL     1      42.841 -11.795  -1.538  1.00  0.00     0.040 C 
HETATM   37  C   UNL     1      41.680 -12.263  -3.749  1.00  0.00     0.040 C 
ENDBRANCH  34  35
ENDBRANCH  32  34
ENDBRANCH  10  32
TORSDOF 9
ENDMDL
MODEL 3
REMARK VINA RESULT:      -7.7      1.804      2.724
REMARK  9 active torsions:
REMARK  status: ('A' for Active; 'I' for Inactive)
REMARK    1  A    between atoms: C_5  and  C_6 
REMARK    2  A    between atoms: C_8  and  C_9 
REMARK    3  A    between atoms: C_9  and  C_10 
REMARK       I    between atoms: C_10  and  N_11 
REMARK    4  A    between atoms: N_11  and  C_12 
REMARK    5  A    between atoms: C_12  and  C_13 
REMARK    6  A    between atoms: C_13  and  N_14 
REMARK    7  A    between atoms: C_28  and  C_29 
REMARK    8  A    between atoms: C_29  and  O_30 
REMARK    9  A    between atoms: O_30  and  C_31 
ROOT
HETATM    1  C   UNL     1      39.420 -13.955   1.036  1.00  0.00     0.166 C 
HETATM    2  N   UNL     1      39.687 -12.795   1.905  1.00  0.00    -0.319 N 
HETATM    3  C   UNL     1      40.649 -12.213   2.544  1.00  0.00     0.011 C 
HETATM    4  C   UNL     1      38.371 -11.982   2.037  1.00  0.00     0.170 C 
HETATM    5  S   UNL     1      38.367 -11.033   3.475  1.00  0.00    -0.086 SA
HETATM    6  C   UNL     1      40.185 -11.206   3.590  1.00  0.00     0.135 C 
HETATM    7  N   UNL     1      37.479 -11.940   1.106  1.00  0.00    -0.229 NA
HETATM    8  C   UNL     1      37.825 -12.510  -0.122  1.00  0.00     0.048 C 
HETATM    9  C   UNL     1      37.110 -11.882  -1.296  1.00  0.00     0.071 C 
HETATM   10  C   UNL     1      38.811 -13.439  -0.226  1.00  0.00     0.069 C 
ENDROOT
BRANCH   3  11
HETATM   11  C   UNL     1      42.097 -12.502   2.259  1.00  0.00     0.156 C 
BRANCH  11  12
HETATM   12  C   UNL     1      42.742 -13.421   3.294  1.00  0.00     0.223 C 
HETATM   13  N   UNL     1      41.908 -13.864   4.285  1.00  0.00    -0.359 N 
HETATM   14  H   UNL     1      40.958 -13.495   4.303  1.00  0.00     0.162 HD
HETATM   15  O   UNL     1      43.923 -13.749   3.240  1.00  0.00    -0.273 OA
BRANCH  13  16
HETATM   16  C   UNL     1      42.332 -14.521   5.530  1.00  0.00     0.150 C 
BRANCH  16  17
HETATM   17  C   UNL     1      41.575 -15.791   5.994  1.00  0.00     0.254 C 
BRANCH  17  18
HETATM   18  N   UNL     1      42.419 -17.056   5.976  1.00  0.00    -0.070 N 
HETATM   19  H   UNL     1      41.770 -17.813   5.682  1.00  0.00     0.279 HD
HETATM   20  C   UNL     1      43.562 -17.030   4.989  1.00  0.00     0.235 C 
HETATM   21  C   UNL     1      44.236 -18.395   4.951  1.00  0.00     0.028 C 
HETATM   22  C   UNL     1      44.721 -18.821   6.330  1.00  0.00     0.003 C 
HETATM   23  C   UNL     1      43.590 -18.769   7.348  1.00  0.00     0.028 C 
HETATM   24  C   UNL     1      42.907 -17.408   7.368  1.00  0.00     0.235 C 
ENDBRANCH  17  18
ENDBRANCH  16  17
ENDBRANCH  13  16
ENDBRANCH  11  12
ENDBRANCH   3  11
BRANCH   1  25
HETATM   25  C   UNL     1      40.348 -15.145   1.217  1.00  0.00    -0.030 A 
HETATM   26  C   UNL     1      40.087 -16.007   2.312  1.00  0.00     0.010 A 
HETATM   27  C   UNL     1      40.794 -17.196   2.503  1.00  0.00     0.007 A 
HETATM   28  C   UNL     1      41.796 -17.565   1.611  1.00  0.00    -0.062 A 
HETATM   29  C   UNL     1      42.474 -18.900   1.732  1.00  0.00     0.048 C 
HETATM   30  C   UNL     1      42.093 -16.711   0.545  1.00  0.00     0.007 A 
HETATM   31  C   UNL     1      41.391 -15.511   0.360  1.00  0.00     0.010 A 
ENDBRANCH   1  25
BRANCH  10  32
HETATM   32  C   UNL     1      39.419 -13.729  -1.519  1.00  0.00     0.294 C 
HETATM   33  O   UNL     1      40.328 -13.028  -1.937  1.00  0.00    -0.259 OA
BRANCH  32  34
HETATM   34  O   UNL     1      38.848 -14.804  -2.082  1.00  0.00    -0.313 OA
BRANCH  34  35
HETATM   35  C   UNL     1      38.648 -14.854  -3.517  1.00  0.00     0.124 C 
HETATM   36  C   UNL     1      39.088 -16.182  -4.129  1.00  0.00     0.040 C 
HETATM   37  C   UNL     1      37.218 -14.478  -3.892  1.00  0.00     0.040 C 
ENDBRANCH  34  35
ENDBRANCH  32  34
ENDBRANCH  10  32
TORSDOF 9
ENDMDL
MODEL 4
REMARK VINA RESULT:      -7.5      3.540      8.861
REMARK  9 active torsions:
REMARK  status: ('A' for Active; 'I' for Inactive)
REMARK    1  A    between atoms: C_5  and  C_6 
REMARK    2  A    between atoms: C_8  and  C_9 
REMARK    3  A    between atoms: C_9  and  C_10 
REMARK       I    between atoms: C_10  and  N_11 
REMARK    4  A    between atoms: N_11  and  C_12 
REMARK    5  A    between atoms: C_12  and  C_13 
REMARK    6  A    between atoms: C_13  and  N_14 
REMARK    7  A    between atoms: C_28  and  C_29 
REMARK    8  A    between atoms: C_29  and  O_30 
REMARK    9  A    between atoms: O_30  and  C_31 
ROOT
HETATM    1  C   UNL     1      41.864 -14.564   1.334  1.00  0.00     0.166 C 
HETATM    2  N   UNL     1      41.854 -13.917   0.010  1.00  0.00    -0.319 N 
HETATM    3  C   UNL     1      41.700 -14.188  -1.244  1.00  0.00     0.011 C 
HETATM    4  C   UNL     1      42.033 -12.390   0.222  1.00  0.00     0.170 C 
HETATM    5  S   UNL     1      42.673 -11.635  -1.189  1.00  0.00    -0.086 SA
HETATM    6  C   UNL     1      42.176 -13.087  -2.185  1.00  0.00     0.135 C 
HETATM    7  N   UNL     1      41.618 -11.777   1.280  1.00  0.00    -0.229 NA
HETATM    8  C   UNL     1      40.822 -12.514   2.161  1.00  0.00     0.048 C 
HETATM    9  C   UNL     1      39.855 -11.662   2.950  1.00  0.00     0.071 C 
HETATM   10  C   UNL     1      40.847 -13.873   2.180  1.00  0.00     0.069 C 
ENDROOT
BRANCH   3  11
HETATM   11  C   UNL     1      41.088 -15.477  -1.721  1.00  0.00     0.156 C 
BRANCH  11  12
HETATM   12  C   UNL     1      40.058 -15.279  -2.831  1.00  0.00     0.223 C 
HETATM   13  N   UNL     1      38.909 -14.634  -2.458  1.00  0.00    -0.359 N 
HETATM   14  H   UNL     1      38.795 -14.408  -1.471  1.00  0.00     0.162 HD
HETATM   15  O   UNL     1      40.247 -15.661  -3.982  1.00  0.00    -0.273 OA
BRANCH  13  16
HETATM   16  C   UNL     1      37.672 -14.564  -3.249  1.00  0.00     0.150 C 
BRANCH  16  17
HETATM   17  C   UNL     1      37.066 -13.171  -3.554  1.00  0.00     0.254 C 
BRANCH  17  18
HETATM   18  N   UNL     1      36.619 -12.992  -4.996  1.00  0.00    -0.070 N 
HETATM   19  H   UNL     1      37.467 -13.178  -5.569  1.00  0.00     0.279 HD
HETATM   20  C   UNL     1      35.549 -13.960  -5.442  1.00  0.00     0.235 C 
HETATM   21  C   UNL     1      35.294 -13.788  -6.934  1.00  0.00     0.028 C 
HETATM   22  C   UNL     1      34.906 -12.357  -7.278  1.00  0.00     0.003 C 
HETATM   23  C   UNL     1      35.942 -11.370  -6.756  1.00  0.00     0.028 C 
HETATM   24  C   UNL     1      36.207 -11.558  -5.268  1.00  0.00     0.235 C 
ENDBRANCH  17  18
ENDBRANCH  16  17
ENDBRANCH  13  16
ENDBRANCH  11  12
ENDBRANCH   3  11
BRANCH   1  25
HETATM   25  C   UNL     1      42.264 -16.031   1.351  1.00  0.00    -0.030 A 
HETATM   26  C   UNL     1      43.623 -16.327   1.628  1.00  0.00     0.010 A 
HETATM   27  C   UNL     1      44.076 -17.637   1.792  1.00  0.00     0.007 A 
HETATM   28  C   UNL     1      43.191 -18.704   1.676  1.00  0.00    -0.062 A 
HETATM   29  C   UNL     1      43.638 -20.106   1.977  1.00  0.00     0.048 C 
HETATM   30  C   UNL     1      41.854 -18.435   1.366  1.00  0.00     0.007 A 
HETATM   31  C   UNL     1      41.400 -17.119   1.190  1.00  0.00     0.010 A 
ENDBRANCH   1  25
BRANCH  10  32
HETATM   32  C   UNL     1      39.762 -14.622   2.801  1.00  0.00     0.294 C 
HETATM   33  O   UNL     1      38.836 -15.035   2.120  1.00  0.00    -0.259 OA
BRANCH  32  34
HETATM   34  O   UNL     1      39.972 -14.756   4.120  1.00  0.00    -0.313 OA
BRANCH  34  35
HETATM   35  C   UNL     1      41.233 -15.279   4.607  1.00  0.00     0.124 C 
HETATM   36  C   UNL     1      41.776 -14.496   5.800  1.00  0.00     0.040 C 
HETATM   37  C   UNL     1      41.145 -16.777   4.875  1.00  0.00     0.040 C 
ENDBRANCH  34  35
ENDBRANCH  32  34
ENDBRANCH  10  32
TORSDOF 9
ENDMDL
MODEL 5
REMARK VINA RESULT:      -7.5      2.833      5.479
REMARK  9 active torsions:
REMARK  status: ('A' for Active; 'I' for Inactive)
REMARK    1  A    between atoms: C_5  and  C_6 
REMARK    2  A    between atoms: C_8  and  C_9 
REMARK    3  A    between atoms: C_9  and  C_10 
REMARK       I    between atoms: C_10  and  N_11 
REMARK    4  A    between atoms: N_11  and  C_12 
REMARK    5  A    between atoms: C_12  and  C_13 
REMARK    6  A    between atoms: C_13  and  N_14 
REMARK    7  A    between atoms: C_28  and  C_29 
REMARK    8  A    between atoms: C_29  and  O_30 
REMARK    9  A    between atoms: O_30  and  C_31 
ROOT
HETATM    1  C   UNL     1      41.311 -12.320   3.707  1.00  0.00     0.166 C 
HETATM    2  N   UNL     1      41.065 -12.743   2.316  1.00  0.00    -0.319 N 
HETATM    3  C   UNL     1      40.700 -13.771   1.624  1.00  0.00     0.011 C 
HETATM    4  C   UNL     1      41.261 -11.506   1.398  1.00  0.00     0.170 C 
HETATM    5  S   UNL     1      41.640 -11.981  -0.215  1.00  0.00    -0.086 SA
HETATM    6  C   UNL     1      40.994 -13.657   0.132  1.00  0.00     0.135 C 
HETATM    7  N   UNL     1      41.029 -10.299   1.792  1.00  0.00    -0.229 NA
HETATM    8  C   UNL     1      40.405 -10.153   3.033  1.00  0.00     0.048 C 
HETATM    9  C   UNL     1      39.580  -8.891   3.144  1.00  0.00     0.071 C 
HETATM   10  C   UNL     1      40.448 -11.132   3.974  1.00  0.00     0.069 C 
ENDROOT
BRANCH   3  11
HETATM   11  C   UNL     1      40.029 -14.965   2.247  1.00  0.00     0.156 C 
BRANCH  11  12
HETATM   12  C   UNL     1      40.841 -16.250   2.111  1.00  0.00     0.223 C 
HETATM   13  N   UNL     1      42.109 -16.200   2.624  1.00  0.00    -0.359 N 
HETATM   14  H   UNL     1      42.438 -15.305   2.983  1.00  0.00     0.162 HD
HETATM   15  O   UNL     1      40.389 -17.264   1.586  1.00  0.00    -0.273 OA
BRANCH  13  16
HETATM   16  C   UNL     1      43.170 -17.189   2.383  1.00  0.00     0.150 C 
BRANCH  16  17
HETATM   17  C   UNL     1      43.708 -18.008   3.583  1.00  0.00     0.254 C 
BRANCH  17  18
HETATM   18  N   UNL     1      43.675 -19.513   3.371  1.00  0.00    -0.070 N 
HETATM   19  H   UNL     1      42.807 -19.836   3.842  1.00  0.00     0.279 HD
HETATM   20  C   UNL     1      43.590 -19.937   1.923  1.00  0.00     0.235 C 
HETATM   21  C   UNL     1      43.410 -21.447   1.843  1.00  0.00     0.028 C 
HETATM   22  C   UNL     1      44.532 -22.186   2.558  1.00  0.00     0.003 C 
HETATM   23  C   UNL     1      44.677 -21.702   3.995  1.00  0.00     0.028 C 
HETATM   24  C   UNL     1      44.838 -20.190   4.070  1.00  0.00     0.235 C 
ENDBRANCH  17  18
ENDBRANCH  16  17
ENDBRANCH  13  16
ENDBRANCH  11  12
ENDBRANCH   3  11
BRANCH   1  25
HETATM   25  C   UNL     1      41.724 -13.421   4.670  1.00  0.00    -0.030 A 
HETATM   26  C   UNL     1      40.688 -14.206   5.236  1.00  0.00     0.010 A 
HETATM   27  C   UNL     1      40.956 -15.321   6.034  1.00  0.00     0.007 A 
HETATM   28  C   UNL     1      42.271 -15.689   6.304  1.00  0.00    -0.062 A 
HETATM   29  C   UNL     1      42.572 -16.956   7.051  1.00  0.00     0.048 C 
HETATM   30  C   UNL     1      43.306 -14.906   5.785  1.00  0.00     0.007 A 
HETATM   31  C   UNL     1      43.037 -13.779   4.993  1.00  0.00     0.010 A 
ENDBRANCH   1  25
BRANCH  10  32
HETATM   32  C   UNL     1      39.494 -11.138   5.077  1.00  0.00     0.294 C 
HETATM   33  O   UNL     1      38.418 -11.701   4.952  1.00  0.00    -0.259 OA
BRANCH  32  34
HETATM   34  O   UNL     1      39.991 -10.481   6.137  1.00  0.00    -0.313 OA
BRANCH  34  35
HETATM   35  C   UNL     1      40.384 -11.210   7.327  1.00  0.00     0.124 C 
HETATM   36  C   UNL     1      41.832 -10.946   7.731  1.00  0.00     0.040 C 
HETATM   37  C   UNL     1      39.401 -10.978   8.470  1.00  0.00     0.040 C 
ENDBRANCH  34  35
ENDBRANCH  32  34
ENDBRANCH  10  32
TORSDOF 9
ENDMDL
MODEL 6
REMARK VINA RESULT:      -7.4      3.226      8.116
REMARK  9 active torsions:
REMARK  status: ('A' for Active; 'I' for Inactive)
REMARK    1  A    between atoms: C_5  and  C_6 
REMARK    2  A    between atoms: C_8  and  C_9 
REMARK    3  A    between atoms: C_9  and  C_10 
REMARK       I    between atoms: C_10  and  N_11 
REMARK    4  A    between atoms: N_11  and  C_12 
REMARK    5  A    between atoms: C_12  and  C_13 
REMARK    6  A    between atoms: C_13  and  N_14 
REMARK    7  A    between atoms: C_28  and  C_29 
REMARK    8  A    between atoms: C_29  and  O_30 
REMARK    9  A    between atoms: O_30  and  C_31 
ROOT
HETATM    1  C   UNL     1      41.885 -14.579   1.372  1.00  0.00     0.166 C 
HETATM    2  N   UNL     1      41.847 -13.939   0.045  1.00  0.00    -0.319 N 
HETATM    3  C   UNL     1      41.665 -14.216  -1.204  1.00  0.00     0.011 C 
HETATM    4  C   UNL     1      42.034 -12.411   0.246  1.00  0.00     0.170 C 
HETATM    5  S   UNL     1      42.645 -11.665  -1.183  1.00  0.00    -0.086 SA
HETATM    6  C   UNL     1      42.123 -13.121  -2.161  1.00  0.00     0.135 C 
HETATM    7  N   UNL     1      41.644 -11.792   1.309  1.00  0.00    -0.229 NA
HETATM    8  C   UNL     1      40.866 -12.522   2.210  1.00  0.00     0.048 C 
HETATM    9  C   UNL     1      39.918 -11.663   3.016  1.00  0.00     0.071 C 
HETATM   10  C   UNL     1      40.888 -13.880   2.236  1.00  0.00     0.069 C 
ENDROOT
BRANCH   3  11
HETATM   11  C   UNL     1      41.040 -15.506  -1.661  1.00  0.00     0.156 C 
BRANCH  11  12
HETATM   12  C   UNL     1      40.109 -15.331  -2.859  1.00  0.00     0.223 C 
HETATM   13  N   UNL     1      38.850 -14.883  -2.563  1.00  0.00    -0.359 N 
HETATM   14  H   UNL     1      38.606 -14.774  -1.580  1.00  0.00     0.162 HD
HETATM   15  O   UNL     1      40.464 -15.567  -4.010  1.00  0.00    -0.273 OA
BRANCH  13  16
HETATM   16  C   UNL     1      37.701 -14.894  -3.480  1.00  0.00     0.150 C 
BRANCH  16  17
HETATM   17  C   UNL     1      36.990 -13.553  -3.794  1.00  0.00     0.254 C 
BRANCH  17  18
HETATM   18  N   UNL     1      37.546 -12.363  -3.029  1.00  0.00    -0.070 N 
HETATM   19  H   UNL     1      37.987 -12.767  -2.179  1.00  0.00     0.279 HD
HETATM   20  C   UNL     1      38.611 -11.589  -3.770  1.00  0.00     0.235 C 
HETATM   21  C   UNL     1      39.197 -10.523  -2.853  1.00  0.00     0.028 C 
HETATM   22  C   UNL     1      38.122  -9.586  -2.319  1.00  0.00     0.003 C 
HETATM   23  C   UNL     1      37.003 -10.369  -1.645  1.00  0.00     0.028 C 
HETATM   24  C   UNL     1      36.433 -11.446  -2.558  1.00  0.00     0.235 C 
ENDBRANCH  17  18
ENDBRANCH  16  17
ENDBRANCH  13  16
ENDBRANCH  11  12
ENDBRANCH   3  11
BRANCH   1  25
HETATM   25  C   UNL     1      42.282 -16.046   1.388  1.00  0.00    -0.030 A 
HETATM   26  C   UNL     1      43.645 -16.344   1.638  1.00  0.00     0.010 A 
HETATM   27  C   UNL     1      44.099 -17.655   1.798  1.00  0.00     0.007 A 
HETATM   28  C   UNL     1      43.209 -18.720   1.707  1.00  0.00    -0.062 A 
HETATM   29  C   UNL     1      43.659 -20.122   2.005  1.00  0.00     0.048 C 
HETATM   30  C   UNL     1      41.867 -18.450   1.425  1.00  0.00     0.007 A 
HETATM   31  C   UNL     1      41.412 -17.133   1.252  1.00  0.00     0.010 A 
ENDBRANCH   1  25
BRANCH  10  32
HETATM   32  C   UNL     1      39.815 -14.624   2.885  1.00  0.00     0.294 C 
HETATM   33  O   UNL     1      38.861 -15.017   2.231  1.00  0.00    -0.259 OA
BRANCH  32  34
HETATM   34  O   UNL     1      40.068 -14.778   4.194  1.00  0.00    -0.313 OA
BRANCH  34  35
HETATM   35  C   UNL     1      41.308 -15.391   4.629  1.00  0.00     0.124 C 
HETATM   36  C   UNL     1      41.979 -14.624   5.766  1.00  0.00     0.040 C 
HETATM   37  C   UNL     1      41.114 -16.869   4.948  1.00  0.00     0.040 C 
ENDBRANCH  34  35
ENDBRANCH  32  34
ENDBRANCH  10  32
TORSDOF 9
ENDMDL
MODEL 7
REMARK VINA RESULT:      -7.1      2.370      4.294
REMARK  9 active torsions:
REMARK  status: ('A' for Active; 'I' for Inactive)
REMARK    1  A    between atoms: C_5  and  C_6 
REMARK    2  A    between atoms: C_8  and  C_9 
REMARK    3  A    between atoms: C_9  and  C_10 
REMARK       I    between atoms: C_10  and  N_11 
REMARK    4  A    between atoms: N_11  and  C_12 
REMARK    5  A    between atoms: C_12  and  C_13 
REMARK    6  A    between atoms: C_13  and  N_14 
REMARK    7  A    between atoms: C_28  and  C_29 
REMARK    8  A    between atoms: C_29  and  O_30 
REMARK    9  A    between atoms: O_30  and  C_31 
ROOT
HETATM    1  C   UNL     1      40.131 -12.307  -0.176  1.00  0.00     0.166 C 
HETATM    2  N   UNL     1      40.128 -12.700   1.245  1.00  0.00    -0.319 N 
HETATM    3  C   UNL     1      40.370 -13.712   2.012  1.00  0.00     0.011 C 
HETATM    4  C   UNL     1      39.767 -11.447   2.087  1.00  0.00     0.170 C 
HETATM    5  S   UNL     1      39.111 -11.893   3.617  1.00  0.00    -0.086 SA
HETATM    6  C   UNL     1      39.815 -13.570   3.425  1.00  0.00     0.135 C 
HETATM    7  N   UNL     1      40.061 -10.246   1.716  1.00  0.00    -0.229 NA
HETATM    8  C   UNL     1      40.894 -10.120   0.601  1.00  0.00     0.048 C 
HETATM    9  C   UNL     1      41.720  -8.854   0.612  1.00  0.00     0.071 C 
HETATM   10  C   UNL     1      41.023 -11.118  -0.311  1.00  0.00     0.069 C 
ENDROOT
BRANCH   3  11
HETATM   11  C   UNL     1      41.146 -14.912   1.544  1.00  0.00     0.156 C 
BRANCH  11  12
HETATM   12  C   UNL     1      40.948 -16.139   2.430  1.00  0.00     0.223 C 
HETATM   13  N   UNL     1      41.700 -16.163   3.575  1.00  0.00    -0.359 N 
HETATM   14  H   UNL     1      42.377 -15.414   3.710  1.00  0.00     0.162 HD
HETATM   15  O   UNL     1      40.165 -17.040   2.145  1.00  0.00    -0.273 OA
BRANCH  13  16
HETATM   16  C   UNL     1      41.899 -17.332   4.443  1.00  0.00     0.150 C 
BRANCH  16  17
HETATM   17  C   UNL     1      43.318 -17.944   4.550  1.00  0.00     0.254 C 
BRANCH  17  18
HETATM   18  N   UNL     1      43.455 -19.312   3.901  1.00  0.00    -0.070 N 
HETATM   19  H   UNL     1      42.667 -19.873   4.280  1.00  0.00     0.279 HD
HETATM   20  C   UNL     1      43.322 -19.303   2.396  1.00  0.00     0.235 C 
HETATM   21  C   UNL     1      43.322 -20.734   1.875  1.00  0.00     0.028 C 
HETATM   22  C   UNL     1      44.572 -21.489   2.303  1.00  0.00     0.003 C 
HETATM   23  C   UNL     1      44.755 -21.430   3.814  1.00  0.00     0.028 C 
HETATM   24  C   UNL     1      44.736 -19.998   4.332  1.00  0.00     0.235 C 
ENDBRANCH  17  18
ENDBRANCH  16  17
ENDBRANCH  13  16
ENDBRANCH  11  12
ENDBRANCH   3  11
BRANCH   1  25
HETATM   25  C   UNL     1      39.900 -13.431  -1.174  1.00  0.00    -0.030 A 
HETATM   26  C   UNL     1      38.578 -13.605  -1.656  1.00  0.00     0.010 A 
HETATM   27  C   UNL     1      38.273 -14.521  -2.665  1.00  0.00     0.007 A 
HETATM   28  C   UNL     1      39.276 -15.305  -3.226  1.00  0.00    -0.062 A 
HETATM   29  C   UNL     1      38.985 -16.198  -4.397  1.00  0.00     0.048 C 
HETATM   30  C   UNL     1      40.580 -15.174  -2.738  1.00  0.00     0.007 A 
HETATM   31  C   UNL     1      40.885 -14.262  -1.716  1.00  0.00     0.010 A 
ENDBRANCH   1  25
BRANCH  10  32
HETATM   32  C   UNL     1      42.157 -11.139  -1.228  1.00  0.00     0.294 C 
HETATM   33  O   UNL     1      43.262 -11.470  -0.826  1.00  0.00    -0.259 OA
BRANCH  32  34
HETATM   34  O   UNL     1      41.777 -10.770  -2.461  1.00  0.00    -0.313 OA
BRANCH  34  35
HETATM   35  C   UNL     1      42.682 -10.016  -3.307  1.00  0.00     0.124 C 
HETATM   36  C   UNL     1      42.520 -10.347  -4.788  1.00  0.00     0.040 C 
HETATM   37  C   UNL     1      42.590  -8.521  -3.023  1.00  0.00     0.040 C 
ENDBRANCH  34  35
ENDBRANCH  32  34
ENDBRANCH  10  32
TORSDOF 9
ENDMDL
MODEL 8
REMARK VINA RESULT:      -7.1      2.578      7.702
REMARK  9 active torsions:
REMARK  status: ('A' for Active; 'I' for Inactive)
REMARK    1  A    between atoms: C_5  and  C_6 
REMARK    2  A    between atoms: C_8  and  C_9 
REMARK    3  A    between atoms: C_9  and  C_10 
REMARK       I    between atoms: C_10  and  N_11 
REMARK    4  A    between atoms: N_11  and  C_12 
REMARK    5  A    between atoms: C_12  and  C_13 
REMARK    6  A    between atoms: C_13  and  N_14 
REMARK    7  A    between atoms: C_28  and  C_29 
REMARK    8  A    between atoms: C_29  and  O_30 
REMARK    9  A    between atoms: O_30  and  C_31 
ROOT
HETATM    1  C   UNL     1      41.939 -14.076   3.549  1.00  0.00     0.166 C 
HETATM    2  N   UNL     1      40.993 -13.195   2.838  1.00  0.00    -0.319 N 
HETATM    3  C   UNL     1      39.989 -13.240   2.027  1.00  0.00     0.011 C 
HETATM    4  C   UNL     1      41.285 -11.733   3.270  1.00  0.00     0.170 C 
HETATM    5  S   UNL     1      40.734 -10.612   2.083  1.00  0.00    -0.086 SA
HETATM    6  C   UNL     1      39.662 -11.908   1.363  1.00  0.00     0.135 C 
HETATM    7  N   UNL     1      41.753 -11.427   4.433  1.00  0.00    -0.229 NA
HETATM    8  C   UNL     1      41.816 -12.457   5.376  1.00  0.00     0.048 C 
HETATM    9  C   UNL     1      41.709 -11.970   6.802  1.00  0.00     0.071 C 
HETATM   10  C   UNL     1      41.835 -13.764   5.005  1.00  0.00     0.069 C 
ENDROOT
BRANCH   3  11
HETATM   11  C   UNL     1      39.208 -14.502   1.780  1.00  0.00     0.156 C 
BRANCH  11  12
HETATM   12  C   UNL     1      38.216 -14.379   0.625  1.00  0.00     0.223 C 
HETATM   13  N   UNL     1      38.765 -14.436  -0.628  1.00  0.00    -0.359 N 
HETATM   14  H   UNL     1      39.781 -14.479  -0.697  1.00  0.00     0.162 HD
HETATM   15  O   UNL     1      37.009 -14.246   0.804  1.00  0.00    -0.273 OA
BRANCH  13  16
HETATM   16  C   UNL     1      38.082 -14.075  -1.878  1.00  0.00     0.150 C 
BRANCH  16  17
HETATM   17  C   UNL     1      38.895 -13.364  -2.989  1.00  0.00     0.254 C 
BRANCH  17  18
HETATM   18  N   UNL     1      40.248 -12.844  -2.531  1.00  0.00    -0.070 N 
HETATM   19  H   UNL     1      40.392 -13.253  -1.586  1.00  0.00     0.279 HD
HETATM   20  C   UNL     1      41.409 -13.280  -3.395  1.00  0.00     0.235 C 
HETATM   21  C   UNL     1      42.717 -12.832  -2.757  1.00  0.00     0.028 C 
HETATM   22  C   UNL     1      42.747 -11.327  -2.532  1.00  0.00     0.003 C 
HETATM   23  C   UNL     1      41.533 -10.871  -1.732  1.00  0.00     0.028 C 
HETATM   24  C   UNL     1      40.229 -11.338  -2.364  1.00  0.00     0.235 C 
ENDBRANCH  17  18
ENDBRANCH  16  17
ENDBRANCH  13  16
ENDBRANCH  11  12
ENDBRANCH   3  11
BRANCH   1  25
HETATM   25  C   UNL     1      42.218 -15.416   2.890  1.00  0.00    -0.030 A 
HETATM   26  C   UNL     1      43.527 -15.631   2.391  1.00  0.00     0.010 A 
HETATM   27  C   UNL     1      43.931 -16.866   1.879  1.00  0.00     0.007 A 
HETATM   28  C   UNL     1      43.039 -17.933   1.839  1.00  0.00    -0.062 A 
HETATM   29  C   UNL     1      43.498 -19.298   1.413  1.00  0.00     0.048 C 
HETATM   30  C   UNL     1      41.733 -17.731   2.293  1.00  0.00     0.007 A 
HETATM   31  C   UNL     1      41.323 -16.487   2.796  1.00  0.00     0.010 A 
ENDBRANCH   1  25
BRANCH  10  32
HETATM   32  C   UNL     1      41.510 -14.808   5.969  1.00  0.00     0.294 C 
HETATM   33  O   UNL     1      40.343 -15.099   6.186  1.00  0.00    -0.259 OA
BRANCH  32  34
HETATM   34  O   UNL     1      42.628 -15.330   6.499  1.00  0.00    -0.313 OA
BRANCH  34  35
HETATM   35  C   UNL     1      42.722 -16.756   6.740  1.00  0.00     0.124 C 
HETATM   36  C   UNL     1      43.475 -17.494   5.636  1.00  0.00     0.040 C 
HETATM   37  C   UNL     1      43.279 -17.048   8.129  1.00  0.00     0.040 C 
ENDBRANCH  34  35
ENDBRANCH  32  34
ENDBRANCH  10  32
TORSDOF 9
ENDMDL
MODEL 9
REMARK VINA RESULT:      -7.0      2.828      4.929
REMARK  9 active torsions:
REMARK  status: ('A' for Active; 'I' for Inactive)
REMARK    1  A    between atoms: C_5  and  C_6 
REMARK    2  A    between atoms: C_8  and  C_9 
REMARK    3  A    between atoms: C_9  and  C_10 
REMARK       I    between atoms: C_10  and  N_11 
REMARK    4  A    between atoms: N_11  and  C_12 
REMARK    5  A    between atoms: C_12  and  C_13 
REMARK    6  A    between atoms: C_13  and  N_14 
REMARK    7  A    between atoms: C_28  and  C_29 
REMARK    8  A    between atoms: C_29  and  O_30 
REMARK    9  A    between atoms: O_30  and  C_31 
ROOT
HETATM    1  C   UNL     1      41.350 -12.130   2.343  1.00  0.00     0.166 C 
HETATM    2  N   UNL     1      41.494 -12.425   0.906  1.00  0.00    -0.319 N 
HETATM    3  C   UNL     1      41.339 -13.383   0.053  1.00  0.00     0.011 C 
HETATM    4  C   UNL     1      41.920 -11.116   0.189  1.00  0.00     0.170 C 
HETATM    5  S   UNL     1      42.726 -11.454  -1.296  1.00  0.00    -0.086 SA
HETATM    6  C   UNL     1      42.025 -13.144  -1.287  1.00  0.00     0.135 C 
HETATM    7  N   UNL     1      41.579  -9.945   0.610  1.00  0.00    -0.229 NA
HETATM    8  C   UNL     1      40.640  -9.898   1.644  1.00  0.00     0.048 C 
HETATM    9  C   UNL     1      39.805  -8.639   1.638  1.00  0.00     0.071 C 
HETATM   10  C   UNL     1      40.435 -10.957   2.471  1.00  0.00     0.069 C 
ENDROOT
BRANCH   3  11
HETATM   11  C   UNL     1      40.535 -14.616   0.362  1.00  0.00     0.156 C 
BRANCH  11  12
HETATM   12  C   UNL     1      41.326 -15.910   0.185  1.00  0.00     0.223 C 
HETATM   13  N   UNL     1      41.957 -16.371   1.309  1.00  0.00    -0.359 N 
HETATM   14  H   UNL     1      41.917 -15.790   2.145  1.00  0.00     0.162 HD
HETATM   15  O   UNL     1      41.387 -16.504  -0.888  1.00  0.00    -0.273 OA
BRANCH  13  16
HETATM   16  C   UNL     1      42.985 -17.421   1.343  1.00  0.00     0.150 C 
BRANCH  16  17
HETATM   17  C   UNL     1      43.707 -17.709   2.684  1.00  0.00     0.254 C 
BRANCH  17  18
HETATM   18  N   UNL     1      44.249 -19.124   2.805  1.00  0.00    -0.070 N 
HETATM   19  H   UNL     1      45.221 -19.076   2.441  1.00  0.00     0.279 HD
HETATM   20  C   UNL     1      44.320 -19.645   4.221  1.00  0.00     0.235 C 
HETATM   21  C   UNL     1      45.015 -21.001   4.232  1.00  0.00     0.028 C 
HETATM   22  C   UNL     1      44.314 -22.000   3.323  1.00  0.00     0.003 C 
HETATM   23  C   UNL     1      44.165 -21.444   1.913  1.00  0.00     0.028 C 
HETATM   24  C   UNL     1      43.487 -20.081   1.909  1.00  0.00     0.235 C 
ENDBRANCH  17  18
ENDBRANCH  16  17
ENDBRANCH  13  16
ENDBRANCH  11  12
ENDBRANCH   3  11
BRANCH   1  25
HETATM   25  C   UNL     1      41.496 -13.317   3.281  1.00  0.00    -0.030 A 
HETATM   26  C   UNL     1      42.809 -13.655   3.696  1.00  0.00     0.010 A 
HETATM   27  C   UNL     1      43.052 -14.645   4.651  1.00  0.00     0.007 A 
HETATM   28  C   UNL     1      41.992 -15.342   5.222  1.00  0.00    -0.062 A 
HETATM   29  C   UNL     1      42.230 -16.315   6.340  1.00  0.00     0.048 C 
HETATM   30  C   UNL     1      40.692 -15.049   4.799  1.00  0.00     0.007 A 
HETATM   31  C   UNL     1      40.448 -14.063   3.831  1.00  0.00     0.010 A 
ENDBRANCH   1  25
BRANCH  10  32
HETATM   32  C   UNL     1      39.219 -11.045   3.269  1.00  0.00     0.294 C 
HETATM   33  O   UNL     1      39.098 -10.365   4.277  1.00  0.00    -0.259 OA
BRANCH  32  34
HETATM   34  O   UNL     1      38.356 -11.918   2.726  1.00  0.00    -0.313 OA
BRANCH  34  35
HETATM   35  C   UNL     1      37.737 -11.630   1.448  1.00  0.00     0.124 C 
HETATM   36  C   UNL     1      37.272 -12.888   0.719  1.00  0.00     0.040 C 
HETATM   37  C   UNL     1      36.632 -10.588   1.589  1.00  0.00     0.040 C 
ENDBRANCH  34  35
ENDBRANCH  32  34
ENDBRANCH  10  32
TORSDOF 9
ENDMDL
MODEL 10
REMARK VINA RESULT:      -6.7      3.523      8.554
REMARK  9 active torsions:
REMARK  status: ('A' for Active; 'I' for Inactive)
REMARK    1  A    between atoms: C_5  and  C_6 
REMARK    2  A    between atoms: C_8  and  C_9 
REMARK    3  A    between atoms: C_9  and  C_10 
REMARK       I    between atoms: C_10  and  N_11 
REMARK    4  A    between atoms: N_11  and  C_12 
REMARK    5  A    between atoms: C_12  and  C_13 
REMARK    6  A    between atoms: C_13  and  N_14 
REMARK    7  A    between atoms: C_28  and  C_29 
REMARK    8  A    between atoms: C_29  and  O_30 
REMARK    9  A    between atoms: O_30  and  C_31 
ROOT
HETATM    1  C   UNL     1      41.581 -13.060   1.678  1.00  0.00     0.166 C 
HETATM    2  N   UNL     1      41.821 -12.913   0.231  1.00  0.00    -0.319 N 
HETATM    3  C   UNL     1      41.778 -13.584  -0.872  1.00  0.00     0.011 C 
HETATM    4  C   UNL     1      42.192 -11.431  -0.044  1.00  0.00     0.170 C 
HETATM    5  S   UNL     1      43.096 -11.275  -1.502  1.00  0.00    -0.086 SA
HETATM    6  C   UNL     1      42.515 -12.927  -2.033  1.00  0.00     0.135 C 
HETATM    7  N   UNL     1      41.748 -10.454   0.674  1.00  0.00    -0.229 NA
HETATM    8  C   UNL     1      40.756 -10.761   1.608  1.00  0.00     0.048 C 
HETATM    9  C   UNL     1      39.836  -9.600   1.908  1.00  0.00     0.071 C 
HETATM   10  C   UNL     1      40.582 -12.025   2.075  1.00  0.00     0.069 C 
ENDROOT
BRANCH   3  11
HETATM   11  C   UNL     1      41.047 -14.893  -0.991  1.00  0.00     0.156 C 
BRANCH  11  12
HETATM   12  C   UNL     1      40.572 -15.190  -2.412  1.00  0.00     0.223 C 
HETATM   13  N   UNL     1      39.281 -14.825  -2.687  1.00  0.00    -0.359 N 
HETATM   14  H   UNL     1      38.720 -14.461  -1.918  1.00  0.00     0.162 HD
HETATM   15  O   UNL     1      41.296 -15.710  -3.255  1.00  0.00    -0.273 OA
BRANCH  13  16
HETATM   16  C   UNL     1      38.508 -15.240  -3.866  1.00  0.00     0.150 C 
BRANCH  16  17
HETATM   17  C   UNL     1      36.977 -15.001  -3.871  1.00  0.00     0.254 C 
BRANCH  17  18
HETATM   18  N   UNL     1      36.532 -13.849  -4.757  1.00  0.00    -0.070 N 
HETATM   19  H   UNL     1      37.120 -13.919  -5.611  1.00  0.00     0.279 HD
HETATM   20  C   UNL     1      35.087 -13.921  -5.194  1.00  0.00     0.235 C 
HETATM   21  C   UNL     1      34.800 -12.808  -6.194  1.00  0.00     0.028 C 
HETATM   22  C   UNL     1      35.123 -11.437  -5.617  1.00  0.00     0.003 C 
HETATM   23  C   UNL     1      36.554 -11.386  -5.098  1.00  0.00     0.028 C 
HETATM   24  C   UNL     1      36.841 -12.512  -4.114  1.00  0.00     0.235 C 
ENDBRANCH  17  18
ENDBRANCH  16  17
ENDBRANCH  13  16
ENDBRANCH  11  12
ENDBRANCH   3  11
BRANCH   1  25
HETATM   25  C   UNL     1      41.760 -14.462   2.239  1.00  0.00    -0.030 A 
HETATM   26  C   UNL     1      43.030 -14.782   2.783  1.00  0.00     0.010 A 
HETATM   27  C   UNL     1      43.271 -15.993   3.436  1.00  0.00     0.007 A 
HETATM   28  C   UNL     1      42.254 -16.934   3.563  1.00  0.00    -0.062 A 
HETATM   29  C   UNL     1      42.463 -18.181   4.374  1.00  0.00     0.048 C 
HETATM   30  C   UNL     1      41.006 -16.652   3.001  1.00  0.00     0.007 A 
HETATM   31  C   UNL     1      40.766 -15.441   2.335  1.00  0.00     0.010 A 
ENDBRANCH   1  25
BRANCH  10  32
HETATM   32  C   UNL     1      39.334 -12.406   2.726  1.00  0.00     0.294 C 
HETATM   33  O   UNL     1      39.335 -12.749   3.898  1.00  0.00    -0.259 OA
BRANCH  32  34
HETATM   34  O   UNL     1      38.303 -12.304   1.873  1.00  0.00    -0.313 OA
BRANCH  34  35
HETATM   35  C   UNL     1      38.248 -13.146   0.694  1.00  0.00     0.124 C 
HETATM   36  C   UNL     1      37.374 -14.382   0.891  1.00  0.00     0.040 C 
HETATM   37  C   UNL     1      37.862 -12.343  -0.544  1.00  0.00     0.040 C 
ENDBRANCH  34  35
ENDBRANCH  32  34
ENDBRANCH  10  32
TORSDOF 9
ENDMDL
