MODEL 1
REMARK VINA RESULT:      -8.4      0.000      0.000
REMARK  4 active torsions:
REMARK  status: ('A' for Active; 'I' for Inactive)
REMARK    1  A    between atoms: O_2  and  C_3 
REMARK    2  A    between atoms: C_6  and  C_7 
REMARK       I    between atoms: C_7  and  N_8 
REMARK    3  A    between atoms: N_8  and  C_9 
REMARK    4  A    between atoms: C_14  and  C_15 
ROOT
HETATM    1  C   UNL     1      43.944 -14.482   6.298  1.00  0.00     0.259 C 
HETATM    2  N   UNL     1      44.262 -14.332   7.635  1.00  0.00    -0.320 N 
HETATM    3  O   UNL     1      44.022 -13.609   5.440  1.00  0.00    -0.267 OA
HETATM    4  H   UNL     1      43.938 -15.058   8.265  1.00  0.00     0.169 HD
ENDROOT
BRANCH   2   5
HETATM    5  C   UNL     1      44.867 -13.209   8.251  1.00  0.00     0.074 A 
HETATM    6  C   UNL     1      46.069 -12.616   7.852  1.00  0.00     0.143 A 
HETATM    7  F   UNL     1      46.835 -13.132   6.884  1.00  0.00    -0.204 F 
HETATM    8  C   UNL     1      46.572 -11.502   8.521  1.00  0.00     0.045 A 
HETATM    9  C   UNL     1      45.889 -10.969   9.616  1.00  0.00     0.017 A 
HETATM   10  C   UNL     1      44.701 -11.559  10.066  1.00  0.00     0.000 A 
HETATM   11  C   UNL     1      44.208 -12.683   9.376  1.00  0.00     0.047 A 
BRANCH  10  12
HETATM   12  C   UNL     1      43.998 -11.010  11.226  1.00  0.00     0.085 A 
HETATM   13  O   UNL     1      43.369 -11.912  12.039  1.00  0.00    -0.322 OA
HETATM   14  C   UNL     1      42.789 -11.216  13.049  1.00  0.00     0.142 A 
HETATM   15  C   UNL     1      43.029  -9.872  12.905  1.00  0.00     0.027 A 
HETATM   16  C   UNL     1      43.809  -9.737  11.730  1.00  0.00     0.040 A 
ENDBRANCH  10  12
ENDBRANCH   2   5
BRANCH   1  17
HETATM   17  C   UNL     1      43.410 -15.812   5.879  1.00  0.00     0.073 A 
HETATM   18  C   UNL     1      44.104 -17.011   6.065  1.00  0.00     0.165 A 
HETATM   19  C   UNL     1      43.558 -18.240   5.667  1.00  0.00     0.107 A 
HETATM   20  F   UNL     1      45.315 -17.005   6.650  1.00  0.00    -0.202 F 
HETATM   21  C   UNL     1      42.301 -18.262   5.059  1.00  0.00     0.040 A 
HETATM   22  C   UNL     1      41.596 -17.073   4.864  1.00  0.00     0.004 A 
HETATM   23  C   UNL     1      42.144 -15.857   5.275  1.00  0.00     0.020 A 
BRANCH  19  24
HETATM   24  O   UNL     1      44.336 -19.340   5.914  1.00  0.00    -0.353 OA
HETATM   25  C   UNL     1      44.883 -20.013   4.788  1.00  0.00     0.210 C 
ENDBRANCH  19  24
ENDBRANCH   1  17
TORSDOF 4
ENDMDL
MODEL 2
REMARK VINA RESULT:      -8.1      4.990      8.851
REMARK  4 active torsions:
REMARK  status: ('A' for Active; 'I' for Inactive)
REMARK    1  A    between atoms: O_2  and  C_3 
REMARK    2  A    between atoms: C_6  and  C_7 
REMARK       I    between atoms: C_7  and  N_8 
REMARK    3  A    between atoms: N_8  and  C_9 
REMARK    4  A    between atoms: C_14  and  C_15 
ROOT
HETATM    1  C   UNL     1      40.991 -15.465   5.074  1.00  0.00     0.259 C 
HETATM    2  N   UNL     1      42.166 -15.823   4.440  1.00  0.00    -0.320 N 
HETATM    3  O   UNL     1      40.465 -16.068   6.003  1.00  0.00    -0.267 OA
HETATM    4  H   UNL     1      42.362 -15.371   3.552  1.00  0.00     0.169 HD
ENDROOT
BRANCH   2   5
HETATM    5  C   UNL     1      43.063 -16.853   4.815  1.00  0.00     0.074 A 
HETATM    6  C   UNL     1      43.885 -16.840   5.946  1.00  0.00     0.143 A 
HETATM    7  F   UNL     1      43.978 -15.774   6.750  1.00  0.00    -0.204 F 
HETATM    8  C   UNL     1      44.724 -17.915   6.233  1.00  0.00     0.045 A 
HETATM    9  C   UNL     1      44.769 -19.019   5.380  1.00  0.00     0.017 A 
HETATM   10  C   UNL     1      43.987 -19.053   4.219  1.00  0.00     0.000 A 
HETATM   11  C   UNL     1      43.145 -17.957   3.947  1.00  0.00     0.047 A 
BRANCH  10  12
HETATM   12  C   UNL     1      44.052 -20.203   3.317  1.00  0.00     0.085 A 
HETATM   13  O   UNL     1      44.609 -21.344   3.826  1.00  0.00    -0.322 OA
HETATM   14  C   UNL     1      44.572 -22.286   2.851  1.00  0.00     0.142 A 
HETATM   15  C   UNL     1      44.000 -21.775   1.712  1.00  0.00     0.027 A 
HETATM   16  C   UNL     1      43.665 -20.432   2.010  1.00  0.00     0.040 A 
ENDBRANCH  10  12
ENDBRANCH   2   5
BRANCH   1  17
HETATM   17  C   UNL     1      40.278 -14.265   4.541  1.00  0.00     0.073 A 
HETATM   18  C   UNL     1      39.782 -13.243   5.353  1.00  0.00     0.165 A 
HETATM   19  C   UNL     1      39.130 -12.128   4.807  1.00  0.00     0.107 A 
HETATM   20  F   UNL     1      39.939 -13.307   6.687  1.00  0.00    -0.202 F 
HETATM   21  C   UNL     1      38.960 -12.047   3.423  1.00  0.00     0.040 A 
HETATM   22  C   UNL     1      39.449 -13.062   2.598  1.00  0.00     0.004 A 
HETATM   23  C   UNL     1      40.107 -14.160   3.151  1.00  0.00     0.020 A 
BRANCH  19  24
HETATM   24  O   UNL     1      38.700 -11.193   5.712  1.00  0.00    -0.353 OA
HETATM   25  C   UNL     1      39.358  -9.933   5.704  1.00  0.00     0.210 C 
ENDBRANCH  19  24
ENDBRANCH   1  17
TORSDOF 4
ENDMDL
MODEL 3
REMARK VINA RESULT:      -8.1      4.895      8.671
REMARK  4 active torsions:
REMARK  status: ('A' for Active; 'I' for Inactive)
REMARK    1  A    between atoms: O_2  and  C_3 
REMARK    2  A    between atoms: C_6  and  C_7 
REMARK       I    between atoms: C_7  and  N_8 
REMARK    3  A    between atoms: N_8  and  C_9 
REMARK    4  A    between atoms: C_14  and  C_15 
ROOT
HETATM    1  C   UNL     1      41.078 -15.603   5.472  1.00  0.00     0.259 C 
HETATM    2  N   UNL     1      42.317 -15.802   4.894  1.00  0.00    -0.320 N 
HETATM    3  O   UNL     1      40.502 -16.385   6.222  1.00  0.00    -0.267 OA
HETATM    4  H   UNL     1      42.567 -15.185   4.127  1.00  0.00     0.169 HD
ENDROOT
BRANCH   2   5
HETATM    5  C   UNL     1      43.225 -16.857   5.154  1.00  0.00     0.074 A 
HETATM    6  C   UNL     1      44.116 -16.913   6.230  1.00  0.00     0.143 A 
HETATM    7  F   UNL     1      44.271 -15.895   7.085  1.00  0.00    -0.204 F 
HETATM    8  C   UNL     1      44.961 -18.008   6.402  1.00  0.00     0.045 A 
HETATM    9  C   UNL     1      44.942 -19.063   5.488  1.00  0.00     0.017 A 
HETATM   10  C   UNL     1      44.088 -19.025   4.378  1.00  0.00     0.000 A 
HETATM   11  C   UNL     1      43.241 -17.911   4.222  1.00  0.00     0.047 A 
BRANCH  10  12
HETATM   12  C   UNL     1      44.085 -20.123   3.411  1.00  0.00     0.085 A 
HETATM   13  O   UNL     1      44.602 -21.314   3.841  1.00  0.00    -0.322 OA
HETATM   14  C   UNL     1      44.505 -22.196   2.815  1.00  0.00     0.142 A 
HETATM   15  C   UNL     1      43.933 -21.596   1.720  1.00  0.00     0.027 A 
HETATM   16  C   UNL     1      43.661 -20.260   2.103  1.00  0.00     0.040 A 
ENDBRANCH  10  12
ENDBRANCH   2   5
BRANCH   1  17
HETATM   17  C   UNL     1      40.358 -14.346   5.106  1.00  0.00     0.073 A 
HETATM   18  C   UNL     1      39.974 -14.034   3.800  1.00  0.00     0.165 A 
HETATM   19  C   UNL     1      39.289 -12.847   3.505  1.00  0.00     0.107 A 
HETATM   20  F   UNL     1      40.247 -14.886   2.796  1.00  0.00    -0.202 F 
HETATM   21  C   UNL     1      38.998 -11.952   4.537  1.00  0.00     0.040 A 
HETATM   22  C   UNL     1      39.378 -12.249   5.848  1.00  0.00     0.004 A 
HETATM   23  C   UNL     1      40.048 -13.439   6.132  1.00  0.00     0.020 A 
BRANCH  19  24
HETATM   24  O   UNL     1      38.962 -12.665   2.186  1.00  0.00    -0.353 OA
HETATM   25  C   UNL     1      39.806 -11.814   1.421  1.00  0.00     0.210 C 
ENDBRANCH  19  24
ENDBRANCH   1  17
TORSDOF 4
ENDMDL
MODEL 4
REMARK VINA RESULT:      -8.1      7.469      9.394
REMARK  4 active torsions:
REMARK  status: ('A' for Active; 'I' for Inactive)
REMARK    1  A    between atoms: O_2  and  C_3 
REMARK    2  A    between atoms: C_6  and  C_7 
REMARK       I    between atoms: C_7  and  N_8 
REMARK    3  A    between atoms: N_8  and  C_9 
REMARK    4  A    between atoms: C_14  and  C_15 
ROOT
HETATM    1  C   UNL     1      43.419 -18.131   2.001  1.00  0.00     0.259 C 
HETATM    2  N   UNL     1      42.068 -17.863   1.885  1.00  0.00    -0.320 N 
HETATM    3  O   UNL     1      44.329 -17.343   1.767  1.00  0.00    -0.267 OA
HETATM    4  H   UNL     1      41.442 -18.663   1.890  1.00  0.00     0.169 HD
ENDROOT
BRANCH   2   5
HETATM    5  C   UNL     1      41.462 -16.611   1.618  1.00  0.00     0.074 A 
HETATM    6  C   UNL     1      40.833 -15.797   2.564  1.00  0.00     0.143 A 
HETATM    7  F   UNL     1      40.650 -16.184   3.833  1.00  0.00    -0.204 F 
HETATM    8  C   UNL     1      40.279 -14.572   2.198  1.00  0.00     0.045 A 
HETATM    9  C   UNL     1      40.327 -14.146   0.870  1.00  0.00     0.017 A 
HETATM   10  C   UNL     1      40.917 -14.952  -0.113  1.00  0.00     0.000 A 
HETATM   11  C   UNL     1      41.473 -16.186   0.278  1.00  0.00     0.047 A 
BRANCH  10  12
HETATM   12  C   UNL     1      40.948 -14.512  -1.508  1.00  0.00     0.085 A 
HETATM   13  O   UNL     1      39.976 -15.016  -2.327  1.00  0.00    -0.322 OA
HETATM   14  C   UNL     1      40.170 -14.489  -3.562  1.00  0.00     0.142 A 
HETATM   15  C   UNL     1      41.256 -13.649  -3.560  1.00  0.00     0.027 A 
HETATM   16  C   UNL     1      41.760 -13.662  -2.237  1.00  0.00     0.040 A 
ENDBRANCH  10  12
ENDBRANCH   2   5
BRANCH   1  17
HETATM   17  C   UNL     1      43.798 -19.520   2.399  1.00  0.00     0.073 A 
HETATM   18  C   UNL     1      44.318 -19.845   3.654  1.00  0.00     0.165 A 
HETATM   19  C   UNL     1      44.648 -21.166   3.988  1.00  0.00     0.107 A 
HETATM   20  F   UNL     1      44.499 -18.883   4.577  1.00  0.00    -0.202 F 
HETATM   21  C   UNL     1      44.466 -22.175   3.040  1.00  0.00     0.040 A 
HETATM   22  C   UNL     1      43.948 -21.866   1.780  1.00  0.00     0.004 A 
HETATM   23  C   UNL     1      43.612 -20.550   1.463  1.00  0.00     0.020 A 
BRANCH  19  24
HETATM   24  O   UNL     1      45.141 -21.350   5.253  1.00  0.00    -0.353 OA
HETATM   25  C   UNL     1      44.193 -21.524   6.298  1.00  0.00     0.210 C 
ENDBRANCH  19  24
ENDBRANCH   1  17
TORSDOF 4
ENDMDL
MODEL 5
REMARK VINA RESULT:      -8.1      6.535      9.989
REMARK  4 active torsions:
REMARK  status: ('A' for Active; 'I' for Inactive)
REMARK    1  A    between atoms: O_2  and  C_3 
REMARK    2  A    between atoms: C_6  and  C_7 
REMARK       I    between atoms: C_7  and  N_8 
REMARK    3  A    between atoms: N_8  and  C_9 
REMARK    4  A    between atoms: C_14  and  C_15 
ROOT
HETATM    1  C   UNL     1      41.437 -15.511   0.319  1.00  0.00     0.259 C 
HETATM    2  N   UNL     1      42.666 -16.053   0.644  1.00  0.00    -0.320 N 
HETATM    3  O   UNL     1      40.425 -15.562   1.009  1.00  0.00    -0.267 OA
HETATM    4  H   UNL     1      43.343 -16.134  -0.108  1.00  0.00     0.169 HD
ENDROOT
BRANCH   2   5
HETATM    5  C   UNL     1      43.045 -16.641   1.876  1.00  0.00     0.074 A 
HETATM    6  C   UNL     1      43.159 -15.966   3.095  1.00  0.00     0.143 A 
HETATM    7  F   UNL     1      43.015 -14.639   3.194  1.00  0.00    -0.204 F 
HETATM    8  C   UNL     1      43.526 -16.643   4.256  1.00  0.00     0.045 A 
HETATM    9  C   UNL     1      43.805 -18.010   4.215  1.00  0.00     0.017 A 
HETATM   10  C   UNL     1      43.736 -18.713   3.005  1.00  0.00     0.000 A 
HETATM   11  C   UNL     1      43.362 -18.011   1.843  1.00  0.00     0.047 A 
BRANCH  10  12
HETATM   12  C   UNL     1      44.049 -20.142   2.962  1.00  0.00     0.085 A 
HETATM   13  O   UNL     1      44.527 -20.694   4.118  1.00  0.00    -0.322 OA
HETATM   14  C   UNL     1      44.747 -22.012   3.879  1.00  0.00     0.142 A 
HETATM   15  C   UNL     1      44.421 -22.326   2.583  1.00  0.00     0.027 A 
HETATM   16  C   UNL     1      43.970 -21.121   1.990  1.00  0.00     0.040 A 
ENDBRANCH  10  12
ENDBRANCH   2   5
BRANCH   1  17
HETATM   17  C   UNL     1      41.326 -14.850  -1.016  1.00  0.00     0.073 A 
HETATM   18  C   UNL     1      41.679 -13.518  -1.245  1.00  0.00     0.165 A 
HETATM   19  C   UNL     1      41.570 -12.943  -2.519  1.00  0.00     0.107 A 
HETATM   20  F   UNL     1      42.150 -12.763  -0.237  1.00  0.00    -0.202 F 
HETATM   21  C   UNL     1      41.083 -13.714  -3.577  1.00  0.00     0.040 A 
HETATM   22  C   UNL     1      40.723 -15.047  -3.363  1.00  0.00     0.004 A 
HETATM   23  C   UNL     1      40.848 -15.612  -2.094  1.00  0.00     0.020 A 
BRANCH  19  24
HETATM   24  O   UNL     1      41.958 -11.632  -2.611  1.00  0.00    -0.353 OA
HETATM   25  C   UNL     1      42.350 -11.160  -3.894  1.00  0.00     0.210 C 
ENDBRANCH  19  24
ENDBRANCH   1  17
TORSDOF 4
ENDMDL
MODEL 6
REMARK VINA RESULT:      -8.1      5.540      7.456
REMARK  4 active torsions:
REMARK  status: ('A' for Active; 'I' for Inactive)
REMARK    1  A    between atoms: O_2  and  C_3 
REMARK    2  A    between atoms: C_6  and  C_7 
REMARK       I    between atoms: C_7  and  N_8 
REMARK    3  A    between atoms: N_8  and  C_9 
REMARK    4  A    between atoms: C_14  and  C_15 
ROOT
HETATM    1  C   UNL     1      43.142 -17.556   2.998  1.00  0.00     0.259 C 
HETATM    2  N   UNL     1      41.981 -17.307   3.706  1.00  0.00    -0.320 N 
HETATM    3  O   UNL     1      43.805 -16.723   2.391  1.00  0.00    -0.267 OA
HETATM    4  H   UNL     1      41.421 -18.113   3.963  1.00  0.00     0.169 HD
ENDROOT
BRANCH   2   5
HETATM    5  C   UNL     1      41.408 -16.044   3.994  1.00  0.00     0.074 A 
HETATM    6  C   UNL     1      41.658 -15.283   5.140  1.00  0.00     0.143 A 
HETATM    7  F   UNL     1      42.407 -15.737   6.151  1.00  0.00    -0.204 F 
HETATM    8  C   UNL     1      41.050 -14.042   5.320  1.00  0.00     0.045 A 
HETATM    9  C   UNL     1      40.164 -13.546   4.362  1.00  0.00     0.017 A 
HETATM   10  C   UNL     1      39.861 -14.296   3.218  1.00  0.00     0.000 A 
HETATM   11  C   UNL     1      40.487 -15.547   3.054  1.00  0.00     0.047 A 
BRANCH  10  12
HETATM   12  C   UNL     1      38.917 -13.782   2.226  1.00  0.00     0.085 A 
HETATM   13  O   UNL     1      38.276 -14.713   1.457  1.00  0.00    -0.322 OA
HETATM   14  C   UNL     1      37.448 -14.046   0.614  1.00  0.00     0.142 A 
HETATM   15  C   UNL     1      37.543 -12.692   0.821  1.00  0.00     0.027 A 
HETATM   16  C   UNL     1      38.489 -12.519   1.861  1.00  0.00     0.040 A 
ENDBRANCH  10  12
ENDBRANCH   2   5
BRANCH   1  17
HETATM   17  C   UNL     1      43.594 -18.978   2.928  1.00  0.00     0.073 A 
HETATM   18  C   UNL     1      44.360 -19.591   3.922  1.00  0.00     0.165 A 
HETATM   19  C   UNL     1      44.752 -20.933   3.820  1.00  0.00     0.107 A 
HETATM   20  F   UNL     1      44.726 -18.895   5.014  1.00  0.00    -0.202 F 
HETATM   21  C   UNL     1      44.379 -21.668   2.692  1.00  0.00     0.040 A 
HETATM   22  C   UNL     1      43.615 -21.070   1.688  1.00  0.00     0.004 A 
HETATM   23  C   UNL     1      43.221 -19.737   1.806  1.00  0.00     0.020 A 
BRANCH  19  24
HETATM   24  O   UNL     1      45.493 -21.414   4.867  1.00  0.00    -0.353 OA
HETATM   25  C   UNL     1      45.086 -22.654   5.433  1.00  0.00     0.210 C 
ENDBRANCH  19  24
ENDBRANCH   1  17
TORSDOF 4
ENDMDL
MODEL 7
REMARK VINA RESULT:      -8.1      6.646      9.862
REMARK  4 active torsions:
REMARK  status: ('A' for Active; 'I' for Inactive)
REMARK    1  A    between atoms: O_2  and  C_3 
REMARK    2  A    between atoms: C_6  and  C_7 
REMARK       I    between atoms: C_7  and  N_8 
REMARK    3  A    between atoms: N_8  and  C_9 
REMARK    4  A    between atoms: C_14  and  C_15 
ROOT
HETATM    1  C   UNL     1      41.110 -14.672   0.698  1.00  0.00     0.259 C 
HETATM    2  N   UNL     1      40.617 -15.805   1.319  1.00  0.00    -0.320 N 
HETATM    3  O   UNL     1      42.026 -13.969   1.112  1.00  0.00    -0.267 OA
HETATM    4  H   UNL     1      39.722 -16.152   0.989  1.00  0.00     0.169 HD
ENDROOT
BRANCH   2   5
HETATM    5  C   UNL     1      41.147 -16.458   2.458  1.00  0.00     0.074 A 
HETATM    6  C   UNL     1      40.970 -16.047   3.783  1.00  0.00     0.143 A 
HETATM    7  F   UNL     1      40.348 -14.905   4.101  1.00  0.00    -0.204 F 
HETATM    8  C   UNL     1      41.524 -16.772   4.836  1.00  0.00     0.045 A 
HETATM    9  C   UNL     1      42.284 -17.915   4.581  1.00  0.00     0.017 A 
HETATM   10  C   UNL     1      42.514 -18.336   3.265  1.00  0.00     0.000 A 
HETATM   11  C   UNL     1      41.943 -17.591   2.215  1.00  0.00     0.047 A 
BRANCH  10  12
HETATM   12  C   UNL     1      43.327 -19.523   3.001  1.00  0.00     0.085 A 
HETATM   13  O   UNL     1      44.159 -19.927   4.008  1.00  0.00    -0.322 OA
HETATM   14  C   UNL     1      44.815 -21.034   3.577  1.00  0.00     0.142 A 
HETATM   15  C   UNL     1      44.424 -21.356   2.300  1.00  0.00     0.027 A 
HETATM   16  C   UNL     1      43.464 -20.383   1.927  1.00  0.00     0.040 A 
ENDBRANCH  10  12
ENDBRANCH   2   5
BRANCH   1  17
HETATM   17  C   UNL     1      40.428 -14.244  -0.560  1.00  0.00     0.073 A 
HETATM   18  C   UNL     1      40.506 -14.959  -1.757  1.00  0.00     0.165 A 
HETATM   19  C   UNL     1      39.839 -14.526  -2.912  1.00  0.00     0.107 A 
HETATM   20  F   UNL     1      41.220 -16.098  -1.816  1.00  0.00    -0.202 F 
HETATM   21  C   UNL     1      39.093 -13.345  -2.865  1.00  0.00     0.040 A 
HETATM   22  C   UNL     1      39.007 -12.618  -1.677  1.00  0.00     0.004 A 
HETATM   23  C   UNL     1      39.666 -13.065  -0.531  1.00  0.00     0.020 A 
BRANCH  19  24
HETATM   24  O   UNL     1      39.989 -15.323  -4.016  1.00  0.00    -0.353 OA
HETATM   25  C   UNL     1      38.888 -16.148  -4.374  1.00  0.00     0.210 C 
ENDBRANCH  19  24
ENDBRANCH   1  17
TORSDOF 4
ENDMDL
MODEL 8
REMARK VINA RESULT:      -7.8      7.127      9.746
REMARK  4 active torsions:
REMARK  status: ('A' for Active; 'I' for Inactive)
REMARK    1  A    between atoms: O_2  and  C_3 
REMARK    2  A    between atoms: C_6  and  C_7 
REMARK       I    between atoms: C_7  and  N_8 
REMARK    3  A    between atoms: N_8  and  C_9 
REMARK    4  A    between atoms: C_14  and  C_15 
ROOT
HETATM    1  C   UNL     1      42.147 -17.400   2.342  1.00  0.00     0.259 C 
HETATM    2  N   UNL     1      42.723 -16.507   1.459  1.00  0.00    -0.320 N 
HETATM    3  O   UNL     1      41.003 -17.339   2.781  1.00  0.00    -0.267 OA
HETATM    4  H   UNL     1      43.732 -16.550   1.360  1.00  0.00     0.169 HD
ENDROOT
BRANCH   2   5
HETATM    5  C   UNL     1      42.084 -15.442   0.778  1.00  0.00     0.074 A 
HETATM    6  C   UNL     1      42.109 -14.099   1.168  1.00  0.00     0.143 A 
HETATM    7  F   UNL     1      42.672 -13.698   2.315  1.00  0.00    -0.204 F 
HETATM    8  C   UNL     1      41.457 -13.124   0.417  1.00  0.00     0.045 A 
HETATM    9  C   UNL     1      40.749 -13.477  -0.733  1.00  0.00     0.017 A 
HETATM   10  C   UNL     1      40.672 -14.817  -1.136  1.00  0.00     0.000 A 
HETATM   11  C   UNL     1      41.339 -15.788  -0.364  1.00  0.00     0.047 A 
BRANCH  10  12
HETATM   12  C   UNL     1      39.913 -15.186  -2.331  1.00  0.00     0.085 A 
HETATM   13  O   UNL     1      38.756 -14.493  -2.555  1.00  0.00    -0.322 OA
HETATM   14  C   UNL     1      38.209 -14.971  -3.701  1.00  0.00     0.142 A 
HETATM   15  C   UNL     1      38.993 -15.969  -4.226  1.00  0.00     0.027 A 
HETATM   16  C   UNL     1      40.092 -16.109  -3.345  1.00  0.00     0.040 A 
ENDBRANCH  10  12
ENDBRANCH   2   5
BRANCH   1  17
HETATM   17  C   UNL     1      43.017 -18.506   2.843  1.00  0.00     0.073 A 
HETATM   18  C   UNL     1      43.460 -18.597   4.165  1.00  0.00     0.165 A 
HETATM   19  C   UNL     1      44.266 -19.661   4.594  1.00  0.00     0.107 A 
HETATM   20  F   UNL     1      43.101 -17.659   5.061  1.00  0.00    -0.202 F 
HETATM   21  C   UNL     1      44.645 -20.642   3.675  1.00  0.00     0.040 A 
HETATM   22  C   UNL     1      44.213 -20.565   2.350  1.00  0.00     0.004 A 
HETATM   23  C   UNL     1      43.401 -19.508   1.937  1.00  0.00     0.020 A 
BRANCH  19  24
HETATM   24  O   UNL     1      44.623 -19.636   5.917  1.00  0.00    -0.353 OA
HETATM   25  C   UNL     1      43.819 -20.385   6.819  1.00  0.00     0.210 C 
ENDBRANCH  19  24
ENDBRANCH   1  17
TORSDOF 4
ENDMDL
MODEL 9
REMARK VINA RESULT:      -7.8      7.066     10.467
REMARK  4 active torsions:
REMARK  status: ('A' for Active; 'I' for Inactive)
REMARK    1  A    between atoms: O_2  and  C_3 
REMARK    2  A    between atoms: C_6  and  C_7 
REMARK       I    between atoms: C_7  and  N_8 
REMARK    3  A    between atoms: N_8  and  C_9 
REMARK    4  A    between atoms: C_14  and  C_15 
ROOT
HETATM    1  C   UNL     1      41.136 -15.208   0.129  1.00  0.00     0.259 C 
HETATM    2  N   UNL     1      40.662 -16.301   0.830  1.00  0.00    -0.320 N 
HETATM    3  O   UNL     1      42.061 -14.481   0.474  1.00  0.00    -0.267 OA
HETATM    4  H   UNL     1      39.760 -16.669   0.546  1.00  0.00     0.169 HD
ENDROOT
BRANCH   2   5
HETATM    5  C   UNL     1      41.223 -16.883   1.993  1.00  0.00     0.074 A 
HETATM    6  C   UNL     1      41.051 -16.412   3.299  1.00  0.00     0.143 A 
HETATM    7  F   UNL     1      40.403 -15.272   3.569  1.00  0.00    -0.204 F 
HETATM    8  C   UNL     1      41.637 -17.069   4.378  1.00  0.00     0.045 A 
HETATM    9  C   UNL     1      42.424 -18.203   4.170  1.00  0.00     0.017 A 
HETATM   10  C   UNL     1      42.649 -18.683   2.873  1.00  0.00     0.000 A 
HETATM   11  C   UNL     1      42.046 -18.006   1.795  1.00  0.00     0.047 A 
BRANCH  10  12
HETATM   12  C   UNL     1      43.490 -19.860   2.657  1.00  0.00     0.085 A 
HETATM   13  O   UNL     1      43.058 -20.752   1.716  1.00  0.00    -0.322 OA
HETATM   14  C   UNL     1      43.967 -21.758   1.659  1.00  0.00     0.142 A 
HETATM   15  C   UNL     1      44.986 -21.535   2.552  1.00  0.00     0.027 A 
HETATM   16  C   UNL     1      44.680 -20.311   3.197  1.00  0.00     0.040 A 
ENDBRANCH  10  12
ENDBRANCH   2   5
BRANCH   1  17
HETATM   17  C   UNL     1      40.421 -14.858  -1.135  1.00  0.00     0.073 A 
HETATM   18  C   UNL     1      39.362 -13.949  -1.191  1.00  0.00     0.165 A 
HETATM   19  C   UNL     1      38.728 -13.640  -2.403  1.00  0.00     0.107 A 
HETATM   20  F   UNL     1      38.941 -13.336  -0.070  1.00  0.00    -0.202 F 
HETATM   21  C   UNL     1      39.155 -14.269  -3.575  1.00  0.00     0.040 A 
HETATM   22  C   UNL     1      40.211 -15.182  -3.535  1.00  0.00     0.004 A 
HETATM   23  C   UNL     1      40.842 -15.471  -2.325  1.00  0.00     0.020 A 
BRANCH  19  24
HETATM   24  O   UNL     1      37.711 -12.726  -2.322  1.00  0.00    -0.353 OA
HETATM   25  C   UNL     1      37.000 -12.440  -3.520  1.00  0.00     0.210 C 
ENDBRANCH  19  24
ENDBRANCH   1  17
TORSDOF 4
ENDMDL
MODEL 10
REMARK VINA RESULT:      -7.7      6.599      9.090
REMARK  4 active torsions:
REMARK  status: ('A' for Active; 'I' for Inactive)
REMARK    1  A    between atoms: O_2  and  C_3 
REMARK    2  A    between atoms: C_6  and  C_7 
REMARK       I    between atoms: C_7  and  N_8 
REMARK    3  A    between atoms: N_8  and  C_9 
REMARK    4  A    between atoms: C_14  and  C_15 
ROOT
HETATM    1  C   UNL     1      42.398 -17.018   3.328  1.00  0.00     0.259 C 
HETATM    2  N   UNL     1      43.021 -16.213   2.394  1.00  0.00    -0.320 N 
HETATM    3  O   UNL     1      41.276 -16.843   3.792  1.00  0.00    -0.267 OA
HETATM    4  H   UNL     1      44.021 -16.345   2.272  1.00  0.00     0.169 HD
ENDROOT
BRANCH   2   5
HETATM    5  C   UNL     1      42.455 -15.126   1.684  1.00  0.00     0.074 A 
HETATM    6  C   UNL     1      42.464 -13.792   2.104  1.00  0.00     0.143 A 
HETATM    7  F   UNL     1      42.933 -13.422   3.302  1.00  0.00    -0.204 F 
HETATM    8  C   UNL     1      41.889 -12.792   1.322  1.00  0.00     0.045 A 
HETATM    9  C   UNL     1      41.276 -13.113   0.109  1.00  0.00     0.017 A 
HETATM   10  C   UNL     1      41.216 -14.443  -0.327  1.00  0.00     0.000 A 
HETATM   11  C   UNL     1      41.804 -15.438   0.477  1.00  0.00     0.047 A 
BRANCH  10  12
HETATM   12  C   UNL     1      40.556 -14.777  -1.589  1.00  0.00     0.085 A 
HETATM   13  O   UNL     1      39.379 -14.132  -1.849  1.00  0.00    -0.322 OA
HETATM   14  C   UNL     1      38.932 -14.567  -3.054  1.00  0.00     0.142 A 
HETATM   15  C   UNL     1      39.801 -15.490  -3.582  1.00  0.00     0.027 A 
HETATM   16  C   UNL     1      40.849 -15.626  -2.640  1.00  0.00     0.040 A 
ENDBRANCH  10  12
ENDBRANCH   2   5
BRANCH   1  17
HETATM   17  C   UNL     1      43.186 -18.173   3.853  1.00  0.00     0.073 A 
HETATM   18  C   UNL     1      43.826 -19.103   3.031  1.00  0.00     0.165 A 
HETATM   19  C   UNL     1      44.566 -20.166   3.569  1.00  0.00     0.107 A 
HETATM   20  F   UNL     1      43.753 -18.982   1.693  1.00  0.00    -0.202 F 
HETATM   21  C   UNL     1      44.652 -20.304   4.956  1.00  0.00     0.040 A 
HETATM   22  C   UNL     1      44.016 -19.384   5.791  1.00  0.00     0.004 A 
HETATM   23  C   UNL     1      43.292 -18.324   5.245  1.00  0.00     0.020 A 
BRANCH  19  24
HETATM   24  O   UNL     1      45.152 -21.001   2.653  1.00  0.00    -0.353 OA
HETATM   25  C   UNL     1      44.383 -22.109   2.203  1.00  0.00     0.210 C 
ENDBRANCH  19  24
ENDBRANCH   1  17
TORSDOF 4
ENDMDL
