MODEL 1
REMARK VINA RESULT:      -8.6      0.000      0.000
REMARK  5 active torsions:
REMARK  status: ('A' for Active; 'I' for Inactive)
REMARK    1  A    between atoms: C_6  and  C_7 
REMARK    2  A    between atoms: C_7  and  N_8 
REMARK       I    between atoms: N_8  and  C_9 
REMARK       I    between atoms: C_9  and  N_10 
REMARK    3  A    between atoms: N_10  and  C_11 
REMARK    4  A    between atoms: C_14  and  C_15 
REMARK       I    between atoms: C_15  and  N_16 
REMARK    5  A    between atoms: N_16  and  C_17 
ROOT
HETATM    1  C   UNL     1      41.627 -12.982   5.513  1.00  0.00     0.036 A 
HETATM    2  C   UNL     1      42.843 -13.530   5.100  1.00  0.00     0.030 A 
HETATM    3  C   UNL     1      42.951 -14.901   4.837  1.00  0.00     0.019 A 
HETATM    4  C   UNL     1      41.852 -15.747   5.017  1.00  0.00     0.032 A 
HETATM    5  C   UNL     1      40.642 -15.211   5.469  1.00  0.00     0.019 A 
HETATM    6  C   UNL     1      40.540 -13.839   5.729  1.00  0.00     0.030 A 
ENDROOT
BRANCH   1   7
HETATM    7  N   UNL     1      41.408 -11.614   5.758  1.00  0.00    -0.309 N 
HETATM    8  C   UNL     1      41.488 -10.848   6.880  1.00  0.00     0.321 C 
HETATM    9  N   UNL     1      42.070 -11.386   7.977  1.00  0.00    -0.337 N 
HETATM   10  O   UNL     1      41.076  -9.690   6.850  1.00  0.00    -0.247 OA
HETATM   11  H   UNL     1      42.752 -12.114   7.826  1.00  0.00     0.164 HD
HETATM   12  H   UNL     1      41.146 -11.047   4.961  1.00  0.00     0.170 HD
BRANCH   9  13
HETATM   13  C   UNL     1      42.286 -10.595   9.165  1.00  0.00     0.186 C 
BRANCH  13  14
HETATM   14  C   UNL     1      43.669 -10.821   9.665  1.00  0.00     0.083 A 
HETATM   15  C   UNL     1      44.177 -10.584  10.926  1.00  0.00     0.076 A 
HETATM   16  C   UNL     1      43.623 -10.045  12.181  1.00  0.00     0.079 C 
HETATM   17  O   UNL     1      45.495 -10.950  10.927  1.00  0.00    -0.307 OA
HETATM   18  C   UNL     1      45.716 -11.385   9.657  1.00  0.00     0.258 A 
HETATM   19  N   UNL     1      44.678 -11.319   8.855  1.00  0.00    -0.237 NA
ENDBRANCH  13  14
ENDBRANCH   9  13
ENDBRANCH   1   7
BRANCH   4  20
HETATM   20  C   UNL     1      41.987 -17.188   4.656  1.00  0.00     0.256 C 
HETATM   21  N   UNL     1      43.091 -17.498   3.882  1.00  0.00    -0.323 N 
HETATM   22  H   UNL     1      43.606 -16.725   3.482  1.00  0.00     0.169 HD
HETATM   23  O   UNL     1      41.124 -17.964   5.047  1.00  0.00    -0.267 OA
BRANCH  21  24
HETATM   24  C   UNL     1      43.549 -18.785   3.529  1.00  0.00     0.035 A 
HETATM   25  C   UNL     1      44.421 -19.542   4.314  1.00  0.00     0.029 A 
HETATM   26  C   UNL     1      44.859 -20.797   3.879  1.00  0.00     0.002 A 
HETATM   27  C   UNL     1      44.429 -21.306   2.657  1.00  0.00     0.000 A 
HETATM   28  C   UNL     1      43.559 -20.560   1.866  1.00  0.00     0.002 A 
HETATM   29  C   UNL     1      43.124 -19.305   2.300  1.00  0.00     0.029 A 
ENDBRANCH  21  24
ENDBRANCH   4  20
TORSDOF 5
ENDMDL
MODEL 2
REMARK VINA RESULT:      -8.0      1.330      1.725
REMARK  5 active torsions:
REMARK  status: ('A' for Active; 'I' for Inactive)
REMARK    1  A    between atoms: C_6  and  C_7 
REMARK    2  A    between atoms: C_7  and  N_8 
REMARK       I    between atoms: N_8  and  C_9 
REMARK       I    between atoms: C_9  and  N_10 
REMARK    3  A    between atoms: N_10  and  C_11 
REMARK    4  A    between atoms: C_14  and  C_15 
REMARK       I    between atoms: C_15  and  N_16 
REMARK    5  A    between atoms: N_16  and  C_17 
ROOT
HETATM    1  C   UNL     1      42.008 -13.085   4.247  1.00  0.00     0.036 A 
HETATM    2  C   UNL     1      43.183 -13.754   4.597  1.00  0.00     0.030 A 
HETATM    3  C   UNL     1      43.234 -15.153   4.586  1.00  0.00     0.019 A 
HETATM    4  C   UNL     1      42.099 -15.902   4.257  1.00  0.00     0.032 A 
HETATM    5  C   UNL     1      40.908 -15.239   3.944  1.00  0.00     0.019 A 
HETATM    6  C   UNL     1      40.865 -13.840   3.956  1.00  0.00     0.030 A 
ENDROOT
BRANCH   1   7
HETATM    7  N   UNL     1      41.873 -11.686   4.184  1.00  0.00    -0.309 N 
HETATM    8  C   UNL     1      41.475 -10.752   5.091  1.00  0.00     0.321 C 
HETATM    9  N   UNL     1      41.353 -11.131   6.384  1.00  0.00    -0.337 N 
HETATM   10  O   UNL     1      41.285  -9.595   4.720  1.00  0.00    -0.247 OA
HETATM   11  H   UNL     1      41.920 -11.908   6.692  1.00  0.00     0.164 HD
HETATM   12  H   UNL     1      42.121 -11.245   3.308  1.00  0.00     0.170 HD
BRANCH   9  13
HETATM   13  C   UNL     1      41.043 -10.169   7.413  1.00  0.00     0.186 C 
BRANCH  13  14
HETATM   14  C   UNL     1      41.797 -10.507   8.651  1.00  0.00     0.083 A 
HETATM   15  C   UNL     1      41.318 -10.653   9.938  1.00  0.00     0.076 A 
HETATM   16  C   UNL     1      39.992 -10.531  10.568  1.00  0.00     0.079 C 
HETATM   17  O   UNL     1      42.372 -10.974  10.747  1.00  0.00    -0.307 OA
HETATM   18  C   UNL     1      43.440 -10.998   9.904  1.00  0.00     0.258 A 
HETATM   19  N   UNL     1      43.168 -10.714   8.650  1.00  0.00    -0.237 NA
ENDBRANCH  13  14
ENDBRANCH   9  13
ENDBRANCH   1   7
BRANCH   4  20
HETATM   20  C   UNL     1      42.214 -17.388   4.186  1.00  0.00     0.256 C 
HETATM   21  N   UNL     1      43.177 -17.860   3.313  1.00  0.00    -0.323 N 
HETATM   22  H   UNL     1      43.594 -17.192   2.679  1.00  0.00     0.169 HD
HETATM   23  O   UNL     1      41.453 -18.058   4.872  1.00  0.00    -0.267 OA
BRANCH  21  24
HETATM   24  C   UNL     1      43.607 -19.195   3.161  1.00  0.00     0.035 A 
HETATM   25  C   UNL     1      44.434 -19.855   4.072  1.00  0.00     0.029 A 
HETATM   26  C   UNL     1      44.846 -21.170   3.835  1.00  0.00     0.002 A 
HETATM   27  C   UNL     1      44.434 -21.838   2.684  1.00  0.00     0.000 A 
HETATM   28  C   UNL     1      43.609 -21.190   1.769  1.00  0.00     0.002 A 
HETATM   29  C   UNL     1      43.200 -19.875   2.006  1.00  0.00     0.029 A 
ENDBRANCH  21  24
ENDBRANCH   4  20
TORSDOF 5
ENDMDL
MODEL 3
REMARK VINA RESULT:      -7.8      2.205      9.509
REMARK  5 active torsions:
REMARK  status: ('A' for Active; 'I' for Inactive)
REMARK    1  A    between atoms: C_6  and  C_7 
REMARK    2  A    between atoms: C_7  and  N_8 
REMARK       I    between atoms: N_8  and  C_9 
REMARK       I    between atoms: C_9  and  N_10 
REMARK    3  A    between atoms: N_10  and  C_11 
REMARK    4  A    between atoms: C_14  and  C_15 
REMARK       I    between atoms: C_15  and  N_16 
REMARK    5  A    between atoms: N_16  and  C_17 
ROOT
HETATM    1  C   UNL     1      43.762 -13.876   5.576  1.00  0.00     0.036 A 
HETATM    2  C   UNL     1      44.890 -14.149   6.353  1.00  0.00     0.030 A 
HETATM    3  C   UNL     1      45.027 -13.589   7.629  1.00  0.00     0.019 A 
HETATM    4  C   UNL     1      44.051 -12.721   8.131  1.00  0.00     0.032 A 
HETATM    5  C   UNL     1      42.939 -12.411   7.342  1.00  0.00     0.019 A 
HETATM    6  C   UNL     1      42.808 -12.977   6.068  1.00  0.00     0.030 A 
ENDROOT
BRANCH   1   7
HETATM    7  N   UNL     1      43.514 -14.426   4.305  1.00  0.00    -0.309 N 
HETATM    8  C   UNL     1      43.114 -15.659   3.891  1.00  0.00     0.321 C 
HETATM    9  N   UNL     1      42.659 -16.527   4.824  1.00  0.00    -0.337 N 
HETATM   10  O   UNL     1      43.135 -15.929   2.691  1.00  0.00    -0.247 OA
HETATM   11  H   UNL     1      42.258 -16.134   5.663  1.00  0.00     0.164 HD
HETATM   12  H   UNL     1      43.637 -13.809   3.512  1.00  0.00     0.170 HD
BRANCH   9  13
HETATM   13  C   UNL     1      42.117 -17.809   4.443  1.00  0.00     0.186 C 
BRANCH  13  14
HETATM   14  C   UNL     1      43.210 -18.820   4.414  1.00  0.00     0.083 A 
HETATM   15  C   UNL     1      43.769 -19.452   3.322  1.00  0.00     0.076 A 
HETATM   16  C   UNL     1      43.533 -19.408   1.868  1.00  0.00     0.079 C 
HETATM   17  O   UNL     1      44.747 -20.293   3.776  1.00  0.00    -0.307 OA
HETATM   18  C   UNL     1      44.721 -20.130   5.126  1.00  0.00     0.258 A 
HETATM   19  N   UNL     1      43.821 -19.282   5.569  1.00  0.00    -0.237 NA
ENDBRANCH  13  14
ENDBRANCH   9  13
ENDBRANCH   1   7
BRANCH   4  20
HETATM   20  C   UNL     1      44.197 -12.202   9.522  1.00  0.00     0.256 C 
HETATM   21  N   UNL     1      43.148 -11.420   9.970  1.00  0.00    -0.323 N 
HETATM   22  H   UNL     1      42.468 -11.122   9.282  1.00  0.00     0.169 HD
HETATM   23  O   UNL     1      45.217 -12.484  10.138  1.00  0.00    -0.267 OA
BRANCH  21  24
HETATM   24  C   UNL     1      42.947 -10.934  11.278  1.00  0.00     0.035 A 
HETATM   25  C   UNL     1      43.796 -10.021  11.908  1.00  0.00     0.029 A 
HETATM   26  C   UNL     1      43.549  -9.611  13.222  1.00  0.00     0.002 A 
HETATM   27  C   UNL     1      42.451 -10.109  13.918  1.00  0.00     0.000 A 
HETATM   28  C   UNL     1      41.597 -11.020  13.300  1.00  0.00     0.002 A 
HETATM   29  C   UNL     1      41.846 -11.431  11.988  1.00  0.00     0.029 A 
ENDBRANCH  21  24
ENDBRANCH   4  20
TORSDOF 5
ENDMDL
MODEL 4
REMARK VINA RESULT:      -7.8      1.720      2.338
REMARK  5 active torsions:
REMARK  status: ('A' for Active; 'I' for Inactive)
REMARK    1  A    between atoms: C_6  and  C_7 
REMARK    2  A    between atoms: C_7  and  N_8 
REMARK       I    between atoms: N_8  and  C_9 
REMARK       I    between atoms: C_9  and  N_10 
REMARK    3  A    between atoms: N_10  and  C_11 
REMARK    4  A    between atoms: C_14  and  C_15 
REMARK       I    between atoms: C_15  and  N_16 
REMARK    5  A    between atoms: N_16  and  C_17 
ROOT
HETATM    1  C   UNL     1      40.752 -13.044   5.578  1.00  0.00     0.036 A 
HETATM    2  C   UNL     1      40.126 -14.284   5.432  1.00  0.00     0.030 A 
HETATM    3  C   UNL     1      40.884 -15.444   5.232  1.00  0.00     0.019 A 
HETATM    4  C   UNL     1      42.278 -15.373   5.142  1.00  0.00     0.032 A 
HETATM    5  C   UNL     1      42.909 -14.130   5.248  1.00  0.00     0.019 A 
HETATM    6  C   UNL     1      42.145 -12.974   5.449  1.00  0.00     0.030 A 
ENDROOT
BRANCH   1   7
HETATM    7  N   UNL     1      40.081 -11.833   5.827  1.00  0.00    -0.309 N 
HETATM    8  C   UNL     1      39.624 -11.244   6.965  1.00  0.00     0.321 C 
HETATM    9  N   UNL     1      40.018 -11.760   8.152  1.00  0.00    -0.337 N 
HETATM   10  O   UNL     1      38.912 -10.245   6.882  1.00  0.00    -0.247 OA
HETATM   11  H   UNL     1      40.900 -12.253   8.170  1.00  0.00     0.164 HD
HETATM   12  H   UNL     1      39.890 -11.247   5.024  1.00  0.00     0.170 HD
BRANCH   9  13
HETATM   13  C   UNL     1      39.661 -11.121   9.395  1.00  0.00     0.186 C 
BRANCH  13  14
HETATM   14  C   UNL     1      40.893 -10.850  10.185  1.00  0.00     0.083 A 
HETATM   15  C   UNL     1      41.120 -11.075  11.528  1.00  0.00     0.076 A 
HETATM   16  C   UNL     1      40.314 -11.610  12.639  1.00  0.00     0.079 C 
HETATM   17  O   UNL     1      42.398 -10.681  11.811  1.00  0.00    -0.307 OA
HETATM   18  C   UNL     1      42.876 -10.230  10.620  1.00  0.00     0.258 A 
HETATM   19  N   UNL     1      42.027 -10.288   9.620  1.00  0.00    -0.237 NA
ENDBRANCH  13  14
ENDBRANCH   9  13
ENDBRANCH   1   7
BRANCH   4  20
HETATM   20  C   UNL     1      43.054 -16.640   5.002  1.00  0.00     0.256 C 
HETATM   21  N   UNL     1      42.599 -17.501   4.020  1.00  0.00    -0.323 N 
HETATM   22  H   UNL     1      41.699 -17.295   3.607  1.00  0.00     0.169 HD
HETATM   23  O   UNL     1      43.998 -16.825   5.761  1.00  0.00    -0.267 OA
BRANCH  21  24
HETATM   24  C   UNL     1      43.224 -18.681   3.567  1.00  0.00     0.035 A 
HETATM   25  C   UNL     1      43.017 -19.234   2.301  1.00  0.00     0.029 A 
HETATM   26  C   UNL     1      43.647 -20.429   1.937  1.00  0.00     0.002 A 
HETATM   27  C   UNL     1      44.489 -21.080   2.833  1.00  0.00     0.000 A 
HETATM   28  C   UNL     1      44.703 -20.538   4.098  1.00  0.00     0.002 A 
HETATM   29  C   UNL     1      44.071 -19.346   4.463  1.00  0.00     0.029 A 
ENDBRANCH  21  24
ENDBRANCH   4  20
TORSDOF 5
ENDMDL
MODEL 5
REMARK VINA RESULT:      -7.7      4.931      7.625
REMARK  5 active torsions:
REMARK  status: ('A' for Active; 'I' for Inactive)
REMARK    1  A    between atoms: C_6  and  C_7 
REMARK    2  A    between atoms: C_7  and  N_8 
REMARK       I    between atoms: N_8  and  C_9 
REMARK       I    between atoms: C_9  and  N_10 
REMARK    3  A    between atoms: N_10  and  C_11 
REMARK    4  A    between atoms: C_14  and  C_15 
REMARK       I    between atoms: C_15  and  N_16 
REMARK    5  A    between atoms: N_16  and  C_17 
ROOT
HETATM    1  C   UNL     1      41.946 -13.509   2.843  1.00  0.00     0.036 A 
HETATM    2  C   UNL     1      43.213 -14.093   2.899  1.00  0.00     0.030 A 
HETATM    3  C   UNL     1      43.357 -15.446   3.229  1.00  0.00     0.019 A 
HETATM    4  C   UNL     1      42.237 -16.224   3.539  1.00  0.00     0.032 A 
HETATM    5  C   UNL     1      40.969 -15.635   3.523  1.00  0.00     0.019 A 
HETATM    6  C   UNL     1      40.831 -14.283   3.191  1.00  0.00     0.030 A 
ENDROOT
BRANCH   1   7
HETATM    7  N   UNL     1      41.696 -12.173   2.478  1.00  0.00    -0.309 N 
HETATM    8  C   UNL     1      41.414 -11.575   1.289  1.00  0.00     0.321 C 
HETATM    9  N   UNL     1      41.104 -12.366   0.235  1.00  0.00    -0.337 N 
HETATM   10  O   UNL     1      41.405 -10.347   1.219  1.00  0.00    -0.247 OA
HETATM   11  H   UNL     1      40.704 -13.270   0.440  1.00  0.00     0.164 HD
HETATM   12  H   UNL     1      41.710 -11.489   3.223  1.00  0.00     0.170 HD
BRANCH   9  13
HETATM   13  C   UNL     1      40.688 -11.796  -1.023  1.00  0.00     0.186 C 
BRANCH  13  14
HETATM   14  C   UNL     1      40.741 -12.841  -2.082  1.00  0.00     0.083 A 
HETATM   15  C   UNL     1      41.411 -12.811  -3.288  1.00  0.00     0.076 A 
HETATM   16  C   UNL     1      42.259 -11.822  -3.976  1.00  0.00     0.079 C 
HETATM   17  O   UNL     1      41.179 -13.996  -3.930  1.00  0.00    -0.307 OA
HETATM   18  C   UNL     1      40.371 -14.680  -3.076  1.00  0.00     0.258 A 
HETATM   19  N   UNL     1      40.061 -14.044  -1.969  1.00  0.00    -0.237 NA
ENDBRANCH  13  14
ENDBRANCH   9  13
ENDBRANCH   1   7
BRANCH   4  20
HETATM   20  C   UNL     1      42.425 -17.679   3.814  1.00  0.00     0.256 C 
HETATM   21  N   UNL     1      43.227 -18.348   2.907  1.00  0.00    -0.323 N 
HETATM   22  H   UNL     1      43.471 -17.857   2.057  1.00  0.00     0.169 HD
HETATM   23  O   UNL     1      41.855 -18.160   4.785  1.00  0.00    -0.267 OA
BRANCH  21  24
HETATM   24  C   UNL     1      43.699 -19.673   3.004  1.00  0.00     0.035 A 
HETATM   25  C   UNL     1      44.418 -20.165   4.095  1.00  0.00     0.029 A 
HETATM   26  C   UNL     1      44.883 -21.484   4.103  1.00  0.00     0.002 A 
HETATM   27  C   UNL     1      44.633 -22.323   3.020  1.00  0.00     0.000 A 
HETATM   28  C   UNL     1      43.917 -21.844   1.927  1.00  0.00     0.002 A 
HETATM   29  C   UNL     1      43.455 -20.525   1.919  1.00  0.00     0.029 A 
ENDBRANCH  21  24
ENDBRANCH   4  20
TORSDOF 5
ENDMDL
MODEL 6
REMARK VINA RESULT:      -7.6      5.826      9.641
REMARK  5 active torsions:
REMARK  status: ('A' for Active; 'I' for Inactive)
REMARK    1  A    between atoms: C_6  and  C_7 
REMARK    2  A    between atoms: C_7  and  N_8 
REMARK       I    between atoms: N_8  and  C_9 
REMARK       I    between atoms: C_9  and  N_10 
REMARK    3  A    between atoms: N_10  and  C_11 
REMARK    4  A    between atoms: C_14  and  C_15 
REMARK       I    between atoms: C_15  and  N_16 
REMARK    5  A    between atoms: N_16  and  C_17 
ROOT
HETATM    1  C   UNL     1      41.436 -16.589   2.654  1.00  0.00     0.036 A 
HETATM    2  C   UNL     1      41.197 -17.364   1.518  1.00  0.00     0.030 A 
HETATM    3  C   UNL     1      41.078 -16.761   0.259  1.00  0.00     0.019 A 
HETATM    4  C   UNL     1      41.163 -15.371   0.128  1.00  0.00     0.032 A 
HETATM    5  C   UNL     1      41.361 -14.586   1.268  1.00  0.00     0.019 A 
HETATM    6  C   UNL     1      41.481 -15.195   2.522  1.00  0.00     0.030 A 
ENDROOT
BRANCH   1   7
HETATM    7  N   UNL     1      41.615 -17.105   3.951  1.00  0.00    -0.309 N 
HETATM    8  C   UNL     1      42.464 -18.033   4.470  1.00  0.00     0.321 C 
HETATM    9  N   UNL     1      43.497 -18.450   3.702  1.00  0.00    -0.337 N 
HETATM   10  O   UNL     1      42.296 -18.427   5.623  1.00  0.00    -0.247 OA
HETATM   11  H   UNL     1      43.835 -17.811   2.997  1.00  0.00     0.164 HD
HETATM   12  H   UNL     1      41.018 -16.728   4.676  1.00  0.00     0.170 HD
BRANCH   9  13
HETATM   13  C   UNL     1      44.497 -19.349   4.227  1.00  0.00     0.186 C 
BRANCH  13  14
HETATM   14  C   UNL     1      44.459 -20.629   3.469  1.00  0.00     0.083 A 
HETATM   15  C   UNL     1      44.741 -21.904   3.918  1.00  0.00     0.076 A 
HETATM   16  C   UNL     1      45.170 -22.476   5.206  1.00  0.00     0.079 C 
HETATM   17  O   UNL     1      44.566 -22.768   2.874  1.00  0.00    -0.307 OA
HETATM   18  C   UNL     1      44.193 -21.965   1.841  1.00  0.00     0.258 A 
HETATM   19  N   UNL     1      44.126 -20.685   2.124  1.00  0.00    -0.237 NA
ENDBRANCH  13  14
ENDBRANCH   9  13
ENDBRANCH   1   7
BRANCH   4  20
HETATM   20  C   UNL     1      41.103 -14.774  -1.238  1.00  0.00     0.256 C 
HETATM   21  N   UNL     1      41.035 -13.393  -1.272  1.00  0.00    -0.323 N 
HETATM   22  H   UNL     1      40.855 -12.918  -0.397  1.00  0.00     0.169 HD
HETATM   23  O   UNL     1      41.100 -15.533  -2.200  1.00  0.00    -0.267 OA
BRANCH  21  24
HETATM   24  C   UNL     1      41.125 -12.563  -2.409  1.00  0.00     0.035 A 
HETATM   25  C   UNL     1      40.023 -12.158  -3.165  1.00  0.00     0.029 A 
HETATM   26  C   UNL     1      40.197 -11.362  -4.302  1.00  0.00     0.002 A 
HETATM   27  C   UNL     1      41.473 -10.964  -4.693  1.00  0.00     0.000 A 
HETATM   28  C   UNL     1      42.578 -11.363  -3.947  1.00  0.00     0.002 A 
HETATM   29  C   UNL     1      42.405 -12.161  -2.812  1.00  0.00     0.029 A 
ENDBRANCH  21  24
ENDBRANCH   4  20
TORSDOF 5
ENDMDL
MODEL 7
REMARK VINA RESULT:      -7.4      3.692      5.232
REMARK  5 active torsions:
REMARK  status: ('A' for Active; 'I' for Inactive)
REMARK    1  A    between atoms: C_6  and  C_7 
REMARK    2  A    between atoms: C_7  and  N_8 
REMARK       I    between atoms: N_8  and  C_9 
REMARK       I    between atoms: C_9  and  N_10 
REMARK    3  A    between atoms: N_10  and  C_11 
REMARK    4  A    between atoms: C_14  and  C_15 
REMARK       I    between atoms: C_15  and  N_16 
REMARK    5  A    between atoms: N_16  and  C_17 
ROOT
HETATM    1  C   UNL     1      39.582 -14.534   0.978  1.00  0.00     0.036 A 
HETATM    2  C   UNL     1      39.449 -15.608   1.861  1.00  0.00     0.030 A 
HETATM    3  C   UNL     1      40.461 -16.570   1.967  1.00  0.00     0.019 A 
HETATM    4  C   UNL     1      41.605 -16.487   1.167  1.00  0.00     0.032 A 
HETATM    5  C   UNL     1      41.726 -15.436   0.252  1.00  0.00     0.019 A 
HETATM    6  C   UNL     1      40.711 -14.477   0.152  1.00  0.00     0.030 A 
ENDROOT
BRANCH   1   7
HETATM    7  N   UNL     1      38.643 -13.496   0.834  1.00  0.00    -0.309 N 
HETATM    8  C   UNL     1      38.205 -12.519   1.674  1.00  0.00     0.321 C 
HETATM    9  N   UNL     1      38.890 -12.313   2.822  1.00  0.00    -0.337 N 
HETATM   10  O   UNL     1      37.239 -11.831   1.347  1.00  0.00    -0.247 OA
HETATM   11  H   UNL     1      39.867 -12.568   2.828  1.00  0.00     0.164 HD
HETATM   12  H   UNL     1      38.185 -13.420  -0.066  1.00  0.00     0.170 HD
BRANCH   9  13
HETATM   13  C   UNL     1      38.548 -11.224   3.705  1.00  0.00     0.186 C 
BRANCH  13  14
HETATM   14  C   UNL     1      39.083 -11.503   5.066  1.00  0.00     0.083 A 
HETATM   15  C   UNL     1      39.578 -12.689   5.569  1.00  0.00     0.076 A 
HETATM   16  C   UNL     1      39.755 -14.048   5.029  1.00  0.00     0.079 C 
HETATM   17  O   UNL     1      39.963 -12.470   6.863  1.00  0.00    -0.307 OA
HETATM   18  C   UNL     1      39.671 -11.159   7.077  1.00  0.00     0.258 A 
HETATM   19  N   UNL     1      39.132 -10.533   6.055  1.00  0.00    -0.237 NA
ENDBRANCH  13  14
ENDBRANCH   9  13
ENDBRANCH   1   7
BRANCH   4  20
HETATM   20  C   UNL     1      42.692 -17.490   1.361  1.00  0.00     0.256 C 
HETATM   21  N   UNL     1      42.481 -18.392   2.388  1.00  0.00    -0.323 N 
HETATM   22  H   UNL     1      41.717 -18.200   3.022  1.00  0.00     0.169 HD
HETATM   23  O   UNL     1      43.672 -17.427   0.629  1.00  0.00    -0.267 OA
BRANCH  21  24
HETATM   24  C   UNL     1      43.256 -19.530   2.694  1.00  0.00     0.035 A 
HETATM   25  C   UNL     1      44.122 -19.611   3.786  1.00  0.00     0.029 A 
HETATM   26  C   UNL     1      44.884 -20.763   4.004  1.00  0.00     0.002 A 
HETATM   27  C   UNL     1      44.787 -21.845   3.133  1.00  0.00     0.000 A 
HETATM   28  C   UNL     1      43.927 -21.776   2.041  1.00  0.00     0.002 A 
HETATM   29  C   UNL     1      43.167 -20.623   1.822  1.00  0.00     0.029 A 
ENDBRANCH  21  24
ENDBRANCH   4  20
TORSDOF 5
ENDMDL
MODEL 8
REMARK VINA RESULT:      -7.3      4.372      7.938
REMARK  5 active torsions:
REMARK  status: ('A' for Active; 'I' for Inactive)
REMARK    1  A    between atoms: C_6  and  C_7 
REMARK    2  A    between atoms: C_7  and  N_8 
REMARK       I    between atoms: N_8  and  C_9 
REMARK       I    between atoms: C_9  and  N_10 
REMARK    3  A    between atoms: N_10  and  C_11 
REMARK    4  A    between atoms: C_14  and  C_15 
REMARK       I    between atoms: C_15  and  N_16 
REMARK    5  A    between atoms: N_16  and  C_17 
ROOT
HETATM    1  C   UNL     1      42.369 -15.324   5.312  1.00  0.00     0.036 A 
HETATM    2  C   UNL     1      41.172 -15.575   4.637  1.00  0.00     0.030 A 
HETATM    3  C   UNL     1      40.989 -15.123   3.325  1.00  0.00     0.019 A 
HETATM    4  C   UNL     1      41.989 -14.385   2.682  1.00  0.00     0.032 A 
HETATM    5  C   UNL     1      43.173 -14.096   3.367  1.00  0.00     0.019 A 
HETATM    6  C   UNL     1      43.351 -14.552   4.679  1.00  0.00     0.030 A 
ENDROOT
BRANCH   1   7
HETATM    7  N   UNL     1      42.663 -15.775   6.612  1.00  0.00    -0.309 N 
HETATM    8  C   UNL     1      43.105 -16.965   7.102  1.00  0.00     0.321 C 
HETATM    9  N   UNL     1      43.559 -17.887   6.221  1.00  0.00    -0.337 N 
HETATM   10  O   UNL     1      43.122 -17.148   8.318  1.00  0.00    -0.247 OA
HETATM   11  H   UNL     1      43.929 -17.546   5.346  1.00  0.00     0.164 HD
HETATM   12  H   UNL     1      42.545 -15.106   7.362  1.00  0.00     0.170 HD
BRANCH   9  13
HETATM   13  C   UNL     1      44.143 -19.125   6.678  1.00  0.00     0.186 C 
BRANCH  13  14
HETATM   14  C   UNL     1      44.349 -20.034   5.517  1.00  0.00     0.083 A 
HETATM   15  C   UNL     1      44.294 -19.735   4.171  1.00  0.00     0.076 A 
HETATM   16  C   UNL     1      44.018 -18.515   3.392  1.00  0.00     0.079 C 
HETATM   17  O   UNL     1      44.557 -20.881   3.473  1.00  0.00    -0.307 OA
HETATM   18  C   UNL     1      44.753 -21.818   4.439  1.00  0.00     0.258 A 
HETATM   19  N   UNL     1      44.627 -21.383   5.673  1.00  0.00    -0.237 NA
ENDBRANCH  13  14
ENDBRANCH   9  13
ENDBRANCH   1   7
BRANCH   4  20
HETATM   20  C   UNL     1      41.785 -13.984   1.260  1.00  0.00     0.256 C 
HETATM   21  N   UNL     1      40.985 -14.835   0.520  1.00  0.00    -0.323 N 
HETATM   22  H   UNL     1      40.752 -15.728   0.935  1.00  0.00     0.169 HD
HETATM   23  O   UNL     1      42.343 -12.969   0.861  1.00  0.00    -0.267 OA
BRANCH  21  24
HETATM   24  C   UNL     1      40.500 -14.625  -0.788  1.00  0.00     0.035 A 
HETATM   25  C   UNL     1      39.476 -13.731  -1.104  1.00  0.00     0.029 A 
HETATM   26  C   UNL     1      39.026 -13.603  -2.422  1.00  0.00     0.002 A 
HETATM   27  C   UNL     1      39.596 -14.369  -3.436  1.00  0.00     0.000 A 
HETATM   28  C   UNL     1      40.618 -15.264  -3.132  1.00  0.00     0.002 A 
HETATM   29  C   UNL     1      41.065 -15.393  -1.815  1.00  0.00     0.029 A 
ENDBRANCH  21  24
ENDBRANCH   4  20
TORSDOF 5
ENDMDL
MODEL 9
REMARK VINA RESULT:      -7.3      2.146      9.534
REMARK  5 active torsions:
REMARK  status: ('A' for Active; 'I' for Inactive)
REMARK    1  A    between atoms: C_6  and  C_7 
REMARK    2  A    between atoms: C_7  and  N_8 
REMARK       I    between atoms: N_8  and  C_9 
REMARK       I    between atoms: C_9  and  N_10 
REMARK    3  A    between atoms: N_10  and  C_11 
REMARK    4  A    between atoms: C_14  and  C_15 
REMARK       I    between atoms: C_15  and  N_16 
REMARK    5  A    between atoms: N_16  and  C_17 
ROOT
HETATM    1  C   UNL     1      42.404 -15.263   4.093  1.00  0.00     0.036 A 
HETATM    2  C   UNL     1      42.816 -15.988   5.213  1.00  0.00     0.030 A 
HETATM    3  C   UNL     1      43.347 -15.330   6.329  1.00  0.00     0.019 A 
HETATM    4  C   UNL     1      43.503 -13.940   6.325  1.00  0.00     0.032 A 
HETATM    5  C   UNL     1      43.129 -13.212   5.192  1.00  0.00     0.019 A 
HETATM    6  C   UNL     1      42.598 -13.876   4.080  1.00  0.00     0.030 A 
ENDROOT
BRANCH   1   7
HETATM    7  N   UNL     1      41.818 -15.829   2.945  1.00  0.00    -0.309 N 
HETATM    8  C   UNL     1      42.180 -16.858   2.132  1.00  0.00     0.321 C 
HETATM    9  N   UNL     1      43.179 -17.673   2.542  1.00  0.00    -0.337 N 
HETATM   10  O   UNL     1      41.566 -17.041   1.082  1.00  0.00    -0.247 OA
HETATM   11  H   UNL     1      43.327 -17.755   3.538  1.00  0.00     0.164 HD
HETATM   12  H   UNL     1      40.945 -15.423   2.634  1.00  0.00     0.170 HD
BRANCH   9  13
HETATM   13  C   UNL     1      43.539 -18.846   1.783  1.00  0.00     0.186 C 
BRANCH  13  14
HETATM   14  C   UNL     1      44.063 -19.891   2.704  1.00  0.00     0.083 A 
HETATM   15  C   UNL     1      44.271 -21.233   2.454  1.00  0.00     0.076 A 
HETATM   16  C   UNL     1      44.065 -22.112   1.290  1.00  0.00     0.079 C 
HETATM   17  O   UNL     1      44.773 -21.802   3.591  1.00  0.00    -0.307 OA
HETATM   18  C   UNL     1      44.836 -20.770   4.476  1.00  0.00     0.258 A 
HETATM   19  N   UNL     1      44.414 -19.614   4.016  1.00  0.00    -0.237 NA
ENDBRANCH  13  14
ENDBRANCH   9  13
ENDBRANCH   1   7
BRANCH   4  20
HETATM   20  C   UNL     1      44.004 -13.270   7.561  1.00  0.00     0.256 C 
HETATM   21  N   UNL     1      43.305 -12.137   7.938  1.00  0.00    -0.323 N 
HETATM   22  H   UNL     1      42.643 -11.760   7.272  1.00  0.00     0.169 HD
HETATM   23  O   UNL     1      44.981 -13.750   8.121  1.00  0.00    -0.267 OA
BRANCH  21  24
HETATM   24  C   UNL     1      43.456 -11.402   9.132  1.00  0.00     0.035 A 
HETATM   25  C   UNL     1      42.417 -10.708   9.755  1.00  0.00     0.029 A 
HETATM   26  C   UNL     1      42.653  -9.972  10.920  1.00  0.00     0.002 A 
HETATM   27  C   UNL     1      43.930  -9.924  11.474  1.00  0.00     0.000 A 
HETATM   28  C   UNL     1      44.973 -10.613  10.862  1.00  0.00     0.002 A 
HETATM   29  C   UNL     1      44.737 -11.346   9.695  1.00  0.00     0.029 A 
ENDBRANCH  21  24
ENDBRANCH   4  20
TORSDOF 5
ENDMDL
MODEL 10
REMARK VINA RESULT:      -7.2      4.435      8.197
REMARK  5 active torsions:
REMARK  status: ('A' for Active; 'I' for Inactive)
REMARK    1  A    between atoms: C_6  and  C_7 
REMARK    2  A    between atoms: C_7  and  N_8 
REMARK       I    between atoms: N_8  and  C_9 
REMARK       I    between atoms: C_9  and  N_10 
REMARK    3  A    between atoms: N_10  and  C_11 
REMARK    4  A    between atoms: C_14  and  C_15 
REMARK       I    between atoms: C_15  and  N_16 
REMARK    5  A    between atoms: N_16  and  C_17 
ROOT
HETATM    1  C   UNL     1      42.215 -15.032   5.270  1.00  0.00     0.036 A 
HETATM    2  C   UNL     1      41.029 -15.077   4.535  1.00  0.00     0.030 A 
HETATM    3  C   UNL     1      40.922 -14.399   3.315  1.00  0.00     0.019 A 
HETATM    4  C   UNL     1      41.992 -13.639   2.830  1.00  0.00     0.032 A 
HETATM    5  C   UNL     1      43.169 -13.557   3.580  1.00  0.00     0.019 A 
HETATM    6  C   UNL     1      43.269 -14.238   4.799  1.00  0.00     0.030 A 
ENDROOT
BRANCH   1   7
HETATM    7  N   UNL     1      42.433 -15.714   6.481  1.00  0.00    -0.309 N 
HETATM    8  C   UNL     1      42.906 -16.957   6.772  1.00  0.00     0.321 C 
HETATM    9  N   UNL     1      43.482 -17.668   5.775  1.00  0.00    -0.337 N 
HETATM   10  O   UNL     1      42.838 -17.373   7.927  1.00  0.00    -0.247 OA
HETATM   11  H   UNL     1      43.898 -17.146   5.017  1.00  0.00     0.164 HD
HETATM   12  H   UNL     1      42.217 -15.210   7.332  1.00  0.00     0.170 HD
BRANCH   9  13
HETATM   13  C   UNL     1      44.102 -18.945   6.038  1.00  0.00     0.186 C 
BRANCH  13  14
HETATM   14  C   UNL     1      44.292 -19.676   4.755  1.00  0.00     0.083 A 
HETATM   15  C   UNL     1      44.644 -20.997   4.561  1.00  0.00     0.076 A 
HETATM   16  C   UNL     1      44.963 -22.124   5.455  1.00  0.00     0.079 C 
HETATM   17  O   UNL     1      44.692 -21.228   3.215  1.00  0.00    -0.307 OA
HETATM   18  C   UNL     1      44.372 -20.026   2.662  1.00  0.00     0.258 A 
HETATM   19  N   UNL     1      44.140 -19.061   3.522  1.00  0.00    -0.237 NA
ENDBRANCH  13  14
ENDBRANCH   9  13
ENDBRANCH   1   7
BRANCH   4  20
HETATM   20  C   UNL     1      41.865 -12.992   1.492  1.00  0.00     0.256 C 
HETATM   21  N   UNL     1      41.798 -13.865   0.422  1.00  0.00    -0.323 N 
HETATM   22  H   UNL     1      42.012 -14.837   0.604  1.00  0.00     0.169 HD
HETATM   23  O   UNL     1      41.851 -11.768   1.442  1.00  0.00    -0.267 OA
BRANCH  21  24
HETATM   24  C   UNL     1      41.522 -13.544  -0.924  1.00  0.00     0.035 A 
HETATM   25  C   UNL     1      42.437 -12.927  -1.779  1.00  0.00     0.029 A 
HETATM   26  C   UNL     1      42.078 -12.608  -3.092  1.00  0.00     0.002 A 
HETATM   27  C   UNL     1      40.801 -12.903  -3.562  1.00  0.00     0.000 A 
HETATM   28  C   UNL     1      39.880 -13.519  -2.718  1.00  0.00     0.002 A 
HETATM   29  C   UNL     1      40.239 -13.835  -1.405  1.00  0.00     0.029 A 
ENDBRANCH  21  24
ENDBRANCH   4  20
TORSDOF 5
ENDMDL
