MODEL 1
REMARK VINA RESULT:      -9.2      0.000      0.000
REMARK  7 active torsions:
REMARK  status: ('A' for Active; 'I' for Inactive)
REMARK       I    between atoms: C_2  and  N_3 
REMARK    1  A    between atoms: N_3  and  C_4 
REMARK    2  A    between atoms: C_7  and  N_8 
REMARK       I    between atoms: N_8  and  C_9 
REMARK    3  A    between atoms: C_9  and  C_10 
REMARK       I    between atoms: C_10  and  N_11 
REMARK    4  A    between atoms: N_11  and  C_12 
REMARK    5  A    between atoms: C_12  and  C_13 
REMARK    6  A    between atoms: C_13  and  O_14 
REMARK    7  A    between atoms: C_13  and  C_15 
ROOT
HETATM    1  C   UNL     1      45.321 -13.023   7.770  1.00  0.00     0.309 C 
HETATM    2  N   UNL     1      44.357 -14.004   7.766  1.00  0.00    -0.350 N 
HETATM    3  O   UNL     1      46.300 -12.975   7.037  1.00  0.00    -0.262 OA
HETATM    4  H   UNL     1      43.619 -13.931   8.464  1.00  0.00     0.163 HD
ENDROOT
BRANCH   1   5
HETATM    5  C   UNL     1      45.106 -11.938   8.846  1.00  0.00     0.313 C 
HETATM    6  N   UNL     1      43.982 -12.183   9.604  1.00  0.00    -0.319 N 
HETATM    7  H   UNL     1      43.498 -13.046   9.371  1.00  0.00     0.169 HD
HETATM    8  O   UNL     1      45.902 -11.012   8.905  1.00  0.00    -0.262 OA
BRANCH   6   9
HETATM    9  C   UNL     1      43.415 -11.360  10.591  1.00  0.00     0.035 A 
HETATM   10  C   UNL     1      44.120 -10.864  11.686  1.00  0.00     0.032 A 
HETATM   11  C   UNL     1      43.499 -10.003  12.603  1.00  0.00     0.032 A 
HETATM   12  C   UNL     1      42.165  -9.632  12.443  1.00  0.00     0.034 A 
HETATM   13  C   UNL     1      41.453 -10.151  11.358  1.00  0.00     0.032 A 
HETATM   14  C   UNL     1      42.073 -11.003  10.437  1.00  0.00     0.032 A 
BRANCH  12  15
HETATM   15  N   UNL     1      41.479  -8.751  13.305  1.00  0.00    -0.328 N 
HETATM   16  C   UNL     1      41.161  -8.954  14.635  1.00  0.00     0.218 C 
HETATM   17  C   UNL     1      40.452  -7.768  15.243  1.00  0.00     0.117 C 
HETATM   18  O   UNL     1      41.427  -9.936  15.317  1.00  0.00    -0.274 OA
HETATM   19  H   UNL     1      41.220  -7.857  12.908  1.00  0.00     0.169 HD
ENDBRANCH  12  15
ENDBRANCH   6   9
ENDBRANCH   1   5
BRANCH   2  20
HETATM   20  C   UNL     1      44.460 -15.191   6.931  1.00  0.00     0.159 C 
BRANCH  20  21
HETATM   21  C   UNL     1      43.086 -15.643   6.395  1.00  0.00     0.171 C 
BRANCH  21  22
HETATM   22  O   UNL     1      42.222 -14.498   6.323  1.00  0.00    -0.389 OA
HETATM   23  H   UNL     1      41.319 -14.851   6.259  1.00  0.00     0.210 HD
ENDBRANCH  21  22
BRANCH  21  24
HETATM   24  C   UNL     1      43.205 -16.308   5.057  1.00  0.00     0.000 A 
HETATM   25  C   UNL     1      43.705 -17.627   4.805  1.00  0.00     0.001 A 
HETATM   26  C   UNL     1      43.631 -17.856   3.426  1.00  0.00     0.044 A 
HETATM   27  C   UNL     1      44.212 -18.650   5.636  1.00  0.00     0.014 A 
HETATM   28  C   UNL     1      44.038 -19.075   2.855  1.00  0.00     0.030 A 
HETATM   29  N   UNL     1      43.113 -16.711   2.861  1.00  0.00    -0.360 N 
HETATM   30  C   UNL     1      44.531 -20.071   3.703  1.00  0.00     0.002 A 
HETATM   31  C   UNL     1      44.619 -19.864   5.074  1.00  0.00     0.001 A 
HETATM   32  C   UNL     1      42.848 -16.486   1.457  1.00  0.00     0.155 C 
HETATM   33  C   UNL     1      42.857 -15.777   3.829  1.00  0.00     0.101 A 
ENDBRANCH  21  24
ENDBRANCH  20  21
ENDBRANCH   2  20
TORSDOF 7
ENDMDL
MODEL 2
REMARK VINA RESULT:      -9.1      1.952     10.564
REMARK  7 active torsions:
REMARK  status: ('A' for Active; 'I' for Inactive)
REMARK       I    between atoms: C_2  and  N_3 
REMARK    1  A    between atoms: N_3  and  C_4 
REMARK    2  A    between atoms: C_7  and  N_8 
REMARK       I    between atoms: N_8  and  C_9 
REMARK    3  A    between atoms: C_9  and  C_10 
REMARK       I    between atoms: C_10  and  N_11 
REMARK    4  A    between atoms: N_11  and  C_12 
REMARK    5  A    between atoms: C_12  and  C_13 
REMARK    6  A    between atoms: C_13  and  O_14 
REMARK    7  A    between atoms: C_13  and  C_15 
ROOT
HETATM    1  C   UNL     1      45.244 -12.782   8.481  1.00  0.00     0.309 C 
HETATM    2  N   UNL     1      44.166 -12.879   9.329  1.00  0.00    -0.350 N 
HETATM    3  O   UNL     1      46.211 -12.047   8.630  1.00  0.00    -0.262 OA
HETATM    4  H   UNL     1      43.415 -13.509   9.052  1.00  0.00     0.163 HD
ENDROOT
BRANCH   1   5
HETATM    5  C   UNL     1      45.141 -13.681   7.231  1.00  0.00     0.313 C 
HETATM    6  N   UNL     1      44.159 -14.637   7.366  1.00  0.00    -0.319 N 
HETATM    7  H   UNL     1      43.633 -14.579   8.235  1.00  0.00     0.169 HD
HETATM    8  O   UNL     1      45.911 -13.476   6.303  1.00  0.00    -0.262 OA
BRANCH   6   9
HETATM    9  C   UNL     1      43.857 -15.689   6.487  1.00  0.00     0.035 A 
HETATM   10  C   UNL     1      42.894 -15.610   5.483  1.00  0.00     0.032 A 
HETATM   11  C   UNL     1      42.686 -16.686   4.607  1.00  0.00     0.032 A 
HETATM   12  C   UNL     1      43.431 -17.857   4.727  1.00  0.00     0.034 A 
HETATM   13  C   UNL     1      44.379 -17.945   5.751  1.00  0.00     0.032 A 
HETATM   14  C   UNL     1      44.595 -16.869   6.620  1.00  0.00     0.032 A 
BRANCH  12  15
HETATM   15  N   UNL     1      43.301 -18.971   3.871  1.00  0.00    -0.328 N 
HETATM   16  C   UNL     1      43.732 -19.080   2.561  1.00  0.00     0.218 C 
HETATM   17  C   UNL     1      43.448 -20.441   1.975  1.00  0.00     0.117 C 
HETATM   18  O   UNL     1      44.319 -18.229   1.903  1.00  0.00    -0.274 OA
HETATM   19  H   UNL     1      42.870 -19.792   4.276  1.00  0.00     0.169 HD
ENDBRANCH  12  15
ENDBRANCH   6   9
ENDBRANCH   1   5
BRANCH   2  20
HETATM   20  C   UNL     1      44.002 -12.006  10.482  1.00  0.00     0.159 C 
BRANCH  20  21
HETATM   21  C   UNL     1      43.532 -10.594  10.075  1.00  0.00     0.171 C 
BRANCH  21  22
HETATM   22  O   UNL     1      43.232 -10.595   8.671  1.00  0.00    -0.389 OA
HETATM   23  H   UNL     1      43.406  -9.691   8.361  1.00  0.00     0.210 HD
ENDBRANCH  21  22
BRANCH  21  24
HETATM   24  C   UNL     1      42.344 -10.154  10.876  1.00  0.00     0.000 A 
HETATM   25  C   UNL     1      42.347  -9.756  12.253  1.00  0.00     0.001 A 
HETATM   26  C   UNL     1      41.036  -9.412  12.600  1.00  0.00     0.044 A 
HETATM   27  C   UNL     1      43.358  -9.655  13.233  1.00  0.00     0.014 A 
HETATM   28  C   UNL     1      40.706  -8.963  13.892  1.00  0.00     0.030 A 
HETATM   29  N   UNL     1      40.263  -9.604  11.476  1.00  0.00    -0.360 N 
HETATM   30  C   UNL     1      41.728  -8.868  14.841  1.00  0.00     0.002 A 
HETATM   31  C   UNL     1      43.037  -9.210  14.519  1.00  0.00     0.001 A 
HETATM   32  C   UNL     1      38.841  -9.370  11.356  1.00  0.00     0.155 C 
HETATM   33  C   UNL     1      41.037 -10.051  10.439  1.00  0.00     0.101 A 
ENDBRANCH  21  24
ENDBRANCH  20  21
ENDBRANCH   2  20
TORSDOF 7
ENDMDL
MODEL 3
REMARK VINA RESULT:      -9.0      1.082      2.209
REMARK  7 active torsions:
REMARK  status: ('A' for Active; 'I' for Inactive)
REMARK       I    between atoms: C_2  and  N_3 
REMARK    1  A    between atoms: N_3  and  C_4 
REMARK    2  A    between atoms: C_7  and  N_8 
REMARK       I    between atoms: N_8  and  C_9 
REMARK    3  A    between atoms: C_9  and  C_10 
REMARK       I    between atoms: C_10  and  N_11 
REMARK    4  A    between atoms: N_11  and  C_12 
REMARK    5  A    between atoms: C_12  and  C_13 
REMARK    6  A    between atoms: C_13  and  O_14 
REMARK    7  A    between atoms: C_13  and  C_15 
ROOT
HETATM    1  C   UNL     1      45.383 -12.972   7.893  1.00  0.00     0.309 C 
HETATM    2  N   UNL     1      44.370 -13.895   7.779  1.00  0.00    -0.350 N 
HETATM    3  O   UNL     1      46.450 -12.998   7.295  1.00  0.00    -0.262 OA
HETATM    4  H   UNL     1      43.553 -13.762   8.372  1.00  0.00     0.163 HD
ENDROOT
BRANCH   1   5
HETATM    5  C   UNL     1      45.095 -11.849   8.913  1.00  0.00     0.313 C 
HETATM    6  N   UNL     1      43.906 -12.053   9.578  1.00  0.00    -0.319 N 
HETATM    7  H   UNL     1      43.429 -12.916   9.331  1.00  0.00     0.169 HD
HETATM    8  O   UNL     1      45.899 -10.934   9.012  1.00  0.00    -0.262 OA
BRANCH   6   9
HETATM    9  C   UNL     1      43.271 -11.191  10.487  1.00  0.00     0.035 A 
HETATM   10  C   UNL     1      41.928 -10.830  10.405  1.00  0.00     0.032 A 
HETATM   11  C   UNL     1      41.349 -10.007  11.382  1.00  0.00     0.032 A 
HETATM   12  C   UNL     1      42.106  -9.525  12.449  1.00  0.00     0.034 A 
HETATM   13  C   UNL     1      43.461  -9.867  12.515  1.00  0.00     0.032 A 
HETATM   14  C   UNL     1      44.037 -10.696  11.546  1.00  0.00     0.032 A 
BRANCH  12  15
HETATM   15  N   UNL     1      41.593  -8.716  13.483  1.00  0.00    -0.328 N 
HETATM   16  C   UNL     1      41.461  -9.044  14.820  1.00  0.00     0.218 C 
HETATM   17  C   UNL     1      40.903  -7.905  15.638  1.00  0.00     0.117 C 
HETATM   18  O   UNL     1      41.776 -10.099  15.357  1.00  0.00    -0.274 OA
HETATM   19  H   UNL     1      41.322  -7.778  13.217  1.00  0.00     0.169 HD
ENDBRANCH  12  15
ENDBRANCH   6   9
ENDBRANCH   1   5
BRANCH   2  20
HETATM   20  C   UNL     1      44.509 -15.107   6.985  1.00  0.00     0.159 C 
BRANCH  20  21
HETATM   21  C   UNL     1      43.324 -16.072   7.191  1.00  0.00     0.171 C 
BRANCH  21  22
HETATM   22  O   UNL     1      42.122 -15.428   6.743  1.00  0.00    -0.389 OA
HETATM   23  H   UNL     1      41.602 -16.116   6.297  1.00  0.00     0.210 HD
ENDBRANCH  21  22
BRANCH  21  24
HETATM   24  C   UNL     1      43.536 -17.370   6.472  1.00  0.00     0.000 A 
HETATM   25  C   UNL     1      43.588 -17.557   5.052  1.00  0.00     0.001 A 
HETATM   26  C   UNL     1      43.813 -18.916   4.808  1.00  0.00     0.044 A 
HETATM   27  C   UNL     1      43.466 -16.681   3.952  1.00  0.00     0.014 A 
HETATM   28  C   UNL     1      43.930 -19.424   3.502  1.00  0.00     0.030 A 
HETATM   29  N   UNL     1      43.886 -19.534   6.037  1.00  0.00    -0.360 N 
HETATM   30  C   UNL     1      43.809 -18.533   2.432  1.00  0.00     0.002 A 
HETATM   31  C   UNL     1      43.580 -17.180   2.651  1.00  0.00     0.001 A 
HETATM   32  C   UNL     1      44.117 -20.940   6.284  1.00  0.00     0.155 C 
HETATM   33  C   UNL     1      43.718 -18.617   7.040  1.00  0.00     0.101 A 
ENDBRANCH  21  24
ENDBRANCH  20  21
ENDBRANCH   2  20
TORSDOF 7
ENDMDL
MODEL 4
REMARK VINA RESULT:      -8.8      7.805     12.117
REMARK  7 active torsions:
REMARK  status: ('A' for Active; 'I' for Inactive)
REMARK       I    between atoms: C_2  and  N_3 
REMARK    1  A    between atoms: N_3  and  C_4 
REMARK    2  A    between atoms: C_7  and  N_8 
REMARK       I    between atoms: N_8  and  C_9 
REMARK    3  A    between atoms: C_9  and  C_10 
REMARK       I    between atoms: C_10  and  N_11 
REMARK    4  A    between atoms: N_11  and  C_12 
REMARK    5  A    between atoms: C_12  and  C_13 
REMARK    6  A    between atoms: C_13  and  O_14 
REMARK    7  A    between atoms: C_13  and  C_15 
ROOT
HETATM    1  C   UNL     1      40.997 -15.266   0.403  1.00  0.00     0.309 C 
HETATM    2  N   UNL     1      41.367 -16.576   0.203  1.00  0.00    -0.350 N 
HETATM    3  O   UNL     1      41.004 -14.673   1.474  1.00  0.00    -0.262 OA
HETATM    4  H   UNL     1      41.271 -16.944  -0.741  1.00  0.00     0.163 HD
ENDROOT
BRANCH   1   5
HETATM    5  C   UNL     1      40.504 -14.552  -0.873  1.00  0.00     0.313 C 
HETATM    6  N   UNL     1      39.129 -14.490  -0.928  1.00  0.00    -0.319 N 
HETATM    7  H   UNL     1      38.658 -14.880  -0.114  1.00  0.00     0.169 HD
HETATM    8  O   UNL     1      41.337 -14.149  -1.672  1.00  0.00    -0.262 OA
BRANCH   6   9
HETATM    9  C   UNL     1      38.331 -14.019  -1.983  1.00  0.00     0.035 A 
HETATM   10  C   UNL     1      37.898 -12.699  -2.098  1.00  0.00     0.032 A 
HETATM   11  C   UNL     1      37.147 -12.290  -3.210  1.00  0.00     0.032 A 
HETATM   12  C   UNL     1      36.813 -13.193  -4.217  1.00  0.00     0.034 A 
HETATM   13  C   UNL     1      37.227 -14.523  -4.087  1.00  0.00     0.032 A 
HETATM   14  C   UNL     1      37.983 -14.931  -2.983  1.00  0.00     0.032 A 
BRANCH  12  15
HETATM   15  N   UNL     1      36.086 -12.854  -5.378  1.00  0.00    -0.328 N 
HETATM   16  C   UNL     1      34.725 -12.982  -5.584  1.00  0.00     0.218 C 
HETATM   17  C   UNL     1      34.300 -12.478  -6.942  1.00  0.00     0.117 C 
HETATM   18  O   UNL     1      33.893 -13.407  -4.791  1.00  0.00    -0.274 OA
HETATM   19  H   UNL     1      36.622 -12.440  -6.129  1.00  0.00     0.169 HD
ENDBRANCH  12  15
ENDBRANCH   6   9
ENDBRANCH   1   5
BRANCH   2  20
HETATM   20  C   UNL     1      41.716 -17.461   1.304  1.00  0.00     0.159 C 
BRANCH  20  21
HETATM   21  C   UNL     1      43.174 -17.957   1.207  1.00  0.00     0.171 C 
BRANCH  21  22
HETATM   22  O   UNL     1      44.003 -16.867   0.776  1.00  0.00    -0.389 OA
HETATM   23  H   UNL     1      43.854 -16.781  -0.180  1.00  0.00     0.210 HD
ENDBRANCH  21  22
BRANCH  21  24
HETATM   24  C   UNL     1      43.657 -18.513   2.512  1.00  0.00     0.000 A 
HETATM   25  C   UNL     1      43.975 -19.884   2.786  1.00  0.00     0.001 A 
HETATM   26  C   UNL     1      44.397 -19.965   4.118  1.00  0.00     0.044 A 
HETATM   27  C   UNL     1      43.942 -21.063   2.011  1.00  0.00     0.014 A 
HETATM   28  C   UNL     1      44.796 -21.185   4.694  1.00  0.00     0.030 A 
HETATM   29  N   UNL     1      44.329 -18.691   4.636  1.00  0.00    -0.360 N 
HETATM   30  C   UNL     1      44.758 -22.335   3.902  1.00  0.00     0.002 A 
HETATM   31  C   UNL     1      44.336 -22.279   2.578  1.00  0.00     0.001 A 
HETATM   32  C   UNL     1      44.678 -18.285   5.980  1.00  0.00     0.155 C 
HETATM   33  C   UNL     1      43.884 -17.814   3.682  1.00  0.00     0.101 A 
ENDBRANCH  21  24
ENDBRANCH  20  21
ENDBRANCH   2  20
TORSDOF 7
ENDMDL
MODEL 5
REMARK VINA RESULT:      -8.6      3.076     10.299
REMARK  7 active torsions:
REMARK  status: ('A' for Active; 'I' for Inactive)
REMARK       I    between atoms: C_2  and  N_3 
REMARK    1  A    between atoms: N_3  and  C_4 
REMARK    2  A    between atoms: C_7  and  N_8 
REMARK       I    between atoms: N_8  and  C_9 
REMARK    3  A    between atoms: C_9  and  C_10 
REMARK       I    between atoms: C_10  and  N_11 
REMARK    4  A    between atoms: N_11  and  C_12 
REMARK    5  A    between atoms: C_12  and  C_13 
REMARK    6  A    between atoms: C_13  and  O_14 
REMARK    7  A    between atoms: C_13  and  C_15 
ROOT
HETATM    1  C   UNL     1      39.286 -12.550   6.295  1.00  0.00     0.309 C 
HETATM    2  N   UNL     1      39.579 -12.656   7.634  1.00  0.00    -0.350 N 
HETATM    3  O   UNL     1      38.615 -11.670   5.773  1.00  0.00    -0.262 OA
HETATM    4  H   UNL     1      40.118 -13.468   7.928  1.00  0.00     0.163 HD
ENDROOT
BRANCH   1   5
HETATM    5  C   UNL     1      39.856 -13.699   5.436  1.00  0.00     0.313 C 
HETATM    6  N   UNL     1      40.510 -14.637   6.205  1.00  0.00    -0.319 N 
HETATM    7  H   UNL     1      40.481 -14.455   7.205  1.00  0.00     0.169 HD
HETATM    8  O   UNL     1      39.694 -13.656   4.226  1.00  0.00    -0.262 OA
BRANCH   6   9
HETATM    9  C   UNL     1      41.242 -15.751   5.763  1.00  0.00     0.035 A 
HETATM   10  C   UNL     1      40.741 -17.051   5.741  1.00  0.00     0.032 A 
HETATM   11  C   UNL     1      41.514 -18.106   5.234  1.00  0.00     0.032 A 
HETATM   12  C   UNL     1      42.801 -17.878   4.749  1.00  0.00     0.034 A 
HETATM   13  C   UNL     1      43.312 -16.577   4.795  1.00  0.00     0.032 A 
HETATM   14  C   UNL     1      42.539 -15.522   5.292  1.00  0.00     0.032 A 
BRANCH  12  15
HETATM   15  N   UNL     1      43.630 -18.878   4.200  1.00  0.00    -0.328 N 
HETATM   16  C   UNL     1      43.552 -19.434   2.936  1.00  0.00     0.218 C 
HETATM   17  C   UNL     1      44.636 -20.455   2.691  1.00  0.00     0.117 C 
HETATM   18  O   UNL     1      42.752 -19.152   2.052  1.00  0.00    -0.274 OA
HETATM   19  H   UNL     1      44.386 -19.199   4.791  1.00  0.00     0.169 HD
ENDBRANCH  12  15
ENDBRANCH   6   9
ENDBRANCH   1   5
BRANCH   2  20
HETATM   20  C   UNL     1      39.009 -11.757   8.627  1.00  0.00     0.159 C 
BRANCH  20  21
HETATM   21  C   UNL     1      39.873 -10.497   8.831  1.00  0.00     0.171 C 
BRANCH  21  22
HETATM   22  O   UNL     1      39.012  -9.348   8.862  1.00  0.00    -0.389 OA
HETATM   23  H   UNL     1      39.428  -8.688   8.283  1.00  0.00     0.210 HD
ENDBRANCH  21  22
BRANCH  21  24
HETATM   24  C   UNL     1      40.695 -10.584  10.081  1.00  0.00     0.000 A 
HETATM   25  C   UNL     1      42.115 -10.756  10.155  1.00  0.00     0.001 A 
HETATM   26  C   UNL     1      42.474 -10.773  11.508  1.00  0.00     0.044 A 
HETATM   27  C   UNL     1      43.129 -10.896   9.183  1.00  0.00     0.014 A 
HETATM   28  C   UNL     1      43.811 -10.916  11.917  1.00  0.00     0.030 A 
HETATM   29  N   UNL     1      41.309 -10.626  12.229  1.00  0.00    -0.360 N 
HETATM   30  C   UNL     1      44.795 -11.047  10.933  1.00  0.00     0.002 A 
HETATM   31  C   UNL     1      44.461 -11.039   9.583  1.00  0.00     0.001 A 
HETATM   32  C   UNL     1      41.187 -10.577  13.670  1.00  0.00     0.155 C 
HETATM   33  C   UNL     1      40.238 -10.514  11.384  1.00  0.00     0.101 A 
ENDBRANCH  21  24
ENDBRANCH  20  21
ENDBRANCH   2  20
TORSDOF 7
ENDMDL
MODEL 6
REMARK VINA RESULT:      -8.4      2.659     10.633
REMARK  7 active torsions:
REMARK  status: ('A' for Active; 'I' for Inactive)
REMARK       I    between atoms: C_2  and  N_3 
REMARK    1  A    between atoms: N_3  and  C_4 
REMARK    2  A    between atoms: C_7  and  N_8 
REMARK       I    between atoms: N_8  and  C_9 
REMARK    3  A    between atoms: C_9  and  C_10 
REMARK       I    between atoms: C_10  and  N_11 
REMARK    4  A    between atoms: N_11  and  C_12 
REMARK    5  A    between atoms: C_12  and  C_13 
REMARK    6  A    between atoms: C_13  and  O_14 
REMARK    7  A    between atoms: C_13  and  C_15 
ROOT
HETATM    1  C   UNL     1      41.395 -12.697   5.834  1.00  0.00     0.309 C 
HETATM    2  N   UNL     1      40.643 -12.349   6.932  1.00  0.00    -0.350 N 
HETATM    3  O   UNL     1      42.058 -11.933   5.145  1.00  0.00    -0.262 OA
HETATM    4  H   UNL     1      40.111 -13.090   7.382  1.00  0.00     0.163 HD
ENDROOT
BRANCH   1   5
HETATM    5  C   UNL     1      41.319 -14.196   5.473  1.00  0.00     0.313 C 
HETATM    6  N   UNL     1      42.502 -14.654   4.936  1.00  0.00    -0.319 N 
HETATM    7  H   UNL     1      43.244 -13.960   4.900  1.00  0.00     0.169 HD
HETATM    8  O   UNL     1      40.269 -14.789   5.673  1.00  0.00    -0.262 OA
BRANCH   6   9
HETATM    9  C   UNL     1      42.765 -15.922   4.394  1.00  0.00     0.035 A 
HETATM   10  C   UNL     1      42.919 -17.077   5.159  1.00  0.00     0.032 A 
HETATM   11  C   UNL     1      43.126 -18.320   4.541  1.00  0.00     0.032 A 
HETATM   12  C   UNL     1      43.190 -18.425   3.153  1.00  0.00     0.034 A 
HETATM   13  C   UNL     1      43.061 -17.261   2.388  1.00  0.00     0.032 A 
HETATM   14  C   UNL     1      42.845 -16.022   3.002  1.00  0.00     0.032 A 
BRANCH  12  15
HETATM   15  N   UNL     1      43.368 -19.639   2.457  1.00  0.00    -0.328 N 
HETATM   16  C   UNL     1      44.268 -20.648   2.745  1.00  0.00     0.218 C 
HETATM   17  C   UNL     1      44.143 -21.816   1.797  1.00  0.00     0.117 C 
HETATM   18  O   UNL     1      45.074 -20.679   3.667  1.00  0.00    -0.274 OA
HETATM   19  H   UNL     1      42.741 -19.798   1.679  1.00  0.00     0.169 HD
ENDBRANCH  12  15
ENDBRANCH   6   9
ENDBRANCH   1   5
BRANCH   2  20
HETATM   20  C   UNL     1      40.462 -10.964   7.342  1.00  0.00     0.159 C 
BRANCH  20  21
HETATM   21  C   UNL     1      40.207 -10.838   8.857  1.00  0.00     0.171 C 
BRANCH  21  22
HETATM   22  O   UNL     1      39.415 -11.958   9.285  1.00  0.00    -0.389 OA
HETATM   23  H   UNL     1      38.640 -11.580   9.733  1.00  0.00     0.210 HD
ENDBRANCH  21  22
BRANCH  21  24
HETATM   24  C   UNL     1      41.489 -10.763   9.631  1.00  0.00     0.000 A 
HETATM   25  C   UNL     1      41.618 -10.675  11.055  1.00  0.00     0.001 A 
HETATM   26  C   UNL     1      42.984 -10.639  11.359  1.00  0.00     0.044 A 
HETATM   27  C   UNL     1      40.686 -10.628  12.115  1.00  0.00     0.014 A 
HETATM   28  C   UNL     1      43.446 -10.565  12.685  1.00  0.00     0.030 A 
HETATM   29  N   UNL     1      43.659 -10.693  10.159  1.00  0.00    -0.360 N 
HETATM   30  C   UNL     1      42.501 -10.524  13.714  1.00  0.00     0.002 A 
HETATM   31  C   UNL     1      41.139 -10.554  13.436  1.00  0.00     0.001 A 
HETATM   32  C   UNL     1      45.093 -10.690   9.975  1.00  0.00     0.155 C 
HETATM   33  C   UNL     1      42.772 -10.765   9.118  1.00  0.00     0.101 A 
ENDBRANCH  21  24
ENDBRANCH  20  21
ENDBRANCH   2  20
TORSDOF 7
ENDMDL
MODEL 7
REMARK VINA RESULT:      -8.4      2.867      3.251
REMARK  7 active torsions:
REMARK  status: ('A' for Active; 'I' for Inactive)
REMARK       I    between atoms: C_2  and  N_3 
REMARK    1  A    between atoms: N_3  and  C_4 
REMARK    2  A    between atoms: C_7  and  N_8 
REMARK       I    between atoms: N_8  and  C_9 
REMARK    3  A    between atoms: C_9  and  C_10 
REMARK       I    between atoms: C_10  and  N_11 
REMARK    4  A    between atoms: N_11  and  C_12 
REMARK    5  A    between atoms: C_12  and  C_13 
REMARK    6  A    between atoms: C_13  and  O_14 
REMARK    7  A    between atoms: C_13  and  C_15 
ROOT
HETATM    1  C   UNL     1      39.543 -12.064   6.299  1.00  0.00     0.309 C 
HETATM    2  N   UNL     1      40.613 -12.927   6.268  1.00  0.00    -0.350 N 
HETATM    3  O   UNL     1      38.629 -12.023   5.486  1.00  0.00    -0.262 OA
HETATM    4  H   UNL     1      41.318 -12.816   6.993  1.00  0.00     0.163 HD
ENDROOT
BRANCH   1   5
HETATM    5  C   UNL     1      39.583 -11.058   7.469  1.00  0.00     0.313 C 
HETATM    6  N   UNL     1      40.558 -11.379   8.387  1.00  0.00    -0.319 N 
HETATM    7  H   UNL     1      41.120 -12.189   8.138  1.00  0.00     0.169 HD
HETATM    8  O   UNL     1      38.779 -10.137   7.472  1.00  0.00    -0.262 OA
BRANCH   6   9
HETATM    9  C   UNL     1      40.810 -10.762   9.624  1.00  0.00     0.035 A 
HETATM   10  C   UNL     1      41.731  -9.732   9.804  1.00  0.00     0.032 A 
HETATM   11  C   UNL     1      41.889  -9.127  11.060  1.00  0.00     0.032 A 
HETATM   12  C   UNL     1      41.136  -9.550  12.154  1.00  0.00     0.034 A 
HETATM   13  C   UNL     1      40.231 -10.602  11.978  1.00  0.00     0.032 A 
HETATM   14  C   UNL     1      40.066 -11.199  10.723  1.00  0.00     0.032 A 
BRANCH  12  15
HETATM   15  N   UNL     1      41.218  -8.977  13.441  1.00  0.00    -0.328 N 
HETATM   16  C   UNL     1      41.880  -9.481  14.545  1.00  0.00     0.218 C 
HETATM   17  C   UNL     1      41.776  -8.568  15.742  1.00  0.00     0.117 C 
HETATM   18  O   UNL     1      42.530 -10.517  14.608  1.00  0.00    -0.274 OA
HETATM   19  H   UNL     1      40.765  -8.079  13.554  1.00  0.00     0.169 HD
ENDBRANCH  12  15
ENDBRANCH   6   9
ENDBRANCH   1   5
BRANCH   2  20
HETATM   20  C   UNL     1      40.836 -13.848   5.163  1.00  0.00     0.159 C 
BRANCH  20  21
HETATM   21  C   UNL     1      41.054 -15.295   5.651  1.00  0.00     0.171 C 
BRANCH  21  22
HETATM   22  O   UNL     1      39.856 -15.746   6.303  1.00  0.00    -0.389 OA
HETATM   23  H   UNL     1      39.728 -16.665   6.017  1.00  0.00     0.210 HD
ENDBRANCH  21  22
BRANCH  21  24
HETATM   24  C   UNL     1      41.427 -16.210   4.524  1.00  0.00     0.000 A 
HETATM   25  C   UNL     1      42.409 -17.252   4.565  1.00  0.00     0.001 A 
HETATM   26  C   UNL     1      42.431 -17.867   3.308  1.00  0.00     0.044 A 
HETATM   27  C   UNL     1      43.279 -17.729   5.569  1.00  0.00     0.014 A 
HETATM   28  C   UNL     1      43.288 -18.946   3.027  1.00  0.00     0.030 A 
HETATM   29  N   UNL     1      41.502 -17.213   2.529  1.00  0.00    -0.360 N 
HETATM   30  C   UNL     1      44.135 -19.400   4.041  1.00  0.00     0.002 A 
HETATM   31  C   UNL     1      44.134 -18.801   5.296  1.00  0.00     0.001 A 
HETATM   32  C   UNL     1      41.169 -17.507   1.152  1.00  0.00     0.155 C 
HETATM   33  C   UNL     1      40.897 -16.216   3.248  1.00  0.00     0.101 A 
ENDBRANCH  21  24
ENDBRANCH  20  21
ENDBRANCH   2  20
TORSDOF 7
ENDMDL
MODEL 8
REMARK VINA RESULT:      -8.3      2.957     10.876
REMARK  7 active torsions:
REMARK  status: ('A' for Active; 'I' for Inactive)
REMARK       I    between atoms: C_2  and  N_3 
REMARK    1  A    between atoms: N_3  and  C_4 
REMARK    2  A    between atoms: C_7  and  N_8 
REMARK       I    between atoms: N_8  and  C_9 
REMARK    3  A    between atoms: C_9  and  C_10 
REMARK       I    between atoms: C_10  and  N_11 
REMARK    4  A    between atoms: N_11  and  C_12 
REMARK    5  A    between atoms: C_12  and  C_13 
REMARK    6  A    between atoms: C_13  and  O_14 
REMARK    7  A    between atoms: C_13  and  C_15 
ROOT
HETATM    1  C   UNL     1      41.101 -12.635   5.411  1.00  0.00     0.309 C 
HETATM    2  N   UNL     1      40.358 -12.529   6.564  1.00  0.00    -0.350 N 
HETATM    3  O   UNL     1      41.768 -11.745   4.902  1.00  0.00    -0.262 OA
HETATM    4  H   UNL     1      39.820 -13.347   6.845  1.00  0.00     0.163 HD
ENDROOT
BRANCH   1   5
HETATM    5  C   UNL     1      41.009 -14.018   4.732  1.00  0.00     0.313 C 
HETATM    6  N   UNL     1      42.240 -14.628   4.639  1.00  0.00    -0.319 N 
HETATM    7  H   UNL     1      43.002 -14.102   5.062  1.00  0.00     0.169 HD
HETATM    8  O   UNL     1      39.914 -14.406   4.350  1.00  0.00    -0.262 OA
BRANCH   6   9
HETATM    9  C   UNL     1      42.557 -15.830   3.988  1.00  0.00     0.035 A 
HETATM   10  C   UNL     1      43.301 -15.903   2.811  1.00  0.00     0.032 A 
HETATM   11  C   UNL     1      43.624 -17.146   2.247  1.00  0.00     0.032 A 
HETATM   12  C   UNL     1      43.203 -18.332   2.845  1.00  0.00     0.034 A 
HETATM   13  C   UNL     1      42.435 -18.256   4.012  1.00  0.00     0.032 A 
HETATM   14  C   UNL     1      42.119 -17.018   4.581  1.00  0.00     0.032 A 
BRANCH  12  15
HETATM   15  N   UNL     1      43.509 -19.619   2.355  1.00  0.00    -0.328 N 
HETATM   16  C   UNL     1      44.419 -20.522   2.874  1.00  0.00     0.218 C 
HETATM   17  C   UNL     1      44.448 -21.817   2.100  1.00  0.00     0.117 C 
HETATM   18  O   UNL     1      45.124 -20.374   3.866  1.00  0.00    -0.274 OA
HETATM   19  H   UNL     1      42.976 -19.924   1.551  1.00  0.00     0.169 HD
ENDBRANCH  12  15
ENDBRANCH   6   9
ENDBRANCH   1   5
BRANCH   2  20
HETATM   20  C   UNL     1      40.193 -11.266   7.268  1.00  0.00     0.159 C 
BRANCH  20  21
HETATM   21  C   UNL     1      41.454 -10.882   8.069  1.00  0.00     0.171 C 
BRANCH  21  22
HETATM   22  O   UNL     1      42.123  -9.809   7.388  1.00  0.00    -0.389 OA
HETATM   23  H   UNL     1      42.595 -10.219   6.646  1.00  0.00     0.210 HD
ENDBRANCH  21  22
BRANCH  21  24
HETATM   24  C   UNL     1      41.118 -10.496   9.478  1.00  0.00     0.000 A 
HETATM   25  C   UNL     1      42.044 -10.344  10.561  1.00  0.00     0.001 A 
HETATM   26  C   UNL     1      41.317  -9.964  11.695  1.00  0.00     0.044 A 
HETATM   27  C   UNL     1      43.444 -10.494  10.672  1.00  0.00     0.014 A 
HETATM   28  C   UNL     1      41.944  -9.721  12.930  1.00  0.00     0.030 A 
HETATM   29  N   UNL     1      39.995  -9.897  11.314  1.00  0.00    -0.360 N 
HETATM   30  C   UNL     1      43.331  -9.873  13.009  1.00  0.00     0.002 A 
HETATM   31  C   UNL     1      44.074 -10.255  11.897  1.00  0.00     0.001 A 
HETATM   32  C   UNL     1      38.873  -9.534  12.152  1.00  0.00     0.155 C 
HETATM   33  C   UNL     1      39.865 -10.217   9.989  1.00  0.00     0.101 A 
ENDBRANCH  21  24
ENDBRANCH  20  21
ENDBRANCH   2  20
TORSDOF 7
ENDMDL
MODEL 9
REMARK VINA RESULT:      -8.1      2.368      3.573
REMARK  7 active torsions:
REMARK  status: ('A' for Active; 'I' for Inactive)
REMARK       I    between atoms: C_2  and  N_3 
REMARK    1  A    between atoms: N_3  and  C_4 
REMARK    2  A    between atoms: C_7  and  N_8 
REMARK       I    between atoms: N_8  and  C_9 
REMARK    3  A    between atoms: C_9  and  C_10 
REMARK       I    between atoms: C_10  and  N_11 
REMARK    4  A    between atoms: N_11  and  C_12 
REMARK    5  A    between atoms: C_12  and  C_13 
REMARK    6  A    between atoms: C_13  and  O_14 
REMARK    7  A    between atoms: C_13  and  C_15 
ROOT
HETATM    1  C   UNL     1      39.662 -12.156   6.748  1.00  0.00     0.309 C 
HETATM    2  N   UNL     1      40.866 -12.818   6.679  1.00  0.00    -0.350 N 
HETATM    3  O   UNL     1      38.712 -12.311   5.994  1.00  0.00    -0.262 OA
HETATM    4  H   UNL     1      41.580 -12.553   7.354  1.00  0.00     0.163 HD
ENDROOT
BRANCH   1   5
HETATM    5  C   UNL     1      39.588 -11.110   7.881  1.00  0.00     0.313 C 
HETATM    6  N   UNL     1      40.547 -11.328   8.844  1.00  0.00    -0.319 N 
HETATM    7  H   UNL     1      41.174 -12.104   8.646  1.00  0.00     0.169 HD
HETATM    8  O   UNL     1      38.722 -10.249   7.821  1.00  0.00    -0.262 OA
BRANCH   6   9
HETATM    9  C   UNL     1      40.709 -10.652  10.065  1.00  0.00     0.035 A 
HETATM   10  C   UNL     1      41.260  -9.377  10.180  1.00  0.00     0.032 A 
HETATM   11  C   UNL     1      41.339  -8.744  11.429  1.00  0.00     0.032 A 
HETATM   12  C   UNL     1      40.876  -9.378  12.580  1.00  0.00     0.034 A 
HETATM   13  C   UNL     1      40.347 -10.667  12.467  1.00  0.00     0.032 A 
HETATM   14  C   UNL     1      40.259 -11.297  11.221  1.00  0.00     0.032 A 
BRANCH  12  15
HETATM   15  N   UNL     1      40.896  -8.798  13.866  1.00  0.00    -0.328 N 
HETATM   16  C   UNL     1      41.918  -8.849  14.796  1.00  0.00     0.218 C 
HETATM   17  C   UNL     1      41.592  -8.077  16.051  1.00  0.00     0.117 C 
HETATM   18  O   UNL     1      43.005  -9.401  14.670  1.00  0.00    -0.274 OA
HETATM   19  H   UNL     1      40.078  -8.258  14.120  1.00  0.00     0.169 HD
ENDBRANCH  12  15
ENDBRANCH   6   9
ENDBRANCH   1   5
BRANCH   2  20
HETATM   20  C   UNL     1      41.189 -13.731   5.592  1.00  0.00     0.159 C 
BRANCH  20  21
HETATM   21  C   UNL     1      42.702 -14.012   5.503  1.00  0.00     0.171 C 
BRANCH  21  22
HETATM   22  O   UNL     1      43.342 -13.462   6.666  1.00  0.00    -0.389 OA
HETATM   23  H   UNL     1      42.633 -13.311   7.313  1.00  0.00     0.210 HD
ENDBRANCH  21  22
BRANCH  21  24
HETATM   24  C   UNL     1      42.988 -15.478   5.378  1.00  0.00     0.000 A 
HETATM   25  C   UNL     1      43.266 -16.190   4.166  1.00  0.00     0.001 A 
HETATM   26  C   UNL     1      43.485 -17.531   4.499  1.00  0.00     0.044 A 
HETATM   27  C   UNL     1      43.354 -15.804   2.811  1.00  0.00     0.014 A 
HETATM   28  C   UNL     1      43.798 -18.494   3.524  1.00  0.00     0.030 A 
HETATM   29  N   UNL     1      43.336 -17.631   5.865  1.00  0.00    -0.360 N 
HETATM   30  C   UNL     1      43.883 -18.083   2.191  1.00  0.00     0.002 A 
HETATM   31  C   UNL     1      43.664 -16.757   1.836  1.00  0.00     0.001 A 
HETATM   32  C   UNL     1      43.478 -18.828   6.664  1.00  0.00     0.155 C 
HETATM   33  C   UNL     1      43.034 -16.407   6.401  1.00  0.00     0.101 A 
ENDBRANCH  21  24
ENDBRANCH  20  21
ENDBRANCH   2  20
TORSDOF 7
ENDMDL
MODEL 10
REMARK VINA RESULT:      -8.1      7.046     11.064
REMARK  7 active torsions:
REMARK  status: ('A' for Active; 'I' for Inactive)
REMARK       I    between atoms: C_2  and  N_3 
REMARK    1  A    between atoms: N_3  and  C_4 
REMARK    2  A    between atoms: C_7  and  N_8 
REMARK       I    between atoms: N_8  and  C_9 
REMARK    3  A    between atoms: C_9  and  C_10 
REMARK       I    between atoms: C_10  and  N_11 
REMARK    4  A    between atoms: N_11  and  C_12 
REMARK    5  A    between atoms: C_12  and  C_13 
REMARK    6  A    between atoms: C_13  and  O_14 
REMARK    7  A    between atoms: C_13  and  C_15 
ROOT
HETATM    1  C   UNL     1      41.172 -15.712   0.191  1.00  0.00     0.309 C 
HETATM    2  N   UNL     1      40.198 -15.977   1.126  1.00  0.00    -0.350 N 
HETATM    3  O   UNL     1      42.199 -16.354   0.022  1.00  0.00    -0.262 OA
HETATM    4  H   UNL     1      39.414 -15.329   1.175  1.00  0.00     0.163 HD
ENDROOT
BRANCH   1   5
HETATM    5  C   UNL     1      40.896 -14.454  -0.660  1.00  0.00     0.313 C 
HETATM    6  N   UNL     1      42.038 -13.993  -1.277  1.00  0.00    -0.319 N 
HETATM    7  H   UNL     1      42.864 -14.564  -1.115  1.00  0.00     0.169 HD
HETATM    8  O   UNL     1      39.758 -14.009  -0.688  1.00  0.00    -0.262 OA
BRANCH   6   9
HETATM    9  C   UNL     1      42.192 -12.819  -2.032  1.00  0.00     0.035 A 
HETATM   10  C   UNL     1      42.767 -11.649  -1.539  1.00  0.00     0.032 A 
HETATM   11  C   UNL     1      42.937 -10.532  -2.370  1.00  0.00     0.032 A 
HETATM   12  C   UNL     1      42.527 -10.565  -3.702  1.00  0.00     0.034 A 
HETATM   13  C   UNL     1      41.927 -11.731  -4.188  1.00  0.00     0.032 A 
HETATM   14  C   UNL     1      41.765 -12.849  -3.363  1.00  0.00     0.032 A 
BRANCH  12  15
HETATM   15  N   UNL     1      42.687  -9.495  -4.608  1.00  0.00    -0.328 N 
HETATM   16  C   UNL     1      41.837  -8.421  -4.798  1.00  0.00     0.218 C 
HETATM   17  C   UNL     1      42.359  -7.453  -5.831  1.00  0.00     0.117 C 
HETATM   18  O   UNL     1      40.789  -8.194  -4.206  1.00  0.00    -0.274 OA
HETATM   19  H   UNL     1      43.538  -9.503  -5.155  1.00  0.00     0.169 HD
ENDBRANCH  12  15
ENDBRANCH   6   9
ENDBRANCH   1   5
BRANCH   2  20
HETATM   20  C   UNL     1      40.344 -17.027   2.123  1.00  0.00     0.159 C 
BRANCH  20  21
HETATM   21  C   UNL     1      41.225 -16.580   3.308  1.00  0.00     0.171 C 
BRANCH  21  22
HETATM   22  O   UNL     1      40.395 -16.437   4.471  1.00  0.00    -0.389 OA
HETATM   23  H   UNL     1      41.002 -16.301   5.216  1.00  0.00     0.210 HD
ENDBRANCH  21  22
BRANCH  21  24
HETATM   24  C   UNL     1      42.341 -17.547   3.563  1.00  0.00     0.000 A 
HETATM   25  C   UNL     1      43.248 -17.525   4.673  1.00  0.00     0.001 A 
HETATM   26  C   UNL     1      44.122 -18.608   4.531  1.00  0.00     0.044 A 
HETATM   27  C   UNL     1      43.396 -16.674   5.790  1.00  0.00     0.014 A 
HETATM   28  C   UNL     1      45.131 -18.873   5.475  1.00  0.00     0.030 A 
HETATM   29  N   UNL     1      43.764 -19.259   3.371  1.00  0.00    -0.360 N 
HETATM   30  C   UNL     1      45.251 -18.017   6.573  1.00  0.00     0.002 A 
HETATM   31  C   UNL     1      44.398 -16.932   6.731  1.00  0.00     0.001 A 
HETATM   32  C   UNL     1      44.383 -20.445   2.821  1.00  0.00     0.155 C 
HETATM   33  C   UNL     1      42.700 -18.629   2.782  1.00  0.00     0.101 A 
ENDBRANCH  21  24
ENDBRANCH  20  21
ENDBRANCH   2  20
TORSDOF 7
ENDMDL
