MODEL 1
REMARK VINA RESULT:     -10.2      0.000      0.000
REMARK  7 active torsions:
REMARK  status: ('A' for Active; 'I' for Inactive)
REMARK    1  A    between atoms: C_3  and  C_4 
REMARK    2  A    between atoms: C_11  and  N_12 
REMARK       I    between atoms: N_12  and  C_13 
REMARK    3  A    between atoms: C_13  and  C_14 
REMARK    4  A    between atoms: C_21  and  C_22 
REMARK       I    between atoms: C_22  and  N_23 
REMARK    5  A    between atoms: N_23  and  C_24 
REMARK    6  A    between atoms: C_24  and  C_25 
REMARK    7  A    between atoms: C_25  and  C_26 
ROOT
HETATM    1  C   UNL     1      41.944 -16.996   3.347  1.00  0.00     0.158 C 
HETATM    2  N   UNL     1      42.866 -16.951   4.456  1.00  0.00    -0.335 N 
HETATM    3  C   UNL     1      43.609 -18.015   4.920  1.00  0.00     0.111 A 
HETATM    4  N   UNL     1      44.425 -17.636   5.876  1.00  0.00    -0.233 NA
HETATM    5  C   UNL     1      44.174 -16.307   6.077  1.00  0.00     0.089 A 
HETATM    6  C   UNL     1      43.188 -15.831   5.207  1.00  0.00     0.091 A 
HETATM    7  C   UNL     1      42.769 -14.479   5.222  1.00  0.00     0.065 A 
HETATM    8  C   UNL     1      43.380 -13.653   6.180  1.00  0.00     0.049 A 
HETATM    9  C   UNL     1      44.364 -14.125   7.059  1.00  0.00     0.036 A 
HETATM   10  C   UNL     1      44.777 -15.457   7.015  1.00  0.00     0.051 A 
ENDROOT
BRANCH   9  11
HETATM   11  C   UNL     1      44.909 -13.181   8.068  1.00  0.00     0.251 C 
HETATM   12  N   UNL     1      44.106 -12.908   9.161  1.00  0.00    -0.357 N 
HETATM   13  H   UNL     1      43.329 -13.530   9.342  1.00  0.00     0.162 HD
HETATM   14  O   UNL     1      46.032 -12.714   7.920  1.00  0.00    -0.268 OA
BRANCH  12  15
HETATM   15  C   UNL     1      44.666 -12.165  10.279  1.00  0.00     0.127 C 
BRANCH  15  16
HETATM   16  C   UNL     1      44.407 -10.662  10.185  1.00  0.00     0.060 C 
BRANCH  16  17
HETATM   17  C   UNL     1      43.052 -10.301  10.709  1.00  0.00    -0.029 A 
HETATM   18  C   UNL     1      42.737  -9.884  12.043  1.00  0.00    -0.002 A 
HETATM   19  C   UNL     1      41.356  -9.695  12.110  1.00  0.00     0.042 A 
HETATM   20  C   UNL     1      43.501  -9.664  13.209  1.00  0.00     0.014 A 
HETATM   21  C   UNL     1      40.701  -9.301  13.283  1.00  0.00     0.030 A 
HETATM   22  N   UNL     1      40.851  -9.975  10.862  1.00  0.00    -0.365 N 
HETATM   23  C   UNL     1      41.482  -9.090  14.423  1.00  0.00     0.002 A 
HETATM   24  C   UNL     1      42.862  -9.267  14.389  1.00  0.00     0.001 A 
HETATM   25  H   UNL     1      39.871  -9.927  10.620  1.00  0.00     0.165 HD
HETATM   26  C   UNL     1      41.861 -10.338  10.011  1.00  0.00     0.096 A 
ENDBRANCH  16  17
ENDBRANCH  15  16
ENDBRANCH  12  15
ENDBRANCH   9  11
BRANCH   7  27
HETATM   27  N   UNL     1      41.790 -14.000   4.333  1.00  0.00    -0.323 N 
HETATM   28  C   UNL     1      41.970 -13.450   3.070  1.00  0.00     0.251 C 
HETATM   29  O   UNL     1      43.036 -13.281   2.490  1.00  0.00    -0.270 OA
HETATM   30  H   UNL     1      40.819 -14.033   4.615  1.00  0.00     0.169 HD
BRANCH  28  31
HETATM   31  C   UNL     1      40.617 -13.190   2.380  1.00  0.00     0.213 C 
HETATM   32  O   UNL     1      40.729 -13.304   0.946  1.00  0.00    -0.376 OA
HETATM   33  C   UNL     1      39.794 -14.302   0.508  1.00  0.00     0.168 C 
HETATM   34  C   UNL     1      39.482 -15.156   1.715  1.00  0.00     0.029 C 
HETATM   35  C   UNL     1      39.520 -14.142   2.832  1.00  0.00     0.044 C 
ENDBRANCH  28  31
ENDBRANCH   7  27
BRANCH   3  36
HETATM   36  C   UNL     1      43.545 -19.459   4.423  1.00  0.00     0.056 C 
HETATM   37  C   UNL     1      43.982 -19.609   2.932  1.00  0.00     0.012 C 
HETATM   38  C   UNL     1      44.653 -20.934   3.336  1.00  0.00     0.002 C 
HETATM   39  C   UNL     1      44.797 -20.329   4.744  1.00  0.00     0.012 C 
ENDBRANCH   3  36
TORSDOF 7
ENDMDL
MODEL 2
REMARK VINA RESULT:      -9.9      2.024      2.930
REMARK  7 active torsions:
REMARK  status: ('A' for Active; 'I' for Inactive)
REMARK    1  A    between atoms: C_3  and  C_4 
REMARK    2  A    between atoms: C_11  and  N_12 
REMARK       I    between atoms: N_12  and  C_13 
REMARK    3  A    between atoms: C_13  and  C_14 
REMARK    4  A    between atoms: C_21  and  C_22 
REMARK       I    between atoms: C_22  and  N_23 
REMARK    5  A    between atoms: N_23  and  C_24 
REMARK    6  A    between atoms: C_24  and  C_25 
REMARK    7  A    between atoms: C_25  and  C_26 
ROOT
HETATM    1  C   UNL     1      41.427 -16.048   3.449  1.00  0.00     0.158 C 
HETATM    2  N   UNL     1      42.464 -16.163   4.446  1.00  0.00    -0.335 N 
HETATM    3  C   UNL     1      43.239 -17.280   4.666  1.00  0.00     0.111 A 
HETATM    4  N   UNL     1      44.159 -17.043   5.573  1.00  0.00    -0.233 NA
HETATM    5  C   UNL     1      43.947 -15.758   5.992  1.00  0.00     0.089 A 
HETATM    6  C   UNL     1      42.878 -15.163   5.313  1.00  0.00     0.091 A 
HETATM    7  C   UNL     1      42.480 -13.831   5.571  1.00  0.00     0.065 A 
HETATM    8  C   UNL     1      43.201 -13.151   6.567  1.00  0.00     0.049 A 
HETATM    9  C   UNL     1      44.269 -13.744   7.256  1.00  0.00     0.036 A 
HETATM   10  C   UNL     1      44.658 -15.053   6.973  1.00  0.00     0.051 A 
ENDROOT
BRANCH   9  11
HETATM   11  C   UNL     1      44.931 -12.955   8.327  1.00  0.00     0.251 C 
HETATM   12  N   UNL     1      44.204 -12.748   9.485  1.00  0.00    -0.357 N 
HETATM   13  H   UNL     1      43.392 -13.330   9.643  1.00  0.00     0.162 HD
HETATM   14  O   UNL     1      46.077 -12.554   8.165  1.00  0.00    -0.268 OA
BRANCH  12  15
HETATM   15  C   UNL     1      44.871 -12.173  10.642  1.00  0.00     0.127 C 
BRANCH  15  16
HETATM   16  C   UNL     1      44.175 -10.917  11.168  1.00  0.00     0.060 C 
BRANCH  16  17
HETATM   17  C   UNL     1      42.685 -11.032  11.076  1.00  0.00    -0.029 A 
HETATM   18  C   UNL     1      41.871 -10.688   9.948  1.00  0.00    -0.002 A 
HETATM   19  C   UNL     1      40.541 -10.906  10.309  1.00  0.00     0.042 A 
HETATM   20  C   UNL     1      42.144 -10.195   8.655  1.00  0.00     0.014 A 
HETATM   21  C   UNL     1      39.470 -10.653   9.443  1.00  0.00     0.030 A 
HETATM   22  N   UNL     1      40.546 -11.376  11.601  1.00  0.00    -0.365 N 
HETATM   23  C   UNL     1      39.769 -10.164   8.168  1.00  0.00     0.002 A 
HETATM   24  C   UNL     1      41.086  -9.939   7.776  1.00  0.00     0.001 A 
HETATM   25  H   UNL     1      39.714 -11.613  12.124  1.00  0.00     0.165 HD
HETATM   26  C   UNL     1      41.828 -11.458  12.073  1.00  0.00     0.096 A 
ENDBRANCH  16  17
ENDBRANCH  15  16
ENDBRANCH  12  15
ENDBRANCH   9  11
BRANCH   7  27
HETATM   27  N   UNL     1      41.416 -13.230   4.873  1.00  0.00    -0.323 N 
HETATM   28  C   UNL     1      40.121 -12.996   5.315  1.00  0.00     0.251 C 
HETATM   29  O   UNL     1      39.661 -13.274   6.416  1.00  0.00    -0.270 OA
HETATM   30  H   UNL     1      41.571 -12.924   3.922  1.00  0.00     0.169 HD
BRANCH  28  31
HETATM   31  C   UNL     1      39.320 -12.183   4.279  1.00  0.00     0.213 C 
HETATM   32  O   UNL     1      38.343 -11.336   4.919  1.00  0.00    -0.376 OA
HETATM   33  C   UNL     1      38.602  -9.981   4.519  1.00  0.00     0.168 C 
HETATM   34  C   UNL     1      40.039  -9.941   4.050  1.00  0.00     0.029 C 
HETATM   35  C   UNL     1      40.194 -11.296   3.405  1.00  0.00     0.044 C 
ENDBRANCH  28  31
ENDBRANCH   7  27
BRANCH   3  36
HETATM   36  C   UNL     1      43.105 -18.636   3.973  1.00  0.00     0.056 C 
HETATM   37  C   UNL     1      43.797 -18.676   2.575  1.00  0.00     0.012 C 
HETATM   38  C   UNL     1      44.222 -20.119   2.905  1.00  0.00     0.002 C 
HETATM   39  C   UNL     1      44.163 -19.702   4.386  1.00  0.00     0.012 C 
ENDBRANCH   3  36
TORSDOF 7
ENDMDL
MODEL 3
REMARK VINA RESULT:      -9.8      1.125      2.208
REMARK  7 active torsions:
REMARK  status: ('A' for Active; 'I' for Inactive)
REMARK    1  A    between atoms: C_3  and  C_4 
REMARK    2  A    between atoms: C_11  and  N_12 
REMARK       I    between atoms: N_12  and  C_13 
REMARK    3  A    between atoms: C_13  and  C_14 
REMARK    4  A    between atoms: C_21  and  C_22 
REMARK       I    between atoms: C_22  and  N_23 
REMARK    5  A    between atoms: N_23  and  C_24 
REMARK    6  A    between atoms: C_24  and  C_25 
REMARK    7  A    between atoms: C_25  and  C_26 
ROOT
HETATM    1  C   UNL     1      41.915 -16.760   3.274  1.00  0.00     0.158 C 
HETATM    2  N   UNL     1      42.828 -16.756   4.391  1.00  0.00    -0.335 N 
HETATM    3  C   UNL     1      43.560 -17.838   4.828  1.00  0.00     0.111 A 
HETATM    4  N   UNL     1      44.371 -17.495   5.801  1.00  0.00    -0.233 NA
HETATM    5  C   UNL     1      44.127 -16.171   6.041  1.00  0.00     0.089 A 
HETATM    6  C   UNL     1      43.151 -15.661   5.178  1.00  0.00     0.091 A 
HETATM    7  C   UNL     1      42.741 -14.308   5.232  1.00  0.00     0.065 A 
HETATM    8  C   UNL     1      43.350 -13.516   6.219  1.00  0.00     0.049 A 
HETATM    9  C   UNL     1      44.324 -14.022   7.092  1.00  0.00     0.036 A 
HETATM   10  C   UNL     1      44.728 -15.354   7.009  1.00  0.00     0.051 A 
ENDROOT
BRANCH   9  11
HETATM   11  C   UNL     1      44.866 -13.112   8.133  1.00  0.00     0.251 C 
HETATM   12  N   UNL     1      44.091 -12.929   9.264  1.00  0.00    -0.357 N 
HETATM   13  H   UNL     1      43.343 -13.589   9.434  1.00  0.00     0.162 HD
HETATM   14  O   UNL     1      45.966 -12.596   7.976  1.00  0.00    -0.268 OA
BRANCH  12  15
HETATM   15  C   UNL     1      44.659 -12.227  10.402  1.00  0.00     0.127 C 
BRANCH  15  16
HETATM   16  C   UNL     1      44.073 -10.828  10.593  1.00  0.00     0.060 C 
BRANCH  16  17
HETATM   17  C   UNL     1      42.576 -10.852  10.602  1.00  0.00    -0.029 A 
HETATM   18  C   UNL     1      41.713 -10.611   9.485  1.00  0.00    -0.002 A 
HETATM   19  C   UNL     1      40.398 -10.686   9.947  1.00  0.00     0.042 A 
HETATM   20  C   UNL     1      41.930 -10.318   8.122  1.00  0.00     0.014 A 
HETATM   21  C   UNL     1      39.290 -10.481   9.115  1.00  0.00     0.030 A 
HETATM   22  N   UNL     1      40.459 -10.974  11.289  1.00  0.00    -0.365 N 
HETATM   23  C   UNL     1      39.533 -10.192   7.769  1.00  0.00     0.002 A 
HETATM   24  C   UNL     1      40.833 -10.113   7.277  1.00  0.00     0.001 A 
HETATM   25  H   UNL     1      39.650 -11.081  11.887  1.00  0.00     0.165 HD
HETATM   26  C   UNL     1      41.762 -11.078  11.695  1.00  0.00     0.096 A 
ENDBRANCH  16  17
ENDBRANCH  15  16
ENDBRANCH  12  15
ENDBRANCH   9  11
BRANCH   7  27
HETATM   27  N   UNL     1      41.773 -13.795   4.350  1.00  0.00    -0.323 N 
HETATM   28  C   UNL     1      41.953 -13.313   3.060  1.00  0.00     0.251 C 
HETATM   29  O   UNL     1      43.010 -13.247   2.444  1.00  0.00    -0.270 OA
HETATM   30  H   UNL     1      40.811 -13.746   4.660  1.00  0.00     0.169 HD
BRANCH  28  31
HETATM   31  C   UNL     1      40.601 -12.983   2.397  1.00  0.00     0.213 C 
HETATM   32  O   UNL     1      40.687 -13.071   0.960  1.00  0.00    -0.376 OA
HETATM   33  C   UNL     1      39.705 -14.021   0.516  1.00  0.00     0.168 C 
HETATM   34  C   UNL     1      39.376 -14.886   1.712  1.00  0.00     0.029 C 
HETATM   35  C   UNL     1      39.472 -13.897   2.847  1.00  0.00     0.044 C 
ENDBRANCH  28  31
ENDBRANCH   7  27
BRANCH   3  36
HETATM   36  C   UNL     1      43.492 -19.266   4.286  1.00  0.00     0.056 C 
HETATM   37  C   UNL     1      44.123 -19.409   2.866  1.00  0.00     0.012 C 
HETATM   38  C   UNL     1      44.662 -20.778   3.320  1.00  0.00     0.002 C 
HETATM   39  C   UNL     1      44.639 -20.211   4.752  1.00  0.00     0.012 C 
ENDBRANCH   3  36
TORSDOF 7
ENDMDL
MODEL 4
REMARK VINA RESULT:      -9.5      1.961      2.290
REMARK  7 active torsions:
REMARK  status: ('A' for Active; 'I' for Inactive)
REMARK    1  A    between atoms: C_3  and  C_4 
REMARK    2  A    between atoms: C_11  and  N_12 
REMARK       I    between atoms: N_12  and  C_13 
REMARK    3  A    between atoms: C_13  and  C_14 
REMARK    4  A    between atoms: C_21  and  C_22 
REMARK       I    between atoms: C_22  and  N_23 
REMARK    5  A    between atoms: N_23  and  C_24 
REMARK    6  A    between atoms: C_24  and  C_25 
REMARK    7  A    between atoms: C_25  and  C_26 
ROOT
HETATM    1  C   UNL     1      41.342 -15.608   3.074  1.00  0.00     0.158 C 
HETATM    2  N   UNL     1      42.314 -15.848   4.113  1.00  0.00    -0.335 N 
HETATM    3  C   UNL     1      43.009 -17.023   4.300  1.00  0.00     0.111 A 
HETATM    4  N   UNL     1      43.890 -16.899   5.266  1.00  0.00    -0.233 NA
HETATM    5  C   UNL     1      43.732 -15.631   5.755  1.00  0.00     0.089 A 
HETATM    6  C   UNL     1      42.739 -14.931   5.062  1.00  0.00     0.091 A 
HETATM    7  C   UNL     1      42.407 -13.594   5.384  1.00  0.00     0.065 A 
HETATM    8  C   UNL     1      43.111 -13.022   6.457  1.00  0.00     0.049 A 
HETATM    9  C   UNL     1      44.102 -13.721   7.160  1.00  0.00     0.036 A 
HETATM   10  C   UNL     1      44.428 -15.033   6.814  1.00  0.00     0.051 A 
ENDROOT
BRANCH   9  11
HETATM   11  C   UNL     1      44.750 -13.042   8.311  1.00  0.00     0.251 C 
HETATM   12  N   UNL     1      43.918 -12.619   9.332  1.00  0.00    -0.357 N 
HETATM   13  H   UNL     1      42.981 -12.999   9.364  1.00  0.00     0.162 HD
HETATM   14  O   UNL     1      45.968 -12.912   8.333  1.00  0.00    -0.268 OA
BRANCH  12  15
HETATM   15  C   UNL     1      44.509 -12.144  10.572  1.00  0.00     0.127 C 
BRANCH  15  16
HETATM   16  C   UNL     1      44.596 -10.620  10.645  1.00  0.00     0.060 C 
BRANCH  16  17
HETATM   17  C   UNL     1      43.277 -10.007  11.003  1.00  0.00    -0.029 A 
HETATM   18  C   UNL     1      42.832  -9.651  12.317  1.00  0.00    -0.002 A 
HETATM   19  C   UNL     1      41.531  -9.159  12.200  1.00  0.00     0.042 A 
HETATM   20  C   UNL     1      43.411  -9.717  13.602  1.00  0.00     0.014 A 
HETATM   21  C   UNL     1      40.780  -8.732  13.303  1.00  0.00     0.030 A 
HETATM   22  N   UNL     1      41.202  -9.203  10.866  1.00  0.00    -0.365 N 
HETATM   23  C   UNL     1      41.378  -8.809  14.564  1.00  0.00     0.002 A 
HETATM   24  C   UNL     1      42.675  -9.292  14.714  1.00  0.00     0.001 A 
HETATM   25  H   UNL     1      40.311  -8.911  10.488  1.00  0.00     0.165 HD
HETATM   26  C   UNL     1      42.244  -9.709  10.136  1.00  0.00     0.096 A 
ENDBRANCH  16  17
ENDBRANCH  15  16
ENDBRANCH  12  15
ENDBRANCH   9  11
BRANCH   7  27
HETATM   27  N   UNL     1      41.420 -12.887   4.672  1.00  0.00    -0.323 N 
HETATM   28  C   UNL     1      40.210 -12.392   5.141  1.00  0.00     0.251 C 
HETATM   29  O   UNL     1      39.774 -12.482   6.283  1.00  0.00    -0.270 OA
HETATM   30  H   UNL     1      41.569 -12.702   3.689  1.00  0.00     0.169 HD
BRANCH  28  31
HETATM   31  C   UNL     1      39.498 -11.553   4.061  1.00  0.00     0.213 C 
HETATM   32  O   UNL     1      38.224 -11.066   4.531  1.00  0.00    -0.376 OA
HETATM   33  C   UNL     1      38.233  -9.633   4.426  1.00  0.00     0.168 C 
HETATM   34  C   UNL     1      39.686  -9.217   4.378  1.00  0.00     0.029 C 
HETATM   35  C   UNL     1      40.309 -10.351   3.603  1.00  0.00     0.044 C 
ENDBRANCH  28  31
ENDBRANCH   7  27
BRANCH   3  36
HETATM   36  C   UNL     1      42.833 -18.323   3.516  1.00  0.00     0.056 C 
HETATM   37  C   UNL     1      43.568 -18.308   2.140  1.00  0.00     0.012 C 
HETATM   38  C   UNL     1      43.911 -19.788   2.386  1.00  0.00     0.002 C 
HETATM   39  C   UNL     1      43.824 -19.465   3.889  1.00  0.00     0.012 C 
ENDBRANCH   3  36
TORSDOF 7
ENDMDL
MODEL 5
REMARK VINA RESULT:      -9.4      2.293      3.309
REMARK  7 active torsions:
REMARK  status: ('A' for Active; 'I' for Inactive)
REMARK    1  A    between atoms: C_3  and  C_4 
REMARK    2  A    between atoms: C_11  and  N_12 
REMARK       I    between atoms: N_12  and  C_13 
REMARK    3  A    between atoms: C_13  and  C_14 
REMARK    4  A    between atoms: C_21  and  C_22 
REMARK       I    between atoms: C_22  and  N_23 
REMARK    5  A    between atoms: N_23  and  C_24 
REMARK    6  A    between atoms: C_24  and  C_25 
REMARK    7  A    between atoms: C_25  and  C_26 
ROOT
HETATM    1  C   UNL     1      42.237 -16.790   0.627  1.00  0.00     0.158 C 
HETATM    2  N   UNL     1      42.349 -16.538   2.043  1.00  0.00    -0.335 N 
HETATM    3  C   UNL     1      43.153 -17.237   2.917  1.00  0.00     0.111 A 
HETATM    4  N   UNL     1      43.111 -16.709   4.118  1.00  0.00    -0.233 NA
HETATM    5  C   UNL     1      42.221 -15.674   4.041  1.00  0.00     0.089 A 
HETATM    6  C   UNL     1      41.705 -15.533   2.749  1.00  0.00     0.091 A 
HETATM    7  C   UNL     1      40.773 -14.519   2.424  1.00  0.00     0.065 A 
HETATM    8  C   UNL     1      40.374 -13.683   3.481  1.00  0.00     0.049 A 
HETATM    9  C   UNL     1      40.882 -13.825   4.780  1.00  0.00     0.036 A 
HETATM   10  C   UNL     1      41.816 -14.818   5.075  1.00  0.00     0.051 A 
ENDROOT
BRANCH   9  11
HETATM   11  C   UNL     1      40.355 -12.922   5.836  1.00  0.00     0.251 C 
HETATM   12  N   UNL     1      41.276 -12.114   6.479  1.00  0.00    -0.357 N 
HETATM   13  H   UNL     1      42.183 -11.997   6.047  1.00  0.00     0.162 HD
HETATM   14  O   UNL     1      39.153 -12.899   6.072  1.00  0.00    -0.268 OA
BRANCH  12  15
HETATM   15  C   UNL     1      40.797 -11.065   7.364  1.00  0.00     0.127 C 
BRANCH  15  16
HETATM   16  C   UNL     1      41.823 -10.664   8.423  1.00  0.00     0.060 C 
BRANCH  16  17
HETATM   17  C   UNL     1      41.249 -10.734   9.804  1.00  0.00    -0.029 A 
HETATM   18  C   UNL     1      41.944 -10.479  11.030  1.00  0.00    -0.002 A 
HETATM   19  C   UNL     1      41.047 -10.704  12.076  1.00  0.00     0.042 A 
HETATM   20  C   UNL     1      43.262 -10.091  11.349  1.00  0.00     0.014 A 
HETATM   21  C   UNL     1      41.403 -10.564  13.422  1.00  0.00     0.030 A 
HETATM   22  N   UNL     1      39.850 -11.070  11.507  1.00  0.00    -0.365 N 
HETATM   23  C   UNL     1      42.715 -10.179  13.710  1.00  0.00     0.002 A 
HETATM   24  C   UNL     1      43.634  -9.944  12.690  1.00  0.00     0.001 A 
HETATM   25  H   UNL     1      39.017 -11.302  12.031  1.00  0.00     0.165 HD
HETATM   26  C   UNL     1      39.958 -11.091  10.142  1.00  0.00     0.096 A 
ENDBRANCH  16  17
ENDBRANCH  15  16
ENDBRANCH  12  15
ENDBRANCH   9  11
BRANCH   7  27
HETATM   27  N   UNL     1      40.270 -14.369   1.119  1.00  0.00    -0.323 N 
HETATM   28  C   UNL     1      40.817 -13.647   0.065  1.00  0.00     0.251 C 
HETATM   29  O   UNL     1      41.857 -13.000   0.082  1.00  0.00    -0.270 OA
HETATM   30  H   UNL     1      39.397 -14.820   0.879  1.00  0.00     0.169 HD
BRANCH  28  31
HETATM   31  C   UNL     1      40.016 -13.869  -1.233  1.00  0.00     0.213 C 
HETATM   32  O   UNL     1      40.023 -12.689  -2.062  1.00  0.00    -0.376 OA
HETATM   33  C   UNL     1      40.564 -13.051  -3.342  1.00  0.00     0.168 C 
HETATM   34  C   UNL     1      41.359 -14.319  -3.127  1.00  0.00     0.029 C 
HETATM   35  C   UNL     1      40.541 -15.023  -2.073  1.00  0.00     0.044 C 
ENDBRANCH  28  31
ENDBRANCH   7  27
BRANCH   3  36
HETATM   36  C   UNL     1      44.010 -18.460   2.590  1.00  0.00     0.056 C 
HETATM   37  C   UNL     1      44.346 -19.320   3.848  1.00  0.00     0.012 C 
HETATM   38  C   UNL     1      44.182 -20.563   2.955  1.00  0.00     0.002 C 
HETATM   39  C   UNL     1      43.223 -19.712   2.101  1.00  0.00     0.012 C 
ENDBRANCH   3  36
TORSDOF 7
ENDMDL
MODEL 6
REMARK VINA RESULT:      -9.2      4.685      8.686
REMARK  7 active torsions:
REMARK  status: ('A' for Active; 'I' for Inactive)
REMARK    1  A    between atoms: C_3  and  C_4 
REMARK    2  A    between atoms: C_11  and  N_12 
REMARK       I    between atoms: N_12  and  C_13 
REMARK    3  A    between atoms: C_13  and  C_14 
REMARK    4  A    between atoms: C_21  and  C_22 
REMARK       I    between atoms: C_22  and  N_23 
REMARK    5  A    between atoms: N_23  and  C_24 
REMARK    6  A    between atoms: C_24  and  C_25 
REMARK    7  A    between atoms: C_25  and  C_26 
ROOT
HETATM    1  C   UNL     1      38.672 -12.910   1.768  1.00  0.00     0.158 C 
HETATM    2  N   UNL     1      39.601 -13.715   2.522  1.00  0.00    -0.335 N 
HETATM    3  C   UNL     1      39.823 -13.618   3.879  1.00  0.00     0.111 A 
HETATM    4  N   UNL     1      40.654 -14.549   4.287  1.00  0.00    -0.233 NA
HETATM    5  C   UNL     1      41.023 -15.238   3.165  1.00  0.00     0.089 A 
HETATM    6  C   UNL     1      40.389 -14.741   2.022  1.00  0.00     0.091 A 
HETATM    7  C   UNL     1      40.607 -15.304   0.743  1.00  0.00     0.065 A 
HETATM    8  C   UNL     1      41.518 -16.373   0.684  1.00  0.00     0.049 A 
HETATM    9  C   UNL     1      42.162 -16.871   1.825  1.00  0.00     0.036 A 
HETATM   10  C   UNL     1      41.918 -16.314   3.081  1.00  0.00     0.051 A 
ENDROOT
BRANCH   9  11
HETATM   11  C   UNL     1      43.146 -17.969   1.646  1.00  0.00     0.251 C 
HETATM   12  N   UNL     1      42.857 -19.170   2.268  1.00  0.00    -0.357 N 
HETATM   13  H   UNL     1      41.910 -19.318   2.591  1.00  0.00     0.162 HD
HETATM   14  O   UNL     1      44.136 -17.790   0.946  1.00  0.00    -0.268 OA
BRANCH  12  15
HETATM   15  C   UNL     1      43.666 -20.338   1.957  1.00  0.00     0.127 C 
BRANCH  15  16
HETATM   16  C   UNL     1      44.927 -20.435   2.815  1.00  0.00     0.060 C 
BRANCH  16  17
HETATM   17  C   UNL     1      44.596 -20.622   4.264  1.00  0.00    -0.029 A 
HETATM   18  C   UNL     1      44.358 -19.585   5.224  1.00  0.00    -0.002 A 
HETATM   19  C   UNL     1      44.133 -20.199   6.457  1.00  0.00     0.042 A 
HETATM   20  C   UNL     1      44.329 -18.176   5.161  1.00  0.00     0.014 A 
HETATM   21  C   UNL     1      43.884 -19.475   7.629  1.00  0.00     0.030 A 
HETATM   22  N   UNL     1      44.219 -21.556   6.253  1.00  0.00    -0.365 N 
HETATM   23  C   UNL     1      43.861 -18.081   7.538  1.00  0.00     0.002 A 
HETATM   24  C   UNL     1      44.078 -17.438   6.323  1.00  0.00     0.001 A 
HETATM   25  H   UNL     1      44.105 -22.250   6.978  1.00  0.00     0.165 HD
HETATM   26  C   UNL     1      44.495 -21.823   4.938  1.00  0.00     0.096 A 
ENDBRANCH  16  17
ENDBRANCH  15  16
ENDBRANCH  12  15
ENDBRANCH   9  11
BRANCH   7  27
HETATM   27  N   UNL     1      39.953 -14.813  -0.402  1.00  0.00    -0.323 N 
HETATM   28  C   UNL     1      40.476 -14.024  -1.419  1.00  0.00     0.251 C 
HETATM   29  O   UNL     1      41.624 -13.606  -1.505  1.00  0.00    -0.270 OA
HETATM   30  H   UNL     1      38.975 -15.032  -0.534  1.00  0.00     0.169 HD
BRANCH  28  31
HETATM   31  C   UNL     1      39.452 -13.834  -2.555  1.00  0.00     0.213 C 
HETATM   32  O   UNL     1      38.133 -13.571  -2.035  1.00  0.00    -0.376 OA
HETATM   33  C   UNL     1      37.687 -12.317  -2.575  1.00  0.00     0.168 C 
HETATM   34  C   UNL     1      38.928 -11.574  -3.012  1.00  0.00     0.029 C 
HETATM   35  C   UNL     1      39.808 -12.698  -3.501  1.00  0.00     0.044 C 
ENDBRANCH  28  31
ENDBRANCH   7  27
BRANCH   3  36
HETATM   36  C   UNL     1      39.208 -12.595   4.833  1.00  0.00     0.056 C 
HETATM   37  C   UNL     1      39.780 -12.694   6.282  1.00  0.00     0.012 C 
HETATM   38  C   UNL     1      39.709 -11.157   6.340  1.00  0.00     0.002 C 
HETATM   39  C   UNL     1      39.863 -11.182   4.808  1.00  0.00     0.012 C 
ENDBRANCH   3  36
TORSDOF 7
ENDMDL
MODEL 7
REMARK VINA RESULT:      -9.1      2.701      5.644
REMARK  7 active torsions:
REMARK  status: ('A' for Active; 'I' for Inactive)
REMARK    1  A    between atoms: C_3  and  C_4 
REMARK    2  A    between atoms: C_11  and  N_12 
REMARK       I    between atoms: N_12  and  C_13 
REMARK    3  A    between atoms: C_13  and  C_14 
REMARK    4  A    between atoms: C_21  and  C_22 
REMARK       I    between atoms: C_22  and  N_23 
REMARK    5  A    between atoms: N_23  and  C_24 
REMARK    6  A    between atoms: C_24  and  C_25 
REMARK    7  A    between atoms: C_25  and  C_26 
ROOT
HETATM    1  C   UNL     1      41.695 -15.945   0.314  1.00  0.00     0.158 C 
HETATM    2  N   UNL     1      40.868 -14.892   0.850  1.00  0.00    -0.335 N 
HETATM    3  C   UNL     1      39.916 -14.188   0.146  1.00  0.00     0.111 A 
HETATM    4  N   UNL     1      39.263 -13.364   0.932  1.00  0.00    -0.233 NA
HETATM    5  C   UNL     1      39.836 -13.494   2.167  1.00  0.00     0.089 A 
HETATM    6  C   UNL     1      40.862 -14.444   2.162  1.00  0.00     0.091 A 
HETATM    7  C   UNL     1      41.594 -14.758   3.332  1.00  0.00     0.065 A 
HETATM    8  C   UNL     1      41.247 -14.041   4.490  1.00  0.00     0.049 A 
HETATM    9  C   UNL     1      40.224 -13.083   4.500  1.00  0.00     0.036 A 
HETATM   10  C   UNL     1      39.502 -12.802   3.340  1.00  0.00     0.051 A 
ENDROOT
BRANCH   9  11
HETATM   11  C   UNL     1      39.973 -12.345   5.764  1.00  0.00     0.251 C 
HETATM   12  N   UNL     1      40.976 -11.497   6.198  1.00  0.00    -0.357 N 
HETATM   13  H   UNL     1      41.695 -11.238   5.534  1.00  0.00     0.162 HD
HETATM   14  O   UNL     1      38.904 -12.482   6.346  1.00  0.00    -0.268 OA
BRANCH  12  15
HETATM   15  C   UNL     1      40.706 -10.593   7.304  1.00  0.00     0.127 C 
BRANCH  15  16
HETATM   16  C   UNL     1      41.813 -10.593   8.358  1.00  0.00     0.060 C 
BRANCH  16  17
HETATM   17  C   UNL     1      41.259 -10.749   9.740  1.00  0.00    -0.029 A 
HETATM   18  C   UNL     1      41.959 -10.523  10.970  1.00  0.00    -0.002 A 
HETATM   19  C   UNL     1      41.085 -10.831  12.013  1.00  0.00     0.042 A 
HETATM   20  C   UNL     1      43.265 -10.098  11.291  1.00  0.00     0.014 A 
HETATM   21  C   UNL     1      41.452 -10.738  13.361  1.00  0.00     0.030 A 
HETATM   22  N   UNL     1      39.896 -11.218  11.442  1.00  0.00    -0.365 N 
HETATM   23  C   UNL     1      42.753 -10.315  13.652  1.00  0.00     0.002 A 
HETATM   24  C   UNL     1      43.648  -9.998  12.634  1.00  0.00     0.001 A 
HETATM   25  H   UNL     1      39.080 -11.505  11.963  1.00  0.00     0.165 HD
HETATM   26  C   UNL     1      39.987 -11.171  10.076  1.00  0.00     0.096 A 
ENDBRANCH  16  17
ENDBRANCH  15  16
ENDBRANCH  12  15
ENDBRANCH   9  11
BRANCH   7  27
HETATM   27  N   UNL     1      42.613 -15.728   3.327  1.00  0.00    -0.323 N 
HETATM   28  C   UNL     1      42.531 -17.064   3.696  1.00  0.00     0.251 C 
HETATM   29  O   UNL     1      41.535 -17.653   4.100  1.00  0.00    -0.270 OA
HETATM   30  H   UNL     1      43.541 -15.455   3.033  1.00  0.00     0.169 HD
BRANCH  28  31
HETATM   31  C   UNL     1      43.851 -17.804   3.399  1.00  0.00     0.213 C 
HETATM   32  O   UNL     1      44.029 -18.932   4.280  1.00  0.00    -0.376 OA
HETATM   33  C   UNL     1      44.179 -20.107   3.468  1.00  0.00     0.168 C 
HETATM   34  C   UNL     1      43.582 -19.775   2.120  1.00  0.00     0.029 C 
HETATM   35  C   UNL     1      43.943 -18.317   1.970  1.00  0.00     0.044 C 
ENDBRANCH  28  31
ENDBRANCH   7  27
BRANCH   3  36
HETATM   36  C   UNL     1      39.605 -14.313  -1.346  1.00  0.00     0.056 C 
HETATM   37  C   UNL     1      38.471 -13.349  -1.814  1.00  0.00     0.012 C 
HETATM   38  C   UNL     1      39.269 -13.155  -3.116  1.00  0.00     0.002 C 
HETATM   39  C   UNL     1      40.526 -13.482  -2.289  1.00  0.00     0.012 C 
ENDBRANCH   3  36
TORSDOF 7
ENDMDL
MODEL 8
REMARK VINA RESULT:      -9.1      2.512      3.608
REMARK  7 active torsions:
REMARK  status: ('A' for Active; 'I' for Inactive)
REMARK    1  A    between atoms: C_3  and  C_4 
REMARK    2  A    between atoms: C_11  and  N_12 
REMARK       I    between atoms: N_12  and  C_13 
REMARK    3  A    between atoms: C_13  and  C_14 
REMARK    4  A    between atoms: C_21  and  C_22 
REMARK       I    between atoms: C_22  and  N_23 
REMARK    5  A    between atoms: N_23  and  C_24 
REMARK    6  A    between atoms: C_24  and  C_25 
REMARK    7  A    between atoms: C_25  and  C_26 
ROOT
HETATM    1  C   UNL     1      42.143 -16.811   1.594  1.00  0.00     0.158 C 
HETATM    2  N   UNL     1      41.832 -16.565   2.982  1.00  0.00    -0.335 N 
HETATM    3  C   UNL     1      42.166 -17.392   4.032  1.00  0.00     0.111 A 
HETATM    4  N   UNL     1      41.833 -16.850   5.181  1.00  0.00    -0.233 NA
HETATM    5  C   UNL     1      41.222 -15.666   4.872  1.00  0.00     0.089 A 
HETATM    6  C   UNL     1      41.190 -15.447   3.491  1.00  0.00     0.091 A 
HETATM    7  C   UNL     1      40.617 -14.280   2.934  1.00  0.00     0.065 A 
HETATM    8  C   UNL     1      40.057 -13.370   3.846  1.00  0.00     0.049 A 
HETATM    9  C   UNL     1      40.079 -13.587   5.230  1.00  0.00     0.036 A 
HETATM   10  C   UNL     1      40.667 -14.736   5.761  1.00  0.00     0.051 A 
ENDROOT
BRANCH   9  11
HETATM   11  C   UNL     1      39.412 -12.587   6.104  1.00  0.00     0.251 C 
HETATM   12  N   UNL     1      39.789 -12.574   7.434  1.00  0.00    -0.357 N 
HETATM   13  H   UNL     1      40.644 -13.053   7.687  1.00  0.00     0.162 HD
HETATM   14  O   UNL     1      38.599 -11.807   5.623  1.00  0.00    -0.268 OA
BRANCH  12  15
HETATM   15  C   UNL     1      39.335 -11.487   8.286  1.00  0.00     0.127 C 
BRANCH  15  16
HETATM   16  C   UNL     1      40.242 -10.259   8.219  1.00  0.00     0.060 C 
BRANCH  16  17
HETATM   17  C   UNL     1      40.975 -10.042   9.506  1.00  0.00    -0.029 A 
HETATM   18  C   UNL     1      42.330 -10.411   9.788  1.00  0.00    -0.002 A 
HETATM   19  C   UNL     1      42.590 -10.069  11.116  1.00  0.00     0.042 A 
HETATM   20  C   UNL     1      43.357 -11.021   9.038  1.00  0.00     0.014 A 
HETATM   21  C   UNL     1      43.825 -10.309  11.732  1.00  0.00     0.030 A 
HETATM   22  N   UNL     1      41.443  -9.504  11.619  1.00  0.00    -0.365 N 
HETATM   23  C   UNL     1      44.825 -10.915  10.966  1.00  0.00     0.002 A 
HETATM   24  C   UNL     1      44.598 -11.266   9.638  1.00  0.00     0.001 A 
HETATM   25  H   UNL     1      41.341  -9.166  12.566  1.00  0.00     0.165 HD
HETATM   26  C   UNL     1      40.465  -9.480  10.660  1.00  0.00     0.096 A 
ENDBRANCH  16  17
ENDBRANCH  15  16
ENDBRANCH  12  15
ENDBRANCH   9  11
BRANCH   7  27
HETATM   27  N   UNL     1      40.603 -14.054   1.545  1.00  0.00    -0.323 N 
HETATM   28  C   UNL     1      41.460 -13.259   0.795  1.00  0.00     0.251 C 
HETATM   29  O   UNL     1      42.402 -12.597   1.215  1.00  0.00    -0.270 OA
HETATM   30  H   UNL     1      39.889 -14.503   0.987  1.00  0.00     0.169 HD
BRANCH  28  31
HETATM   31  C   UNL     1      41.179 -13.410  -0.713  1.00  0.00     0.213 C 
HETATM   32  O   UNL     1      40.167 -14.408  -0.961  1.00  0.00    -0.376 OA
HETATM   33  C   UNL     1      39.100 -13.784  -1.692  1.00  0.00     0.168 C 
HETATM   34  C   UNL     1      39.223 -12.298  -1.444  1.00  0.00     0.029 C 
HETATM   35  C   UNL     1      40.719 -12.118  -1.371  1.00  0.00     0.044 C 
ENDBRANCH  28  31
ENDBRANCH   7  27
BRANCH   3  36
HETATM   36  C   UNL     1      42.842 -18.760   3.939  1.00  0.00     0.056 C 
HETATM   37  C   UNL     1      44.331 -18.672   3.479  1.00  0.00     0.012 C 
HETATM   38  C   UNL     1      44.631 -19.813   4.468  1.00  0.00     0.002 C 
HETATM   39  C   UNL     1      43.421 -19.309   5.277  1.00  0.00     0.012 C 
ENDBRANCH   3  36
TORSDOF 7
ENDMDL
MODEL 9
REMARK VINA RESULT:      -9.0      4.839      9.184
REMARK  7 active torsions:
REMARK  status: ('A' for Active; 'I' for Inactive)
REMARK    1  A    between atoms: C_3  and  C_4 
REMARK    2  A    between atoms: C_11  and  N_12 
REMARK       I    between atoms: N_12  and  C_13 
REMARK    3  A    between atoms: C_13  and  C_14 
REMARK    4  A    between atoms: C_21  and  C_22 
REMARK       I    between atoms: C_22  and  N_23 
REMARK    5  A    between atoms: N_23  and  C_24 
REMARK    6  A    between atoms: C_24  and  C_25 
REMARK    7  A    between atoms: C_25  and  C_26 
ROOT
HETATM    1  C   UNL     1      41.974 -16.726   5.227  1.00  0.00     0.158 C 
HETATM    2  N   UNL     1      42.197 -17.064   3.842  1.00  0.00    -0.335 N 
HETATM    3  C   UNL     1      42.788 -18.223   3.389  1.00  0.00     0.111 A 
HETATM    4  N   UNL     1      42.760 -18.283   2.078  1.00  0.00    -0.233 NA
HETATM    5  C   UNL     1      42.184 -17.114   1.662  1.00  0.00     0.089 A 
HETATM    6  C   UNL     1      41.819 -16.306   2.744  1.00  0.00     0.091 A 
HETATM    7  C   UNL     1      41.193 -15.051   2.560  1.00  0.00     0.065 A 
HETATM    8  C   UNL     1      40.987 -14.652   1.228  1.00  0.00     0.049 A 
HETATM    9  C   UNL     1      41.357 -15.454   0.140  1.00  0.00     0.036 A 
HETATM   10  C   UNL     1      41.955 -16.698   0.344  1.00  0.00     0.051 A 
ENDROOT
BRANCH   9  11
HETATM   11  C   UNL     1      41.141 -14.915  -1.228  1.00  0.00     0.251 C 
HETATM   12  N   UNL     1      40.409 -15.703  -2.098  1.00  0.00    -0.357 N 
HETATM   13  H   UNL     1      39.864 -16.459  -1.704  1.00  0.00     0.162 HD
HETATM   14  O   UNL     1      41.579 -13.809  -1.521  1.00  0.00    -0.268 OA
BRANCH  12  15
HETATM   15  C   UNL     1      39.986 -15.142  -3.370  1.00  0.00     0.127 C 
BRANCH  15  16
HETATM   16  C   UNL     1      38.493 -14.815  -3.410  1.00  0.00     0.060 C 
BRANCH  16  17
HETATM   17  C   UNL     1      38.211 -13.455  -2.850  1.00  0.00    -0.029 A 
HETATM   18  C   UNL     1      37.901 -13.141  -1.487  1.00  0.00    -0.002 A 
HETATM   19  C   UNL     1      37.664 -11.767  -1.416  1.00  0.00     0.042 A 
HETATM   20  C   UNL     1      37.785 -13.904  -0.306  1.00  0.00     0.014 A 
HETATM   21  C   UNL     1      37.314 -11.120  -0.224  1.00  0.00     0.030 A 
HETATM   22  N   UNL     1      37.834 -11.263  -2.683  1.00  0.00    -0.365 N 
HETATM   23  C   UNL     1      37.206 -11.900   0.930  1.00  0.00     0.002 A 
HETATM   24  C   UNL     1      37.439 -13.272   0.893  1.00  0.00     0.001 A 
HETATM   25  H   UNL     1      37.718 -10.290  -2.930  1.00  0.00     0.165 HD
HETATM   26  C   UNL     1      38.165 -12.267  -3.554  1.00  0.00     0.096 A 
ENDBRANCH  16  17
ENDBRANCH  15  16
ENDBRANCH  12  15
ENDBRANCH   9  11
BRANCH   7  27
HETATM   27  N   UNL     1      40.810 -14.249   3.651  1.00  0.00    -0.323 N 
HETATM   28  C   UNL     1      41.519 -13.216   4.249  1.00  0.00     0.251 C 
HETATM   29  O   UNL     1      42.628 -12.806   3.928  1.00  0.00    -0.270 OA
HETATM   30  H   UNL     1      39.916 -14.422   4.090  1.00  0.00     0.169 HD
BRANCH  28  31
HETATM   31  C   UNL     1      40.669 -12.509   5.323  1.00  0.00     0.213 C 
HETATM   32  O   UNL     1      40.982 -11.103   5.397  1.00  0.00    -0.376 OA
HETATM   33  C   UNL     1      39.769 -10.367   5.171  1.00  0.00     0.168 C 
HETATM   34  C   UNL     1      38.827 -11.307   4.453  1.00  0.00     0.029 C 
HETATM   35  C   UNL     1      39.172 -12.634   5.082  1.00  0.00     0.044 C 
ENDBRANCH  28  31
ENDBRANCH   7  27
BRANCH   3  36
HETATM   36  C   UNL     1      43.401 -19.331   4.245  1.00  0.00     0.056 C 
HETATM   37  C   UNL     1      44.306 -20.304   3.426  1.00  0.00     0.012 C 
HETATM   38  C   UNL     1      45.242 -20.350   4.647  1.00  0.00     0.002 C 
HETATM   39  C   UNL     1      44.713 -18.946   4.993  1.00  0.00     0.012 C 
ENDBRANCH   3  36
TORSDOF 7
ENDMDL
MODEL 10
REMARK VINA RESULT:      -8.9      3.544     10.043
REMARK  7 active torsions:
REMARK  status: ('A' for Active; 'I' for Inactive)
REMARK    1  A    between atoms: C_3  and  C_4 
REMARK    2  A    between atoms: C_11  and  N_12 
REMARK       I    between atoms: N_12  and  C_13 
REMARK    3  A    between atoms: C_13  and  C_14 
REMARK    4  A    between atoms: C_21  and  C_22 
REMARK       I    between atoms: C_22  and  N_23 
REMARK    5  A    between atoms: N_23  and  C_24 
REMARK    6  A    between atoms: C_24  and  C_25 
REMARK    7  A    between atoms: C_25  and  C_26 
ROOT
HETATM    1  C   UNL     1      43.051 -15.376   5.383  1.00  0.00     0.158 C 
HETATM    2  N   UNL     1      42.384 -15.649   4.133  1.00  0.00    -0.335 N 
HETATM    3  C   UNL     1      42.690 -16.682   3.274  1.00  0.00     0.111 A 
HETATM    4  N   UNL     1      41.843 -16.726   2.271  1.00  0.00    -0.233 NA
HETATM    5  C   UNL     1      40.997 -15.667   2.451  1.00  0.00     0.089 A 
HETATM    6  C   UNL     1      41.306 -14.951   3.612  1.00  0.00     0.091 A 
HETATM    7  C   UNL     1      40.557 -13.818   4.011  1.00  0.00     0.065 A 
HETATM    8  C   UNL     1      39.506 -13.440   3.159  1.00  0.00     0.049 A 
HETATM    9  C   UNL     1      39.196 -14.149   1.991  1.00  0.00     0.036 A 
HETATM   10  C   UNL     1      39.934 -15.275   1.625  1.00  0.00     0.051 A 
ENDROOT
BRANCH   9  11
HETATM   11  C   UNL     1      38.097 -13.634   1.133  1.00  0.00     0.251 C 
HETATM   12  N   UNL     1      38.192 -12.315   0.729  1.00  0.00    -0.357 N 
HETATM   13  H   UNL     1      39.089 -11.856   0.821  1.00  0.00     0.162 HD
HETATM   14  O   UNL     1      37.188 -14.382   0.796  1.00  0.00    -0.268 OA
BRANCH  12  15
HETATM   15  C   UNL     1      37.267 -11.818  -0.277  1.00  0.00     0.127 C 
BRANCH  15  16
HETATM   16  C   UNL     1      37.946 -11.516  -1.613  1.00  0.00     0.060 C 
BRANCH  16  17
HETATM   17  C   UNL     1      37.928 -12.706  -2.523  1.00  0.00    -0.029 A 
HETATM   18  C   UNL     1      38.893 -13.764  -2.561  1.00  0.00    -0.002 A 
HETATM   19  C   UNL     1      38.518 -14.637  -3.584  1.00  0.00     0.042 A 
HETATM   20  C   UNL     1      40.063 -14.053  -1.828  1.00  0.00     0.014 A 
HETATM   21  C   UNL     1      39.256 -15.781  -3.912  1.00  0.00     0.030 A 
HETATM   22  N   UNL     1      37.365 -14.135  -4.138  1.00  0.00    -0.365 N 
HETATM   23  C   UNL     1      40.412 -16.043  -3.170  1.00  0.00     0.002 A 
HETATM   24  C   UNL     1      40.811 -15.194  -2.141  1.00  0.00     0.001 A 
HETATM   25  H   UNL     1      36.870 -14.563  -4.909  1.00  0.00     0.165 HD
HETATM   26  C   UNL     1      36.999 -12.976  -3.508  1.00  0.00     0.096 A 
ENDBRANCH  16  17
ENDBRANCH  15  16
ENDBRANCH  12  15
ENDBRANCH   9  11
BRANCH   7  27
HETATM   27  N   UNL     1      40.859 -13.112   5.190  1.00  0.00    -0.323 N 
HETATM   28  C   UNL     1      41.263 -11.789   5.320  1.00  0.00     0.251 C 
HETATM   29  O   UNL     1      41.431 -10.982   4.413  1.00  0.00    -0.270 OA
HETATM   30  H   UNL     1      40.796 -13.595   6.076  1.00  0.00     0.169 HD
BRANCH  28  31
HETATM   31  C   UNL     1      41.347 -11.378   6.803  1.00  0.00     0.213 C 
HETATM   32  O   UNL     1      42.053 -10.130   6.962  1.00  0.00    -0.376 OA
HETATM   33  C   UNL     1      41.180  -9.212   7.640  1.00  0.00     0.168 C 
HETATM   34  C   UNL     1      39.774  -9.729   7.435  1.00  0.00     0.029 C 
HETATM   35  C   UNL     1      39.985 -11.222   7.461  1.00  0.00     0.044 C 
ENDBRANCH  28  31
ENDBRANCH   7  27
BRANCH   3  36
HETATM   36  C   UNL     1      43.837 -17.682   3.420  1.00  0.00     0.056 C 
HETATM   37  C   UNL     1      43.433 -18.958   4.223  1.00  0.00     0.012 C 
HETATM   38  C   UNL     1      44.312 -19.763   3.249  1.00  0.00     0.002 C 
HETATM   39  C   UNL     1      44.029 -18.654   2.218  1.00  0.00     0.012 C 
ENDBRANCH   3  36
TORSDOF 7
ENDMDL
