MODEL 1
REMARK VINA RESULT:      -9.5      0.000      0.000
REMARK  6 active torsions:
REMARK  status: ('A' for Active; 'I' for Inactive)
REMARK    1  A    between atoms: C_2  and  O_3 
REMARK    2  A    between atoms: C_2  and  C_4 
REMARK    3  A    between atoms: C_6  and  N_7 
REMARK       I    between atoms: N_7  and  C_8 
REMARK    4  A    between atoms: C_8  and  C_9 
REMARK    5  A    between atoms: C_12  and  C_13 
REMARK    6  A    between atoms: C_18  and  C_19 
ROOT
HETATM    1  C   UNL     1      42.975 -16.469   5.381  1.00  0.00     0.096 A 
HETATM    2  C   UNL     1      43.194 -16.934   4.098  1.00  0.00     0.138 A 
HETATM    3  N   UNL     1      41.952 -17.243   3.593  1.00  0.00    -0.240 N 
HETATM    4  C   UNL     1      41.716 -17.797   2.272  1.00  0.00     0.221 C 
HETATM    5  C   UNL     1      43.000 -17.726   1.417  1.00  0.00     0.066 C 
HETATM    6  C   UNL     1      44.244 -18.105   2.237  1.00  0.00     0.118 C 
HETATM    7  N   UNL     1      44.321 -17.153   3.361  1.00  0.00    -0.365 N 
HETATM    8  N   UNL     1      40.971 -17.162   4.505  1.00  0.00    -0.181 NA
HETATM    9  C   UNL     1      41.591 -16.676   5.584  1.00  0.00     0.160 A 
HETATM   10  H   UNL     1      45.220 -17.195   3.843  1.00  0.00     0.161 HD
ENDROOT
BRANCH   1  11
HETATM   11  C   UNL     1      43.929 -15.947   6.342  1.00  0.00     0.261 C 
HETATM   12  N   UNL     1      43.855 -14.574   6.483  1.00  0.00    -0.323 N 
HETATM   13  H   UNL     1      43.079 -14.131   6.002  1.00  0.00     0.169 HD
HETATM   14  O   UNL     1      44.661 -16.703   6.971  1.00  0.00    -0.267 OA
BRANCH  12  15
HETATM   15  C   UNL     1      44.635 -13.751   7.315  1.00  0.00     0.035 A 
HETATM   16  C   UNL     1      44.241 -13.343   8.592  1.00  0.00     0.039 A 
HETATM   17  C   UNL     1      45.071 -12.525   9.383  1.00  0.00    -0.028 A 
HETATM   18  C   UNL     1      46.309 -12.122   8.867  1.00  0.00     0.010 A 
HETATM   19  C   UNL     1      46.711 -12.524   7.595  1.00  0.00     0.003 A 
HETATM   20  C   UNL     1      45.881 -13.342   6.826  1.00  0.00     0.029 A 
BRANCH  17  21
HETATM   21  C   UNL     1      44.628 -12.144  10.779  1.00  0.00     0.147 C 
HETATM   22  C   UNL     1      43.480 -11.142  10.738  1.00  0.00     0.044 C 
BRANCH  21  23
HETATM   23  O   UNL     1      44.207 -13.300  11.500  1.00  0.00    -0.391 OA
HETATM   24  H   UNL     1      44.163 -14.031  10.861  1.00  0.00     0.210 HD
ENDBRANCH  21  23
ENDBRANCH  17  21
ENDBRANCH  12  15
ENDBRANCH   1  11
BRANCH   4  25
HETATM   25  C   UNL     1      40.600 -17.066   1.560  1.00  0.00     0.409 C 
HETATM   26  F   UNL     1      39.368 -17.388   2.000  1.00  0.00    -0.169 F 
HETATM   27  F   UNL     1      40.739 -15.722   1.631  1.00  0.00    -0.169 F 
HETATM   28  F   UNL     1      40.622 -17.384   0.236  1.00  0.00    -0.169 F 
ENDBRANCH   4  25
BRANCH   6  29
HETATM   29  C   UNL     1      44.295 -19.569   2.675  1.00  0.00    -0.035 A 
HETATM   30  C   UNL     1      43.936 -20.590   1.774  1.00  0.00     0.009 A 
HETATM   31  C   UNL     1      43.971 -21.936   2.148  1.00  0.00     0.001 A 
HETATM   32  C   UNL     1      44.392 -22.295   3.423  1.00  0.00     0.000 A 
HETATM   33  C   UNL     1      44.785 -21.309   4.321  1.00  0.00     0.001 A 
HETATM   34  C   UNL     1      44.742 -19.962   3.949  1.00  0.00     0.009 A 
ENDBRANCH   6  29
TORSDOF 6
ENDMDL
MODEL 2
REMARK VINA RESULT:      -9.4      4.667      8.440
REMARK  6 active torsions:
REMARK  status: ('A' for Active; 'I' for Inactive)
REMARK    1  A    between atoms: C_2  and  O_3 
REMARK    2  A    between atoms: C_2  and  C_4 
REMARK    3  A    between atoms: C_6  and  N_7 
REMARK       I    between atoms: N_7  and  C_8 
REMARK    4  A    between atoms: C_8  and  C_9 
REMARK    5  A    between atoms: C_12  and  C_13 
REMARK    6  A    between atoms: C_18  and  C_19 
ROOT
HETATM    1  C   UNL     1      41.472 -14.757   2.623  1.00  0.00     0.096 A 
HETATM    2  C   UNL     1      41.738 -15.565   3.712  1.00  0.00     0.138 A 
HETATM    3  N   UNL     1      42.890 -15.068   4.276  1.00  0.00    -0.240 N 
HETATM    4  C   UNL     1      43.549 -15.639   5.438  1.00  0.00     0.221 C 
HETATM    5  C   UNL     1      42.642 -16.688   6.115  1.00  0.00     0.066 C 
HETATM    6  C   UNL     1      41.934 -17.575   5.076  1.00  0.00     0.118 C 
HETATM    7  N   UNL     1      41.134 -16.676   4.223  1.00  0.00    -0.365 N 
HETATM    8  N   UNL     1      43.469 -14.104   3.544  1.00  0.00    -0.181 NA
HETATM    9  C   UNL     1      42.599 -13.905   2.550  1.00  0.00     0.160 A 
HETATM   10  H   UNL     1      40.472 -17.187   3.637  1.00  0.00     0.161 HD
ENDROOT
BRANCH   1  11
HETATM   11  C   UNL     1      40.345 -14.792   1.709  1.00  0.00     0.261 C 
HETATM   12  N   UNL     1      40.540 -14.012   0.584  1.00  0.00    -0.323 N 
HETATM   13  H   UNL     1      41.473 -13.624   0.483  1.00  0.00     0.169 HD
HETATM   14  O   UNL     1      39.372 -15.501   1.940  1.00  0.00    -0.267 OA
BRANCH  12  15
HETATM   15  C   UNL     1      39.654 -13.812  -0.489  1.00  0.00     0.035 A 
HETATM   16  C   UNL     1      39.731 -14.506  -1.699  1.00  0.00     0.039 A 
HETATM   17  C   UNL     1      38.807 -14.269  -2.735  1.00  0.00    -0.028 A 
HETATM   18  C   UNL     1      37.798 -13.319  -2.534  1.00  0.00     0.010 A 
HETATM   19  C   UNL     1      37.712 -12.621  -1.330  1.00  0.00     0.003 A 
HETATM   20  C   UNL     1      38.631 -12.874  -0.309  1.00  0.00     0.029 A 
BRANCH  17  21
HETATM   21  C   UNL     1      38.898 -15.075  -4.012  1.00  0.00     0.147 C 
HETATM   22  C   UNL     1      39.415 -16.484  -3.739  1.00  0.00     0.044 C 
BRANCH  21  23
HETATM   23  O   UNL     1      37.618 -15.165  -4.636  1.00  0.00    -0.391 OA
HETATM   24  H   UNL     1      37.731 -14.872  -5.556  1.00  0.00     0.210 HD
ENDBRANCH  21  23
ENDBRANCH  17  21
ENDBRANCH  12  15
ENDBRANCH   1  11
BRANCH   4  25
HETATM   25  C   UNL     1      43.915 -14.571   6.443  1.00  0.00     0.409 C 
HETATM   26  F   UNL     1      45.115 -14.000   6.223  1.00  0.00    -0.169 F 
HETATM   27  F   UNL     1      42.984 -13.590   6.512  1.00  0.00    -0.169 F 
HETATM   28  F   UNL     1      43.982 -15.122   7.687  1.00  0.00    -0.169 F 
ENDBRANCH   4  25
BRANCH   6  29
HETATM   29  C   UNL     1      42.864 -18.495   4.285  1.00  0.00    -0.035 A 
HETATM   30  C   UNL     1      43.849 -19.249   4.953  1.00  0.00     0.009 A 
HETATM   31  C   UNL     1      44.714 -20.096   4.255  1.00  0.00     0.001 A 
HETATM   32  C   UNL     1      44.598 -20.231   2.877  1.00  0.00     0.000 A 
HETATM   33  C   UNL     1      43.612 -19.523   2.197  1.00  0.00     0.001 A 
HETATM   34  C   UNL     1      42.752 -18.670   2.894  1.00  0.00     0.009 A 
ENDBRANCH   6  29
TORSDOF 6
ENDMDL
MODEL 3
REMARK VINA RESULT:      -9.1      4.687      8.252
REMARK  6 active torsions:
REMARK  status: ('A' for Active; 'I' for Inactive)
REMARK    1  A    between atoms: C_2  and  O_3 
REMARK    2  A    between atoms: C_2  and  C_4 
REMARK    3  A    between atoms: C_6  and  N_7 
REMARK       I    between atoms: N_7  and  C_8 
REMARK    4  A    between atoms: C_8  and  C_9 
REMARK    5  A    between atoms: C_12  and  C_13 
REMARK    6  A    between atoms: C_18  and  C_19 
ROOT
HETATM    1  C   UNL     1      41.726 -14.986   2.345  1.00  0.00     0.096 A 
HETATM    2  C   UNL     1      41.883 -15.761   3.478  1.00  0.00     0.138 A 
HETATM    3  N   UNL     1      42.968 -15.239   4.144  1.00  0.00    -0.240 N 
HETATM    4  C   UNL     1      43.506 -15.772   5.383  1.00  0.00     0.221 C 
HETATM    5  C   UNL     1      42.539 -16.810   5.993  1.00  0.00     0.066 C 
HETATM    6  C   UNL     1      41.947 -17.731   4.912  1.00  0.00     0.118 C 
HETATM    7  N   UNL     1      41.235 -16.863   3.956  1.00  0.00    -0.365 N 
HETATM    8  N   UNL     1      43.614 -14.291   3.448  1.00  0.00    -0.181 NA
HETATM    9  C   UNL     1      42.850 -14.127   2.365  1.00  0.00     0.160 A 
HETATM   10  H   UNL     1      40.639 -17.395   3.319  1.00  0.00     0.161 HD
ENDROOT
BRANCH   1  11
HETATM   11  C   UNL     1      40.700 -15.056   1.321  1.00  0.00     0.261 C 
HETATM   12  N   UNL     1      41.188 -14.801   0.052  1.00  0.00    -0.323 N 
HETATM   13  H   UNL     1      42.198 -14.723  -0.015  1.00  0.00     0.169 HD
HETATM   14  O   UNL     1      39.549 -15.366   1.606  1.00  0.00    -0.267 OA
BRANCH  12  15
HETATM   15  C   UNL     1      40.470 -14.777  -1.157  1.00  0.00     0.035 A 
HETATM   16  C   UNL     1      39.422 -13.891  -1.419  1.00  0.00     0.039 A 
HETATM   17  C   UNL     1      38.747 -13.908  -2.655  1.00  0.00    -0.028 A 
HETATM   18  C   UNL     1      39.145 -14.833  -3.628  1.00  0.00     0.010 A 
HETATM   19  C   UNL     1      40.190 -15.721  -3.376  1.00  0.00     0.003 A 
HETATM   20  C   UNL     1      40.855 -15.685  -2.149  1.00  0.00     0.029 A 
BRANCH  17  21
HETATM   21  C   UNL     1      37.648 -12.901  -2.917  1.00  0.00     0.147 C 
HETATM   22  C   UNL     1      37.992 -11.542  -2.318  1.00  0.00     0.044 C 
BRANCH  21  23
HETATM   23  O   UNL     1      37.437 -12.749  -4.319  1.00  0.00    -0.391 OA
HETATM   24  H   UNL     1      37.759 -11.864  -4.558  1.00  0.00     0.210 HD
ENDBRANCH  21  23
ENDBRANCH  17  21
ENDBRANCH  12  15
ENDBRANCH   1  11
BRANCH   4  25
HETATM   25  C   UNL     1      43.759 -14.673   6.390  1.00  0.00     0.409 C 
HETATM   26  F   UNL     1      42.816 -13.711   6.398  1.00  0.00    -0.169 F 
HETATM   27  F   UNL     1      43.889 -15.150   7.650  1.00  0.00    -0.169 F 
HETATM   28  F   UNL     1      44.932 -14.048   6.095  1.00  0.00    -0.169 F 
ENDBRANCH   4  25
BRANCH   6  29
HETATM   29  C   UNL     1      42.959 -18.664   4.249  1.00  0.00    -0.035 A 
HETATM   30  C   UNL     1      42.931 -18.862   2.854  1.00  0.00     0.009 A 
HETATM   31  C   UNL     1      43.843 -19.712   2.221  1.00  0.00     0.001 A 
HETATM   32  C   UNL     1      44.822 -20.362   2.963  1.00  0.00     0.000 A 
HETATM   33  C   UNL     1      44.893 -20.158   4.337  1.00  0.00     0.001 A 
HETATM   34  C   UNL     1      43.976 -19.314   4.971  1.00  0.00     0.009 A 
ENDBRANCH   6  29
TORSDOF 6
ENDMDL
MODEL 4
REMARK VINA RESULT:      -8.9      5.697      7.945
REMARK  6 active torsions:
REMARK  status: ('A' for Active; 'I' for Inactive)
REMARK    1  A    between atoms: C_2  and  O_3 
REMARK    2  A    between atoms: C_2  and  C_4 
REMARK    3  A    between atoms: C_6  and  N_7 
REMARK       I    between atoms: N_7  and  C_8 
REMARK    4  A    between atoms: C_8  and  C_9 
REMARK    5  A    between atoms: C_12  and  C_13 
REMARK    6  A    between atoms: C_18  and  C_19 
ROOT
HETATM    1  C   UNL     1      41.558 -16.570   1.463  1.00  0.00     0.096 A 
HETATM    2  C   UNL     1      41.421 -15.419   0.711  1.00  0.00     0.138 A 
HETATM    3  N   UNL     1      40.313 -14.774   1.209  1.00  0.00    -0.240 N 
HETATM    4  C   UNL     1      39.785 -13.525   0.688  1.00  0.00     0.221 C 
HETATM    5  C   UNL     1      40.785 -12.884  -0.298  1.00  0.00     0.066 C 
HETATM    6  C   UNL     1      41.418 -13.937  -1.223  1.00  0.00     0.118 C 
HETATM    7  N   UNL     1      42.105 -14.910  -0.354  1.00  0.00    -0.365 N 
HETATM    8  N   UNL     1      39.638 -15.497   2.116  1.00  0.00    -0.181 NA
HETATM    9  C   UNL     1      40.403 -16.580   2.281  1.00  0.00     0.160 A 
HETATM   10  H   UNL     1      42.724 -15.530  -0.879  1.00  0.00     0.161 HD
ENDROOT
BRANCH   1  11
HETATM   11  C   UNL     1      42.593 -17.586   1.406  1.00  0.00     0.261 C 
HETATM   12  N   UNL     1      42.346 -18.654   2.248  1.00  0.00    -0.323 N 
HETATM   13  H   UNL     1      41.434 -18.652   2.695  1.00  0.00     0.169 HD
HETATM   14  O   UNL     1      43.537 -17.476   0.631  1.00  0.00    -0.267 OA
BRANCH  12  15
HETATM   15  C   UNL     1      43.143 -19.796   2.447  1.00  0.00     0.035 A 
HETATM   16  C   UNL     1      43.779 -20.098   3.653  1.00  0.00     0.039 A 
HETATM   17  C   UNL     1      44.557 -21.263   3.795  1.00  0.00    -0.028 A 
HETATM   18  C   UNL     1      44.685 -22.125   2.698  1.00  0.00     0.010 A 
HETATM   19  C   UNL     1      44.053 -21.833   1.490  1.00  0.00     0.003 A 
HETATM   20  C   UNL     1      43.279 -20.678   1.369  1.00  0.00     0.029 A 
BRANCH  17  21
HETATM   21  C   UNL     1      45.191 -21.577   5.132  1.00  0.00     0.147 C 
HETATM   22  C   UNL     1      44.241 -21.258   6.281  1.00  0.00     0.044 C 
BRANCH  21  23
HETATM   23  O   UNL     1      45.552 -22.956   5.200  1.00  0.00    -0.391 OA
HETATM   24  H   UNL     1      44.771 -23.436   5.523  1.00  0.00     0.210 HD
ENDBRANCH  21  23
ENDBRANCH  17  21
ENDBRANCH  12  15
ENDBRANCH   1  11
BRANCH   4  25
HETATM   25  C   UNL     1      39.484 -12.547   1.801  1.00  0.00     0.409 C 
HETATM   26  F   UNL     1      38.211 -12.592   2.239  1.00  0.00    -0.169 F 
HETATM   27  F   UNL     1      40.305 -12.712   2.865  1.00  0.00    -0.169 F 
HETATM   28  F   UNL     1      39.686 -11.276   1.356  1.00  0.00    -0.169 F 
ENDBRANCH   4  25
BRANCH   6  29
HETATM   29  C   UNL     1      40.445 -14.584  -2.210  1.00  0.00    -0.035 A 
HETATM   30  C   UNL     1      40.699 -15.876  -2.708  1.00  0.00     0.009 A 
HETATM   31  C   UNL     1      39.828 -16.491  -3.613  1.00  0.00     0.001 A 
HETATM   32  C   UNL     1      38.670 -15.839  -4.019  1.00  0.00     0.000 A 
HETATM   33  C   UNL     1      38.378 -14.576  -3.515  1.00  0.00     0.001 A 
HETATM   34  C   UNL     1      39.253 -13.959  -2.617  1.00  0.00     0.009 A 
ENDBRANCH   6  29
TORSDOF 6
ENDMDL
MODEL 5
REMARK VINA RESULT:      -8.8      4.810      7.966
REMARK  6 active torsions:
REMARK  status: ('A' for Active; 'I' for Inactive)
REMARK    1  A    between atoms: C_2  and  O_3 
REMARK    2  A    between atoms: C_2  and  C_4 
REMARK    3  A    between atoms: C_6  and  N_7 
REMARK       I    between atoms: N_7  and  C_8 
REMARK    4  A    between atoms: C_8  and  C_9 
REMARK    5  A    between atoms: C_12  and  C_13 
REMARK    6  A    between atoms: C_18  and  C_19 
ROOT
HETATM    1  C   UNL     1      40.963 -15.569   1.581  1.00  0.00     0.096 A 
HETATM    2  C   UNL     1      40.761 -14.582   0.636  1.00  0.00     0.138 A 
HETATM    3  N   UNL     1      39.527 -14.041   0.914  1.00  0.00    -0.240 N 
HETATM    4  C   UNL     1      38.901 -12.981   0.144  1.00  0.00     0.221 C 
HETATM    5  C   UNL     1      39.912 -12.357  -0.842  1.00  0.00     0.066 C 
HETATM    6  C   UNL     1      40.781 -13.434  -1.514  1.00  0.00     0.118 C 
HETATM    7  N   UNL     1      41.488 -14.147  -0.434  1.00  0.00    -0.365 N 
HETATM    8  N   UNL     1      38.856 -14.708   1.866  1.00  0.00    -0.181 NA
HETATM    9  C   UNL     1      39.734 -15.625   2.280  1.00  0.00     0.160 A 
HETATM   10  H   UNL     1      42.240 -14.740  -0.788  1.00  0.00     0.161 HD
ENDROOT
BRANCH   1  11
HETATM   11  C   UNL     1      42.125 -16.414   1.791  1.00  0.00     0.261 C 
HETATM   12  N   UNL     1      42.008 -17.222   2.907  1.00  0.00    -0.323 N 
HETATM   13  H   UNL     1      41.097 -17.212   3.355  1.00  0.00     0.169 HD
HETATM   14  O   UNL     1      43.057 -16.406   0.995  1.00  0.00    -0.267 OA
BRANCH  12  15
HETATM   15  C   UNL     1      42.945 -18.145   3.403  1.00  0.00     0.035 A 
HETATM   16  C   UNL     1      43.249 -19.356   2.775  1.00  0.00     0.039 A 
HETATM   17  C   UNL     1      44.206 -20.236   3.315  1.00  0.00    -0.028 A 
HETATM   18  C   UNL     1      44.856 -19.879   4.503  1.00  0.00     0.010 A 
HETATM   19  C   UNL     1      44.560 -18.673   5.137  1.00  0.00     0.003 A 
HETATM   20  C   UNL     1      43.615 -17.807   4.584  1.00  0.00     0.029 A 
BRANCH  17  21
HETATM   21  C   UNL     1      44.540 -21.516   2.579  1.00  0.00     0.147 C 
HETATM   22  C   UNL     1      44.644 -22.694   3.542  1.00  0.00     0.044 C 
BRANCH  21  23
HETATM   23  O   UNL     1      43.540 -21.804   1.604  1.00  0.00    -0.391 OA
HETATM   24  H   UNL     1      43.969 -21.748   0.734  1.00  0.00     0.210 HD
ENDBRANCH  21  23
ENDBRANCH  17  21
ENDBRANCH  12  15
ENDBRANCH   1  11
BRANCH   4  25
HETATM   25  C   UNL     1      38.347 -11.900   1.043  1.00  0.00     0.409 C 
HETATM   26  F   UNL     1      39.001 -11.776   2.215  1.00  0.00    -0.169 F 
HETATM   27  F   UNL     1      38.326 -10.689   0.439  1.00  0.00    -0.169 F 
HETATM   28  F   UNL     1      37.056 -12.191   1.362  1.00  0.00    -0.169 F 
ENDBRANCH   4  25
BRANCH   6  29
HETATM   29  C   UNL     1      40.022 -14.364  -2.461  1.00  0.00    -0.035 A 
HETATM   30  C   UNL     1      40.555 -15.626  -2.790  1.00  0.00     0.009 A 
HETATM   31  C   UNL     1      39.883 -16.496  -3.654  1.00  0.00     0.001 A 
HETATM   32  C   UNL     1      38.651 -16.136  -4.188  1.00  0.00     0.000 A 
HETATM   33  C   UNL     1      38.087 -14.910  -3.852  1.00  0.00     0.001 A 
HETATM   34  C   UNL     1      38.763 -14.037  -2.994  1.00  0.00     0.009 A 
ENDBRANCH   6  29
TORSDOF 6
ENDMDL
MODEL 6
REMARK VINA RESULT:      -8.6      5.020      8.195
REMARK  6 active torsions:
REMARK  status: ('A' for Active; 'I' for Inactive)
REMARK    1  A    between atoms: C_2  and  O_3 
REMARK    2  A    between atoms: C_2  and  C_4 
REMARK    3  A    between atoms: C_6  and  N_7 
REMARK       I    between atoms: N_7  and  C_8 
REMARK    4  A    between atoms: C_8  and  C_9 
REMARK    5  A    between atoms: C_12  and  C_13 
REMARK    6  A    between atoms: C_18  and  C_19 
ROOT
HETATM    1  C   UNL     1      41.534 -14.456   0.604  1.00  0.00     0.096 A 
HETATM    2  C   UNL     1      41.677 -14.120  -0.728  1.00  0.00     0.138 A 
HETATM    3  N   UNL     1      41.599 -12.747  -0.781  1.00  0.00    -0.240 N 
HETATM    4  C   UNL     1      41.673 -11.966  -2.003  1.00  0.00     0.221 C 
HETATM    5  C   UNL     1      42.130 -12.847  -3.184  1.00  0.00     0.066 C 
HETATM    6  C   UNL     1      41.451 -14.227  -3.153  1.00  0.00     0.118 C 
HETATM    7  N   UNL     1      41.819 -14.854  -1.869  1.00  0.00    -0.365 N 
HETATM    8  N   UNL     1      41.260 -12.188   0.391  1.00  0.00    -0.181 NA
HETATM    9  C   UNL     1      41.236 -13.224   1.233  1.00  0.00     0.160 A 
HETATM   10  H   UNL     1      41.585 -15.849  -1.843  1.00  0.00     0.161 HD
ENDROOT
BRANCH   1  11
HETATM   11  C   UNL     1      41.599 -15.763   1.232  1.00  0.00     0.261 C 
HETATM   12  N   UNL     1      42.873 -16.094   1.655  1.00  0.00    -0.323 N 
HETATM   13  H   UNL     1      43.559 -15.348   1.587  1.00  0.00     0.169 HD
HETATM   14  O   UNL     1      40.585 -16.433   1.391  1.00  0.00    -0.267 OA
BRANCH  12  15
HETATM   15  C   UNL     1      43.289 -17.278   2.288  1.00  0.00     0.035 A 
HETATM   16  C   UNL     1      43.502 -17.390   3.665  1.00  0.00     0.039 A 
HETATM   17  C   UNL     1      43.910 -18.608   4.242  1.00  0.00    -0.028 A 
HETATM   18  C   UNL     1      44.101 -19.717   3.410  1.00  0.00     0.010 A 
HETATM   19  C   UNL     1      43.891 -19.617   2.036  1.00  0.00     0.003 A 
HETATM   20  C   UNL     1      43.478 -18.405   1.480  1.00  0.00     0.029 A 
BRANCH  17  21
HETATM   21  C   UNL     1      44.084 -18.698   5.742  1.00  0.00     0.147 C 
HETATM   22  C   UNL     1      44.039 -20.147   6.216  1.00  0.00     0.044 C 
BRANCH  21  23
HETATM   23  O   UNL     1      45.330 -18.123   6.134  1.00  0.00    -0.391 OA
HETATM   24  H   UNL     1      45.124 -17.305   6.616  1.00  0.00     0.210 HD
ENDBRANCH  21  23
ENDBRANCH  17  21
ENDBRANCH  12  15
ENDBRANCH   1  11
BRANCH   4  25
HETATM   25  C   UNL     1      42.624 -10.799  -1.853  1.00  0.00     0.409 C 
HETATM   26  F   UNL     1      43.088 -10.318  -3.023  1.00  0.00    -0.169 F 
HETATM   27  F   UNL     1      42.074  -9.774  -1.160  1.00  0.00    -0.169 F 
HETATM   28  F   UNL     1      43.719 -11.194  -1.147  1.00  0.00    -0.169 F 
ENDBRANCH   4  25
BRANCH   6  29
HETATM   29  C   UNL     1      39.943 -14.199  -3.406  1.00  0.00    -0.035 A 
HETATM   30  C   UNL     1      39.247 -15.397  -3.657  1.00  0.00     0.009 A 
HETATM   31  C   UNL     1      37.869 -15.401  -3.894  1.00  0.00     0.001 A 
HETATM   32  C   UNL     1      37.151 -14.211  -3.858  1.00  0.00     0.000 A 
HETATM   33  C   UNL     1      37.810 -13.018  -3.579  1.00  0.00     0.001 A 
HETATM   34  C   UNL     1      39.189 -13.014  -3.350  1.00  0.00     0.009 A 
ENDBRANCH   6  29
TORSDOF 6
ENDMDL
MODEL 7
REMARK VINA RESULT:      -8.5      5.170      8.744
REMARK  6 active torsions:
REMARK  status: ('A' for Active; 'I' for Inactive)
REMARK    1  A    between atoms: C_2  and  O_3 
REMARK    2  A    between atoms: C_2  and  C_4 
REMARK    3  A    between atoms: C_6  and  N_7 
REMARK       I    between atoms: N_7  and  C_8 
REMARK    4  A    between atoms: C_8  and  C_9 
REMARK    5  A    between atoms: C_12  and  C_13 
REMARK    6  A    between atoms: C_18  and  C_19 
ROOT
HETATM    1  C   UNL     1      41.477 -14.530   0.641  1.00  0.00     0.096 A 
HETATM    2  C   UNL     1      41.631 -14.213  -0.695  1.00  0.00     0.138 A 
HETATM    3  N   UNL     1      41.560 -12.840  -0.767  1.00  0.00    -0.240 N 
HETATM    4  C   UNL     1      41.645 -12.076  -1.998  1.00  0.00     0.221 C 
HETATM    5  C   UNL     1      42.105 -12.976  -3.165  1.00  0.00     0.066 C 
HETATM    6  C   UNL     1      41.418 -14.351  -3.119  1.00  0.00     0.118 C 
HETATM    7  N   UNL     1      41.775 -14.963  -1.826  1.00  0.00    -0.365 N 
HETATM    8  N   UNL     1      41.217 -12.264   0.396  1.00  0.00    -0.181 NA
HETATM    9  C   UNL     1      41.182 -13.288   1.251  1.00  0.00     0.160 A 
HETATM   10  H   UNL     1      41.537 -15.956  -1.787  1.00  0.00     0.161 HD
ENDROOT
BRANCH   1  11
HETATM   11  C   UNL     1      41.532 -15.829   1.287  1.00  0.00     0.261 C 
HETATM   12  N   UNL     1      42.801 -16.159   1.724  1.00  0.00    -0.323 N 
HETATM   13  H   UNL     1      43.491 -15.418   1.651  1.00  0.00     0.169 HD
HETATM   14  O   UNL     1      40.514 -16.492   1.447  1.00  0.00    -0.267 OA
BRANCH  12  15
HETATM   15  C   UNL     1      43.208 -17.337   2.375  1.00  0.00     0.035 A 
HETATM   16  C   UNL     1      43.261 -18.588   1.755  1.00  0.00     0.039 A 
HETATM   17  C   UNL     1      43.687 -19.732   2.457  1.00  0.00    -0.028 A 
HETATM   18  C   UNL     1      44.060 -19.597   3.801  1.00  0.00     0.010 A 
HETATM   19  C   UNL     1      44.010 -18.354   4.428  1.00  0.00     0.003 A 
HETATM   20  C   UNL     1      43.594 -17.228   3.715  1.00  0.00     0.029 A 
BRANCH  17  21
HETATM   21  C   UNL     1      43.775 -21.059   1.736  1.00  0.00     0.147 C 
HETATM   22  C   UNL     1      44.641 -22.049   2.507  1.00  0.00     0.044 C 
BRANCH  21  23
HETATM   23  O   UNL     1      42.474 -21.619   1.564  1.00  0.00    -0.391 OA
HETATM   24  H   UNL     1      41.852 -20.875   1.507  1.00  0.00     0.210 HD
ENDBRANCH  21  23
ENDBRANCH  17  21
ENDBRANCH  12  15
ENDBRANCH   1  11
BRANCH   4  25
HETATM   25  C   UNL     1      42.601 -10.912  -1.858  1.00  0.00     0.409 C 
HETATM   26  F   UNL     1      43.079 -10.453  -3.032  1.00  0.00    -0.169 F 
HETATM   27  F   UNL     1      42.051  -9.873  -1.188  1.00  0.00    -0.169 F 
HETATM   28  F   UNL     1      43.687 -11.302  -1.136  1.00  0.00    -0.169 F 
ENDBRANCH   4  25
BRANCH   6  29
HETATM   29  C   UNL     1      39.913 -14.319  -3.382  1.00  0.00    -0.035 A 
HETATM   30  C   UNL     1      39.223 -13.091  -3.395  1.00  0.00     0.009 A 
HETATM   31  C   UNL     1      37.846 -13.033  -3.631  1.00  0.00     0.001 A 
HETATM   32  C   UNL     1      37.132 -14.198  -3.886  1.00  0.00     0.000 A 
HETATM   33  C   UNL     1      37.795 -15.420  -3.913  1.00  0.00     0.001 A 
HETATM   34  C   UNL     1      39.170 -15.479  -3.669  1.00  0.00     0.009 A 
ENDBRANCH   6  29
TORSDOF 6
ENDMDL
MODEL 8
REMARK VINA RESULT:      -8.5      4.856      7.854
REMARK  6 active torsions:
REMARK  status: ('A' for Active; 'I' for Inactive)
REMARK    1  A    between atoms: C_2  and  O_3 
REMARK    2  A    between atoms: C_2  and  C_4 
REMARK    3  A    between atoms: C_6  and  N_7 
REMARK       I    between atoms: N_7  and  C_8 
REMARK    4  A    between atoms: C_8  and  C_9 
REMARK    5  A    between atoms: C_12  and  C_13 
REMARK    6  A    between atoms: C_18  and  C_19 
ROOT
HETATM    1  C   UNL     1      41.497 -14.668   2.774  1.00  0.00     0.096 A 
HETATM    2  C   UNL     1      41.769 -15.498   3.845  1.00  0.00     0.138 A 
HETATM    3  N   UNL     1      42.944 -15.035   4.390  1.00  0.00    -0.240 N 
HETATM    4  C   UNL     1      43.616 -15.637   5.528  1.00  0.00     0.221 C 
HETATM    5  C   UNL     1      42.700 -16.676   6.211  1.00  0.00     0.066 C 
HETATM    6  C   UNL     1      41.950 -17.532   5.175  1.00  0.00     0.118 C 
HETATM    7  N   UNL     1      41.152 -16.603   4.353  1.00  0.00    -0.365 N 
HETATM    8  N   UNL     1      43.528 -14.072   3.659  1.00  0.00    -0.181 NA
HETATM    9  C   UNL     1      42.641 -13.840   2.688  1.00  0.00     0.160 A 
HETATM   10  H   UNL     1      40.466 -17.090   3.774  1.00  0.00     0.161 HD
ENDROOT
BRANCH   1  11
HETATM   11  C   UNL     1      40.349 -14.665   1.885  1.00  0.00     0.261 C 
HETATM   12  N   UNL     1      40.278 -13.526   1.103  1.00  0.00    -0.323 N 
HETATM   13  H   UNL     1      41.083 -12.911   1.160  1.00  0.00     0.169 HD
HETATM   14  O   UNL     1      39.589 -15.625   1.839  1.00  0.00    -0.267 OA
BRANCH  12  15
HETATM   15  C   UNL     1      39.297 -13.197   0.151  1.00  0.00     0.035 A 
HETATM   16  C   UNL     1      38.222 -12.342   0.407  1.00  0.00     0.039 A 
HETATM   17  C   UNL     1      37.276 -12.041  -0.592  1.00  0.00    -0.028 A 
HETATM   18  C   UNL     1      37.430 -12.616  -1.860  1.00  0.00     0.010 A 
HETATM   19  C   UNL     1      38.500 -13.469  -2.126  1.00  0.00     0.003 A 
HETATM   20  C   UNL     1      39.433 -13.750  -1.127  1.00  0.00     0.029 A 
BRANCH  17  21
HETATM   21  C   UNL     1      36.153 -11.075  -0.287  1.00  0.00     0.147 C 
HETATM   22  C   UNL     1      35.336 -10.767  -1.537  1.00  0.00     0.044 C 
BRANCH  21  23
HETATM   23  O   UNL     1      35.287 -11.617   0.709  1.00  0.00    -0.391 OA
HETATM   24  H   UNL     1      35.815 -12.246   1.229  1.00  0.00     0.210 HD
ENDBRANCH  21  23
ENDBRANCH  17  21
ENDBRANCH  12  15
ENDBRANCH   1  11
BRANCH   4  25
HETATM   25  C   UNL     1      44.026 -14.592   6.541  1.00  0.00     0.409 C 
HETATM   26  F   UNL     1      44.117 -15.059   7.802  1.00  0.00    -0.169 F 
HETATM   27  F   UNL     1      45.201 -14.001   6.222  1.00  0.00    -0.169 F 
HETATM   28  F   UNL     1      43.094 -13.600   6.572  1.00  0.00    -0.169 F 
ENDBRANCH   4  25
BRANCH   6  29
HETATM   29  C   UNL     1      42.843 -18.460   4.351  1.00  0.00    -0.035 A 
HETATM   30  C   UNL     1      42.673 -18.547   2.955  1.00  0.00     0.009 A 
HETATM   31  C   UNL     1      43.474 -19.389   2.177  1.00  0.00     0.001 A 
HETATM   32  C   UNL     1      44.479 -20.142   2.772  1.00  0.00     0.000 A 
HETATM   33  C   UNL     1      44.689 -20.048   4.143  1.00  0.00     0.001 A 
HETATM   34  C   UNL     1      43.884 -19.213   4.922  1.00  0.00     0.009 A 
ENDBRANCH   6  29
TORSDOF 6
ENDMDL
MODEL 9
REMARK VINA RESULT:      -8.5      4.776      8.507
REMARK  6 active torsions:
REMARK  status: ('A' for Active; 'I' for Inactive)
REMARK    1  A    between atoms: C_2  and  O_3 
REMARK    2  A    between atoms: C_2  and  C_4 
REMARK    3  A    between atoms: C_6  and  N_7 
REMARK       I    between atoms: N_7  and  C_8 
REMARK    4  A    between atoms: C_8  and  C_9 
REMARK    5  A    between atoms: C_12  and  C_13 
REMARK    6  A    between atoms: C_18  and  C_19 
ROOT
HETATM    1  C   UNL     1      41.099 -15.725   0.911  1.00  0.00     0.096 A 
HETATM    2  C   UNL     1      39.901 -15.076   0.682  1.00  0.00     0.138 A 
HETATM    3  N   UNL     1      40.090 -14.326  -0.456  1.00  0.00    -0.240 N 
HETATM    4  C   UNL     1      39.086 -13.457  -1.045  1.00  0.00     0.221 C 
HETATM    5  C   UNL     1      37.708 -13.703  -0.396  1.00  0.00     0.066 C 
HETATM    6  C   UNL     1      37.826 -13.878   1.128  1.00  0.00     0.118 C 
HETATM    7  N   UNL     1      38.716 -15.031   1.358  1.00  0.00    -0.365 N 
HETATM    8  N   UNL     1      41.362 -14.321  -0.885  1.00  0.00    -0.181 NA
HETATM    9  C   UNL     1      41.969 -15.182  -0.064  1.00  0.00     0.160 A 
HETATM   10  H   UNL     1      38.694 -15.351   2.327  1.00  0.00     0.161 HD
ENDROOT
BRANCH   1  11
HETATM   11  C   UNL     1      41.437 -16.689   1.941  1.00  0.00     0.261 C 
HETATM   12  N   UNL     1      42.716 -17.197   1.804  1.00  0.00    -0.323 N 
HETATM   13  H   UNL     1      43.285 -16.750   1.092  1.00  0.00     0.169 HD
HETATM   14  O   UNL     1      40.648 -16.945   2.844  1.00  0.00    -0.267 OA
BRANCH  12  15
HETATM   15  C   UNL     1      43.355 -18.151   2.616  1.00  0.00     0.035 A 
HETATM   16  C   UNL     1      43.662 -19.447   2.195  1.00  0.00     0.039 A 
HETATM   17  C   UNL     1      44.314 -20.355   3.052  1.00  0.00    -0.028 A 
HETATM   18  C   UNL     1      44.653 -19.938   4.345  1.00  0.00     0.010 A 
HETATM   19  C   UNL     1      44.351 -18.646   4.774  1.00  0.00     0.003 A 
HETATM   20  C   UNL     1      43.713 -17.755   3.909  1.00  0.00     0.029 A 
BRANCH  17  21
HETATM   21  C   UNL     1      44.670 -21.735   2.542  1.00  0.00     0.147 C 
HETATM   22  C   UNL     1      44.600 -22.771   3.659  1.00  0.00     0.044 C 
BRANCH  21  23
HETATM   23  O   UNL     1      43.782 -22.123   1.495  1.00  0.00    -0.391 OA
HETATM   24  H   UNL     1      44.295 -22.672   0.879  1.00  0.00     0.210 HD
ENDBRANCH  21  23
ENDBRANCH  17  21
ENDBRANCH  12  15
ENDBRANCH   1  11
BRANCH   4  25
HETATM   25  C   UNL     1      38.981 -13.671  -2.538  1.00  0.00     0.409 C 
HETATM   26  F   UNL     1      39.868 -12.955  -3.256  1.00  0.00    -0.169 F 
HETATM   27  F   UNL     1      39.109 -14.974  -2.881  1.00  0.00    -0.169 F 
HETATM   28  F   UNL     1      37.748 -13.281  -2.966  1.00  0.00    -0.169 F 
ENDBRANCH   4  25
BRANCH   6  29
HETATM   29  C   UNL     1      38.256 -12.618   1.881  1.00  0.00    -0.035 A 
HETATM   30  C   UNL     1      37.616 -11.390   1.626  1.00  0.00     0.009 A 
HETATM   31  C   UNL     1      37.990 -10.222   2.299  1.00  0.00     0.001 A 
HETATM   32  C   UNL     1      38.993 -10.261   3.260  1.00  0.00     0.000 A 
HETATM   33  C   UNL     1      39.617 -11.469   3.555  1.00  0.00     0.001 A 
HETATM   34  C   UNL     1      39.249 -12.634   2.876  1.00  0.00     0.009 A 
ENDBRANCH   6  29
TORSDOF 6
ENDMDL
MODEL 10
REMARK VINA RESULT:      -8.4      4.143      7.757
REMARK  6 active torsions:
REMARK  status: ('A' for Active; 'I' for Inactive)
REMARK    1  A    between atoms: C_2  and  O_3 
REMARK    2  A    between atoms: C_2  and  C_4 
REMARK    3  A    between atoms: C_6  and  N_7 
REMARK       I    between atoms: N_7  and  C_8 
REMARK    4  A    between atoms: C_8  and  C_9 
REMARK    5  A    between atoms: C_12  and  C_13 
REMARK    6  A    between atoms: C_18  and  C_19 
ROOT
HETATM    1  C   UNL     1      41.175 -15.906   0.981  1.00  0.00     0.096 A 
HETATM    2  C   UNL     1      39.989 -15.229   0.774  1.00  0.00     0.138 A 
HETATM    3  N   UNL     1      40.173 -14.489  -0.371  1.00  0.00    -0.240 N 
HETATM    4  C   UNL     1      39.178 -13.598  -0.943  1.00  0.00     0.221 C 
HETATM    5  C   UNL     1      37.808 -13.808  -0.264  1.00  0.00     0.066 C 
HETATM    6  C   UNL     1      37.954 -13.978   1.258  1.00  0.00     0.118 C 
HETATM    7  N   UNL     1      38.820 -15.152   1.474  1.00  0.00    -0.365 N 
HETATM    8  N   UNL     1      41.435 -14.517  -0.827  1.00  0.00    -0.181 NA
HETATM    9  C   UNL     1      42.038 -15.390  -0.015  1.00  0.00     0.160 A 
HETATM   10  H   UNL     1      38.811 -15.467   2.446  1.00  0.00     0.161 HD
ENDROOT
BRANCH   1  11
HETATM   11  C   UNL     1      41.512 -16.874   2.009  1.00  0.00     0.261 C 
HETATM   12  N   UNL     1      42.781 -17.401   1.858  1.00  0.00    -0.323 N 
HETATM   13  H   UNL     1      43.348 -16.963   1.138  1.00  0.00     0.169 HD
HETATM   14  O   UNL     1      40.730 -17.117   2.921  1.00  0.00    -0.267 OA
BRANCH  12  15
HETATM   15  C   UNL     1      43.416 -18.362   2.664  1.00  0.00     0.035 A 
HETATM   16  C   UNL     1      43.759 -18.150   4.001  1.00  0.00     0.039 A 
HETATM   17  C   UNL     1      44.385 -19.156   4.761  1.00  0.00    -0.028 A 
HETATM   18  C   UNL     1      44.662 -20.387   4.152  1.00  0.00     0.010 A 
HETATM   19  C   UNL     1      44.323 -20.609   2.818  1.00  0.00     0.003 A 
HETATM   20  C   UNL     1      43.695 -19.604   2.081  1.00  0.00     0.029 A 
BRANCH  17  21
HETATM   21  C   UNL     1      44.698 -18.902   6.219  1.00  0.00     0.147 C 
HETATM   22  C   UNL     1      44.714 -17.408   6.527  1.00  0.00     0.044 C 
BRANCH  21  23
HETATM   23  O   UNL     1      43.730 -19.535   7.054  1.00  0.00    -0.391 OA
HETATM   24  H   UNL     1      43.853 -19.179   7.950  1.00  0.00     0.210 HD
ENDBRANCH  21  23
ENDBRANCH  17  21
ENDBRANCH  12  15
ENDBRANCH   1  11
BRANCH   4  25
HETATM   25  C   UNL     1      39.036 -13.816  -2.433  1.00  0.00     0.409 C 
HETATM   26  F   UNL     1      39.845 -13.038  -3.178  1.00  0.00    -0.169 F 
HETATM   27  F   UNL     1      39.244 -15.106  -2.785  1.00  0.00    -0.169 F 
HETATM   28  F   UNL     1      37.765 -13.514  -2.816  1.00  0.00    -0.169 F 
ENDBRANCH   4  25
BRANCH   6  29
HETATM   29  C   UNL     1      38.430 -12.726   1.995  1.00  0.00    -0.035 A 
HETATM   30  C   UNL     1      37.845 -11.476   1.716  1.00  0.00     0.009 A 
HETATM   31  C   UNL     1      38.262 -10.315   2.374  1.00  0.00     0.001 A 
HETATM   32  C   UNL     1      39.255 -10.381   3.344  1.00  0.00     0.000 A 
HETATM   33  C   UNL     1      39.826 -11.609   3.663  1.00  0.00     0.001 A 
HETATM   34  C   UNL     1      39.414 -12.768   2.999  1.00  0.00     0.009 A 
ENDBRANCH   6  29
TORSDOF 6
ENDMDL
