MODEL 1
REMARK VINA RESULT:      -7.8      0.000      0.000
REMARK  2 active torsions:
REMARK  status: ('A' for Active; 'I' for Inactive)
REMARK    1  A    between atoms: C_6  and  N_7 
REMARK       I    between atoms: N_7  and  C_8 
REMARK       I    between atoms: C_8  and  N_9 
REMARK    2  A    between atoms: N_9  and  C_10 
ROOT
HETATM    1  N   UNL     1      45.135 -19.484   5.012  1.00  0.00    -0.306 N 
HETATM    2  C   UNL     1      44.630 -18.318   5.501  1.00  0.00     0.321 C 
HETATM    3  N   UNL     1      43.452 -17.863   4.998  1.00  0.00    -0.338 N 
HETATM    4  O   UNL     1      45.176 -17.784   6.465  1.00  0.00    -0.247 OA
HETATM    5  H   UNL     1      45.821 -19.863   5.654  1.00  0.00     0.171 HD
HETATM    6  H   UNL     1      43.226 -18.149   4.056  1.00  0.00     0.164 HD
ENDROOT
BRANCH   3   7
HETATM    7  C   UNL     1      42.739 -16.702   5.507  1.00  0.00     0.089 C 
HETATM    8  C   UNL     1      43.094 -15.427   4.721  1.00  0.00     0.058 C 
HETATM    9  C   UNL     1      42.362 -14.251   5.329  1.00  0.00     0.190 C 
HETATM   10  N   UNL     1      40.883 -14.529   5.279  1.00  0.00    -0.067 N 
HETATM   11  C   UNL     1      42.441 -12.929   4.595  1.00  0.00     0.035 C 
HETATM   12  H   UNL     1      40.645 -14.772   4.303  1.00  0.00     0.280 HD
HETATM   13  C   UNL     1      40.486 -15.695   6.127  1.00  0.00     0.237 C 
HETATM   14  C   UNL     1      40.213 -13.209   5.562  1.00  0.00     0.235 C 
HETATM   15  C   UNL     1      41.220 -16.931   5.613  1.00  0.00     0.053 C 
HETATM   16  C   UNL     1      41.258 -12.160   5.178  1.00  0.00     0.030 C 
ENDBRANCH   3   7
BRANCH   1  17
HETATM   17  C   UNL     1      44.710 -20.346   3.975  1.00  0.00     0.077 A 
HETATM   18  C   UNL     1      44.784 -21.742   3.929  1.00  0.00     0.152 A 
HETATM   19  N   UNL     1      44.416 -22.500   2.869  1.00  0.00    -0.247 NA
HETATM   20 CL   UNL     1      45.204 -22.729   5.280  1.00  0.00    -0.060 Cl
HETATM   21  C   UNL     1      43.898 -21.852   1.807  1.00  0.00     0.118 A 
HETATM   22  C   UNL     1      43.712 -20.483   1.768  1.00  0.00     0.022 A 
HETATM   23  C   UNL     1      44.111 -19.728   2.870  1.00  0.00     0.034 A 
ENDBRANCH   1  17
TORSDOF 2
ENDMDL
MODEL 2
REMARK VINA RESULT:      -7.8      5.231      8.713
REMARK  2 active torsions:
REMARK  status: ('A' for Active; 'I' for Inactive)
REMARK    1  A    between atoms: C_6  and  N_7 
REMARK       I    between atoms: N_7  and  C_8 
REMARK       I    between atoms: C_8  and  N_9 
REMARK    2  A    between atoms: N_9  and  C_10 
ROOT
HETATM    1  N   UNL     1      45.104 -11.883   9.256  1.00  0.00    -0.306 N 
HETATM    2  C   UNL     1      45.275 -12.789   8.255  1.00  0.00     0.321 C 
HETATM    3  N   UNL     1      44.221 -13.573   7.906  1.00  0.00    -0.338 N 
HETATM    4  O   UNL     1      46.323 -12.784   7.611  1.00  0.00    -0.247 OA
HETATM    5  H   UNL     1      45.830 -11.177   9.214  1.00  0.00     0.171 HD
HETATM    6  H   UNL     1      43.534 -13.748   8.626  1.00  0.00     0.164 HD
ENDROOT
BRANCH   3   7
HETATM    7  C   UNL     1      44.224 -14.495   6.781  1.00  0.00     0.089 C 
HETATM    8  C   UNL     1      43.839 -15.922   7.214  1.00  0.00     0.058 C 
HETATM    9  C   UNL     1      43.910 -16.839   6.014  1.00  0.00     0.190 C 
HETATM   10  N   UNL     1      42.972 -16.318   4.957  1.00  0.00    -0.067 N 
HETATM   11  C   UNL     1      43.402 -18.254   6.190  1.00  0.00     0.035 C 
HETATM   12  H   UNL     1      42.045 -16.196   5.396  1.00  0.00     0.280 HD
HETATM   13  C   UNL     1      43.383 -14.980   4.430  1.00  0.00     0.237 C 
HETATM   14  C   UNL     1      42.824 -17.438   3.959  1.00  0.00     0.235 C 
HETATM   15  C   UNL     1      43.388 -13.990   5.591  1.00  0.00     0.053 C 
HETATM   16  C   UNL     1      43.171 -18.701   4.749  1.00  0.00     0.030 C 
ENDBRANCH   3   7
BRANCH   1  17
HETATM   17  C   UNL     1      44.018 -11.610  10.119  1.00  0.00     0.077 A 
HETATM   18  C   UNL     1      42.818 -10.958   9.816  1.00  0.00     0.152 A 
HETATM   19  N   UNL     1      41.847 -10.671  10.716  1.00  0.00    -0.247 NA
HETATM   20 CL   UNL     1      42.316 -10.562   8.215  1.00  0.00    -0.060 Cl
HETATM   21  C   UNL     1      42.044 -11.092  11.980  1.00  0.00     0.118 A 
HETATM   22  C   UNL     1      43.159 -11.807  12.379  1.00  0.00     0.022 A 
HETATM   23  C   UNL     1      44.147 -12.077  11.433  1.00  0.00     0.034 A 
ENDBRANCH   1  17
TORSDOF 2
ENDMDL
MODEL 3
REMARK VINA RESULT:      -7.6      5.419      7.392
REMARK  2 active torsions:
REMARK  status: ('A' for Active; 'I' for Inactive)
REMARK    1  A    between atoms: C_6  and  N_7 
REMARK       I    between atoms: N_7  and  C_8 
REMARK       I    between atoms: C_8  and  N_9 
REMARK    2  A    between atoms: N_9  and  C_10 
ROOT
HETATM    1  N   UNL     1      40.616 -15.926  -0.213  1.00  0.00    -0.306 N 
HETATM    2  C   UNL     1      41.266 -16.734   0.669  1.00  0.00     0.321 C 
HETATM    3  N   UNL     1      42.625 -16.714   0.681  1.00  0.00    -0.338 N 
HETATM    4  O   UNL     1      40.617 -17.353   1.510  1.00  0.00    -0.247 OA
HETATM    5  H   UNL     1      39.651 -15.803   0.075  1.00  0.00     0.171 HD
HETATM    6  H   UNL     1      43.078 -16.450  -0.182  1.00  0.00     0.164 HD
ENDROOT
BRANCH   3   7
HETATM    7  C   UNL     1      43.445 -17.432   1.645  1.00  0.00     0.089 C 
HETATM    8  C   UNL     1      43.167 -16.967   3.086  1.00  0.00     0.058 C 
HETATM    9  C   UNL     1      44.083 -17.712   4.032  1.00  0.00     0.190 C 
HETATM   10  N   UNL     1      43.833 -19.189   3.877  1.00  0.00    -0.067 N 
HETATM   11  C   UNL     1      43.849 -17.525   5.516  1.00  0.00     0.035 C 
HETATM   12  H   UNL     1      42.818 -19.347   3.990  1.00  0.00     0.280 HD
HETATM   13  C   UNL     1      44.203 -19.698   2.520  1.00  0.00     0.237 C 
HETATM   14  C   UNL     1      44.498 -19.839   5.064  1.00  0.00     0.235 C 
HETATM   15  C   UNL     1      43.355 -18.961   1.487  1.00  0.00     0.053 C 
HETATM   16  C   UNL     1      44.571 -18.730   6.114  1.00  0.00     0.030 C 
ENDBRANCH   3   7
BRANCH   1  17
HETATM   17  C   UNL     1      41.076 -15.066  -1.236  1.00  0.00     0.077 A 
HETATM   18  C   UNL     1      40.963 -15.233  -2.620  1.00  0.00     0.152 A 
HETATM   19  N   UNL     1      41.489 -14.394  -3.544  1.00  0.00    -0.247 NA
HETATM   20 CL   UNL     1      39.992 -16.447  -3.367  1.00  0.00    -0.060 Cl
HETATM   21  C   UNL     1      42.125 -13.300  -3.082  1.00  0.00     0.118 A 
HETATM   22  C   UNL     1      42.237 -12.996  -1.738  1.00  0.00     0.022 A 
HETATM   23  C   UNL     1      41.695 -13.884  -0.810  1.00  0.00     0.034 A 
ENDBRANCH   1  17
TORSDOF 2
ENDMDL
MODEL 4
REMARK VINA RESULT:      -7.6      5.352      7.592
REMARK  2 active torsions:
REMARK  status: ('A' for Active; 'I' for Inactive)
REMARK    1  A    between atoms: C_6  and  N_7 
REMARK       I    between atoms: N_7  and  C_8 
REMARK       I    between atoms: C_8  and  N_9 
REMARK    2  A    between atoms: N_9  and  C_10 
ROOT
HETATM    1  N   UNL     1      39.994 -14.976   0.281  1.00  0.00    -0.306 N 
HETATM    2  C   UNL     1      40.274 -15.892   1.248  1.00  0.00     0.321 C 
HETATM    3  N   UNL     1      41.531 -16.405   1.306  1.00  0.00    -0.338 N 
HETATM    4  O   UNL     1      39.434 -16.128   2.114  1.00  0.00    -0.247 OA
HETATM    5  H   UNL     1      39.157 -14.459   0.523  1.00  0.00     0.171 HD
HETATM    6  H   UNL     1      42.052 -16.418   0.441  1.00  0.00     0.164 HD
ENDROOT
BRANCH   3   7
HETATM    7  C   UNL     1      42.003 -17.297   2.354  1.00  0.00     0.089 C 
HETATM    8  C   UNL     1      42.902 -18.412   1.790  1.00  0.00     0.058 C 
HETATM    9  C   UNL     1      43.317 -19.331   2.918  1.00  0.00     0.190 C 
HETATM   10  N   UNL     1      44.042 -18.518   3.957  1.00  0.00    -0.067 N 
HETATM   11  C   UNL     1      44.346 -20.396   2.603  1.00  0.00     0.035 C 
HETATM   12  H   UNL     1      44.796 -18.000   3.477  1.00  0.00     0.280 HD
HETATM   13  C   UNL     1      43.163 -17.499   4.609  1.00  0.00     0.237 C 
HETATM   14  C   UNL     1      44.722 -19.520   4.854  1.00  0.00     0.235 C 
HETATM   15  C   UNL     1      42.654 -16.547   3.531  1.00  0.00     0.053 C 
HETATM   16  C   UNL     1      44.860 -20.774   3.989  1.00  0.00     0.030 C 
ENDBRANCH   3   7
BRANCH   1  17
HETATM   17  C   UNL     1      40.756 -14.460  -0.793  1.00  0.00     0.077 A 
HETATM   18  C   UNL     1      41.608 -13.350  -0.792  1.00  0.00     0.152 A 
HETATM   19  N   UNL     1      42.256 -12.874  -1.881  1.00  0.00    -0.247 NA
HETATM   20 CL   UNL     1      42.095 -12.512   0.634  1.00  0.00    -0.060 Cl
HETATM   21  C   UNL     1      42.096 -13.556  -3.032  1.00  0.00     0.118 A 
HETATM   22  C   UNL     1      41.335 -14.706  -3.136  1.00  0.00     0.022 A 
HETATM   23  C   UNL     1      40.671 -15.166  -2.000  1.00  0.00     0.034 A 
ENDBRANCH   1  17
TORSDOF 2
ENDMDL
MODEL 5
REMARK VINA RESULT:      -7.5      5.405      7.659
REMARK  2 active torsions:
REMARK  status: ('A' for Active; 'I' for Inactive)
REMARK    1  A    between atoms: C_6  and  N_7 
REMARK       I    between atoms: N_7  and  C_8 
REMARK       I    between atoms: C_8  and  N_9 
REMARK    2  A    between atoms: N_9  and  C_10 
ROOT
HETATM    1  N   UNL     1      40.059 -14.750  -0.025  1.00  0.00    -0.306 N 
HETATM    2  C   UNL     1      40.317 -15.627   0.984  1.00  0.00     0.321 C 
HETATM    3  N   UNL     1      41.583 -16.105   1.115  1.00  0.00    -0.338 N 
HETATM    4  O   UNL     1      39.445 -15.859   1.818  1.00  0.00    -0.247 OA
HETATM    5  H   UNL     1      39.198 -14.248   0.163  1.00  0.00     0.171 HD
HETATM    6  H   UNL     1      42.143 -16.131   0.275  1.00  0.00     0.164 HD
ENDROOT
BRANCH   3   7
HETATM    7  C   UNL     1      42.028 -16.950   2.212  1.00  0.00     0.089 C 
HETATM    8  C   UNL     1      42.854 -18.148   1.708  1.00  0.00     0.058 C 
HETATM    9  C   UNL     1      43.243 -19.013   2.887  1.00  0.00     0.190 C 
HETATM   10  N   UNL     1      44.034 -18.174   3.855  1.00  0.00    -0.067 N 
HETATM   11  C   UNL     1      44.206 -20.151   2.625  1.00  0.00     0.035 C 
HETATM   12  H   UNL     1      44.804 -17.731   3.328  1.00  0.00     0.280 HD
HETATM   13  C   UNL     1      43.225 -17.067   4.454  1.00  0.00     0.237 C 
HETATM   14  C   UNL     1      44.678 -19.151   4.805  1.00  0.00     0.235 C 
HETATM   15  C   UNL     1      42.745 -16.161   3.324  1.00  0.00     0.053 C 
HETATM   16  C   UNL     1      44.729 -20.465   4.024  1.00  0.00     0.030 C 
ENDBRANCH   3   7
BRANCH   1  17
HETATM   17  C   UNL     1      40.856 -14.248  -1.079  1.00  0.00     0.077 A 
HETATM   18  C   UNL     1      41.042 -14.792  -2.355  1.00  0.00     0.152 A 
HETATM   19  N   UNL     1      41.877 -14.287  -3.294  1.00  0.00    -0.247 NA
HETATM   20 CL   UNL     1      40.111 -16.097  -2.989  1.00  0.00    -0.060 Cl
HETATM   21  C   UNL     1      42.533 -13.154  -2.980  1.00  0.00     0.118 A 
HETATM   22  C   UNL     1      42.375 -12.490  -1.778  1.00  0.00     0.022 A 
HETATM   23  C   UNL     1      41.517 -13.040  -0.826  1.00  0.00     0.034 A 
ENDBRANCH   1  17
TORSDOF 2
ENDMDL
MODEL 6
REMARK VINA RESULT:      -7.4      2.760      7.400
REMARK  2 active torsions:
REMARK  status: ('A' for Active; 'I' for Inactive)
REMARK    1  A    between atoms: C_6  and  N_7 
REMARK       I    between atoms: N_7  and  C_8 
REMARK       I    between atoms: C_8  and  N_9 
REMARK    2  A    between atoms: N_9  and  C_10 
ROOT
HETATM    1  N   UNL     1      40.261 -14.886   6.280  1.00  0.00    -0.306 N 
HETATM    2  C   UNL     1      40.661 -16.178   6.125  1.00  0.00     0.321 C 
HETATM    3  N   UNL     1      41.564 -16.462   5.150  1.00  0.00    -0.338 N 
HETATM    4  O   UNL     1      40.303 -17.021   6.945  1.00  0.00    -0.247 OA
HETATM    5  H   UNL     1      39.847 -14.758   7.197  1.00  0.00     0.171 HD
HETATM    6  H   UNL     1      41.581 -15.835   4.358  1.00  0.00     0.164 HD
ENDROOT
BRANCH   3   7
HETATM    7  C   UNL     1      42.167 -17.770   4.949  1.00  0.00     0.089 C 
HETATM    8  C   UNL     1      42.494 -18.024   3.466  1.00  0.00     0.058 C 
HETATM    9  C   UNL     1      43.069 -19.415   3.317  1.00  0.00     0.190 C 
HETATM   10  N   UNL     1      44.304 -19.516   4.173  1.00  0.00    -0.067 N 
HETATM   11  C   UNL     1      43.617 -19.798   1.959  1.00  0.00     0.035 C 
HETATM   12  H   UNL     1      44.922 -18.727   3.923  1.00  0.00     0.280 HD
HETATM   13  C   UNL     1      44.006 -19.389   5.633  1.00  0.00     0.237 C 
HETATM   14  C   UNL     1      45.010 -20.768   3.718  1.00  0.00     0.235 C 
HETATM   15  C   UNL     1      43.372 -18.023   5.874  1.00  0.00     0.053 C 
HETATM   16  C   UNL     1      44.508 -20.992   2.290  1.00  0.00     0.030 C 
ENDBRANCH   3   7
BRANCH   1  17
HETATM   17  C   UNL     1      40.545 -13.707   5.554  1.00  0.00     0.077 A 
HETATM   18  C   UNL     1      41.741 -12.982   5.517  1.00  0.00     0.152 A 
HETATM   19  N   UNL     1      41.918 -11.819   4.847  1.00  0.00    -0.247 NA
HETATM   20 CL   UNL     1      43.227 -13.545   6.186  1.00  0.00    -0.060 Cl
HETATM   21  C   UNL     1      40.872 -11.363   4.131  1.00  0.00     0.118 A 
HETATM   22  C   UNL     1      39.665 -12.030   4.038  1.00  0.00     0.022 A 
HETATM   23  C   UNL     1      39.509 -13.220   4.747  1.00  0.00     0.034 A 
ENDBRANCH   1  17
TORSDOF 2
ENDMDL
MODEL 7
REMARK VINA RESULT:      -7.3      2.632      2.891
REMARK  2 active torsions:
REMARK  status: ('A' for Active; 'I' for Inactive)
REMARK    1  A    between atoms: C_6  and  N_7 
REMARK       I    between atoms: N_7  and  C_8 
REMARK       I    between atoms: C_8  and  N_9 
REMARK    2  A    between atoms: N_9  and  C_10 
ROOT
HETATM    1  N   UNL     1      44.348 -18.730   2.209  1.00  0.00    -0.306 N 
HETATM    2  C   UNL     1      43.379 -17.776   2.155  1.00  0.00     0.321 C 
HETATM    3  N   UNL     1      42.307 -17.896   2.982  1.00  0.00    -0.338 N 
HETATM    4  O   UNL     1      43.558 -16.774   1.465  1.00  0.00    -0.247 OA
HETATM    5  H   UNL     1      45.204 -18.381   1.791  1.00  0.00     0.171 HD
HETATM    6  H   UNL     1      42.070 -18.833   3.276  1.00  0.00     0.164 HD
ENDROOT
BRANCH   3   7
HETATM    7  C   UNL     1      41.260 -16.895   3.116  1.00  0.00     0.089 C 
HETATM    8  C   UNL     1      41.774 -15.626   3.820  1.00  0.00     0.058 C 
HETATM    9  C   UNL     1      40.630 -14.648   3.973  1.00  0.00     0.190 C 
HETATM   10  N   UNL     1      40.086 -14.330   2.606  1.00  0.00    -0.067 N 
HETATM   11  C   UNL     1      40.964 -13.264   4.489  1.00  0.00     0.035 C 
HETATM   12  H   UNL     1      40.879 -14.030   2.016  1.00  0.00     0.280 HD
HETATM   13  C   UNL     1      39.473 -15.520   1.938  1.00  0.00     0.237 C 
HETATM   14  C   UNL     1      39.212 -13.115   2.790  1.00  0.00     0.235 C 
HETATM   15  C   UNL     1      40.551 -16.588   1.783  1.00  0.00     0.053 C 
HETATM   16  C   UNL     1      39.744 -12.453   4.062  1.00  0.00     0.030 C 
ENDBRANCH   3   7
BRANCH   1  17
HETATM   17  C   UNL     1      44.457 -19.938   2.936  1.00  0.00     0.077 A 
HETATM   18  C   UNL     1      44.776 -20.106   4.288  1.00  0.00     0.152 A 
HETATM   19  N   UNL     1      44.928 -21.303   4.902  1.00  0.00    -0.247 NA
HETATM   20 CL   UNL     1      44.863 -18.811   5.424  1.00  0.00    -0.060 Cl
HETATM   21  C   UNL     1      44.707 -22.403   4.156  1.00  0.00     0.118 A 
HETATM   22  C   UNL     1      44.320 -22.357   2.829  1.00  0.00     0.022 A 
HETATM   23  C   UNL     1      44.182 -21.110   2.222  1.00  0.00     0.034 A 
ENDBRANCH   1  17
TORSDOF 2
ENDMDL
MODEL 8
REMARK VINA RESULT:      -7.3      5.260      6.203
REMARK  2 active torsions:
REMARK  status: ('A' for Active; 'I' for Inactive)
REMARK    1  A    between atoms: C_6  and  N_7 
REMARK       I    between atoms: N_7  and  C_8 
REMARK       I    between atoms: C_8  and  N_9 
REMARK    2  A    between atoms: N_9  and  C_10 
ROOT
HETATM    1  N   UNL     1      43.267 -15.033   3.525  1.00  0.00    -0.306 N 
HETATM    2  C   UNL     1      42.733 -14.446   2.419  1.00  0.00     0.321 C 
HETATM    3  N   UNL     1      41.968 -15.205   1.591  1.00  0.00    -0.338 N 
HETATM    4  O   UNL     1      42.846 -13.231   2.268  1.00  0.00    -0.247 OA
HETATM    5  H   UNL     1      43.544 -14.325   4.195  1.00  0.00     0.171 HD
HETATM    6  H   UNL     1      42.157 -16.197   1.588  1.00  0.00     0.164 HD
ENDROOT
BRANCH   3   7
HETATM    7  C   UNL     1      41.240 -14.685   0.444  1.00  0.00     0.089 C 
HETATM    8  C   UNL     1      41.311 -15.646  -0.758  1.00  0.00     0.058 C 
HETATM    9  C   UNL     1      40.581 -15.027  -1.929  1.00  0.00     0.190 C 
HETATM   10  N   UNL     1      39.155 -14.767  -1.522  1.00  0.00    -0.067 N 
HETATM   11  C   UNL     1      40.387 -15.888  -3.159  1.00  0.00     0.035 C 
HETATM   12  H   UNL     1      38.772 -15.651  -1.148  1.00  0.00     0.280 HD
HETATM   13  C   UNL     1      39.042 -13.749  -0.432  1.00  0.00     0.237 C 
HETATM   14  C   UNL     1      38.411 -14.492  -2.804  1.00  0.00     0.235 C 
HETATM   15  C   UNL     1      39.797 -14.270   0.787  1.00  0.00     0.053 C 
HETATM   16  C   UNL     1      39.254 -15.168  -3.886  1.00  0.00     0.030 C 
ENDBRANCH   3   7
BRANCH   1  17
HETATM   17  C   UNL     1      43.257 -16.366   3.996  1.00  0.00     0.077 A 
HETATM   18  C   UNL     1      43.595 -17.531   3.298  1.00  0.00     0.152 A 
HETATM   19  N   UNL     1      43.496 -18.786   3.797  1.00  0.00    -0.247 NA
HETATM   20 CL   UNL     1      44.346 -17.539   1.745  1.00  0.00    -0.060 Cl
HETATM   21  C   UNL     1      43.087 -18.903   5.075  1.00  0.00     0.118 A 
HETATM   22  C   UNL     1      42.794 -17.819   5.882  1.00  0.00     0.022 A 
HETATM   23  C   UNL     1      42.893 -16.540   5.337  1.00  0.00     0.034 A 
ENDBRANCH   1  17
TORSDOF 2
ENDMDL
MODEL 9
REMARK VINA RESULT:      -7.2      3.521      3.639
REMARK  2 active torsions:
REMARK  status: ('A' for Active; 'I' for Inactive)
REMARK    1  A    between atoms: C_6  and  N_7 
REMARK       I    between atoms: N_7  and  C_8 
REMARK       I    between atoms: C_8  and  N_9 
REMARK    2  A    between atoms: N_9  and  C_10 
ROOT
HETATM    1  N   UNL     1      44.045 -18.372   4.182  1.00  0.00    -0.306 N 
HETATM    2  C   UNL     1      43.410 -17.243   3.765  1.00  0.00     0.321 C 
HETATM    3  N   UNL     1      42.631 -17.314   2.653  1.00  0.00    -0.338 N 
HETATM    4  O   UNL     1      43.449 -16.236   4.468  1.00  0.00    -0.247 OA
HETATM    5  H   UNL     1      44.329 -18.274   5.151  1.00  0.00     0.171 HD
HETATM    6  H   UNL     1      42.871 -18.029   1.982  1.00  0.00     0.164 HD
ENDROOT
BRANCH   3   7
HETATM    7  C   UNL     1      41.803 -16.222   2.163  1.00  0.00     0.089 C 
HETATM    8  C   UNL     1      42.109 -15.894   0.690  1.00  0.00     0.058 C 
HETATM    9  C   UNL     1      41.255 -14.722   0.258  1.00  0.00     0.190 C 
HETATM   10  N   UNL     1      39.807 -15.090   0.446  1.00  0.00    -0.067 N 
HETATM   11  C   UNL     1      41.279 -14.350  -1.209  1.00  0.00     0.035 C 
HETATM   12  H   UNL     1      39.647 -15.987  -0.040  1.00  0.00     0.280 HD
HETATM   13  C   UNL     1      39.448 -15.303   1.882  1.00  0.00     0.237 C 
HETATM   14  C   UNL     1      39.023 -14.051  -0.315  1.00  0.00     0.235 C 
HETATM   15  C   UNL     1      40.302 -16.446   2.423  1.00  0.00     0.053 C 
HETATM   16  C   UNL     1      40.008 -13.517  -1.356  1.00  0.00     0.030 C 
ENDBRANCH   3   7
BRANCH   1  17
HETATM   17  C   UNL     1      44.135 -19.673   3.635  1.00  0.00     0.077 A 
HETATM   18  C   UNL     1      44.402 -20.873   4.303  1.00  0.00     0.152 A 
HETATM   19  N   UNL     1      44.539 -22.078   3.699  1.00  0.00    -0.247 NA
HETATM   20 CL   UNL     1      44.436 -21.033   6.020  1.00  0.00    -0.060 Cl
HETATM   21  C   UNL     1      44.356 -22.115   2.365  1.00  0.00     0.118 A 
HETATM   22  C   UNL     1      44.020 -21.006   1.612  1.00  0.00     0.022 A 
HETATM   23  C   UNL     1      43.897 -19.777   2.259  1.00  0.00     0.034 A 
ENDBRANCH   1  17
TORSDOF 2
ENDMDL
MODEL 10
REMARK VINA RESULT:      -7.1      5.060      6.141
REMARK  2 active torsions:
REMARK  status: ('A' for Active; 'I' for Inactive)
REMARK    1  A    between atoms: C_6  and  N_7 
REMARK       I    between atoms: N_7  and  C_8 
REMARK       I    between atoms: C_8  and  N_9 
REMARK    2  A    between atoms: N_9  and  C_10 
ROOT
HETATM    1  N   UNL     1      40.601 -16.854   3.404  1.00  0.00    -0.306 N 
HETATM    2  C   UNL     1      40.307 -16.047   2.348  1.00  0.00     0.321 C 
HETATM    3  N   UNL     1      41.331 -15.592   1.579  1.00  0.00    -0.338 N 
HETATM    4  O   UNL     1      39.132 -15.861   2.042  1.00  0.00    -0.247 OA
HETATM    5  H   UNL     1      39.772 -17.358   3.698  1.00  0.00     0.171 HD
HETATM    6  H   UNL     1      42.232 -15.518   2.029  1.00  0.00     0.164 HD
ENDROOT
BRANCH   3   7
HETATM    7  C   UNL     1      41.157 -14.825   0.355  1.00  0.00     0.089 C 
HETATM    8  C   UNL     1      42.089 -13.599   0.315  1.00  0.00     0.058 C 
HETATM    9  C   UNL     1      41.824 -12.818  -0.953  1.00  0.00     0.190 C 
HETATM   10  N   UNL     1      42.063 -13.724  -2.132  1.00  0.00    -0.067 N 
HETATM   11  C   UNL     1      42.758 -11.669  -1.268  1.00  0.00     0.035 C 
HETATM   12  H   UNL     1      43.005 -14.133  -2.025  1.00  0.00     0.280 HD
HETATM   13  C   UNL     1      41.098 -14.865  -2.188  1.00  0.00     0.237 C 
HETATM   14  C   UNL     1      42.130 -12.816  -3.333  1.00  0.00     0.235 C 
HETATM   15  C   UNL     1      41.260 -15.690  -0.915  1.00  0.00     0.053 C 
HETATM   16  C   UNL     1      42.519 -11.452  -2.759  1.00  0.00     0.030 C 
ENDBRANCH   3   7
BRANCH   1  17
HETATM   17  C   UNL     1      41.826 -17.295   3.955  1.00  0.00     0.077 A 
HETATM   18  C   UNL     1      42.705 -18.258   3.447  1.00  0.00     0.152 A 
HETATM   19  N   UNL     1      43.832 -18.678   4.068  1.00  0.00    -0.247 NA
HETATM   20 CL   UNL     1      42.574 -18.942   1.869  1.00  0.00    -0.060 Cl
HETATM   21  C   UNL     1      44.143 -18.083   5.236  1.00  0.00     0.118 A 
HETATM   22  C   UNL     1      43.387 -17.071   5.799  1.00  0.00     0.022 A 
HETATM   23  C   UNL     1      42.225 -16.668   5.142  1.00  0.00     0.034 A 
ENDBRANCH   1  17
TORSDOF 2
ENDMDL
