MODEL 1
REMARK VINA RESULT:      -9.4      0.000      0.000
REMARK  4 active torsions:
REMARK  status: ('A' for Active; 'I' for Inactive)
REMARK    1  A    between atoms: N_8  and  C_10 
REMARK    2  A    between atoms: C_10  and  C_11 
REMARK    3  A    between atoms: C_14  and  C_15 
REMARK    4  A    between atoms: C_22  and  C_23 
ROOT
HETATM    1  C   UNL     1      43.909 -16.141   7.099  1.00  0.00     0.269 C 
HETATM    2  N   UNL     1      43.758 -16.631   5.671  1.00  0.00    -0.073 N 
HETATM    3  H   UNL     1      44.490 -16.135   5.145  1.00  0.00     0.279 HD
HETATM    4  C   UNL     1      42.399 -16.283   5.116  1.00  0.00     0.244 C 
HETATM    5  C   UNL     1      42.250 -16.714   3.628  1.00  0.00    -0.013 C 
HETATM    6  C   UNL     1      40.763 -16.509   3.219  1.00  0.00     0.039 C 
HETATM    7  C   UNL     1      40.490 -16.725   1.731  1.00  0.00     0.236 C 
HETATM    8  N   UNL     1      41.393 -15.856   0.898  1.00  0.00    -0.064 N 
HETATM    9  H   UNL     1      41.247 -16.185  -0.074  1.00  0.00     0.280 HD
HETATM   10  C   UNL     1      42.847 -16.030   1.200  1.00  0.00     0.236 C 
HETATM   11  C   UNL     1      43.121 -15.826   2.696  1.00  0.00     0.039 C 
HETATM   12  C   UNL     1      42.615 -18.219   3.509  1.00  0.00     0.022 C 
HETATM   13  C   UNL     1      43.980 -18.577   4.131  1.00  0.00     0.045 C 
HETATM   14  C   UNL     1      44.061 -18.117   5.593  1.00  0.00     0.243 C 
ENDROOT
BRANCH  13  15
HETATM   15  C   UNL     1      44.276 -20.057   4.001  1.00  0.00    -0.052 A 
HETATM   16  C   UNL     1      44.176 -20.676   2.744  1.00  0.00     0.007 A 
HETATM   17  C   UNL     1      44.445 -22.038   2.598  1.00  0.00     0.001 A 
HETATM   18  C   UNL     1      44.817 -22.799   3.702  1.00  0.00     0.000 A 
HETATM   19  C   UNL     1      44.922 -22.200   4.954  1.00  0.00     0.001 A 
HETATM   20  C   UNL     1      44.653 -20.839   5.105  1.00  0.00     0.007 A 
ENDBRANCH  13  15
BRANCH   8  21
HETATM   21  C   UNL     1      40.935 -14.392   0.780  1.00  0.00     0.317 C 
BRANCH  21  22
HETATM   22  C   UNL     1      39.835 -14.213  -0.208  1.00  0.00     0.181 A 
HETATM   23  N   UNL     1      38.576 -13.952   0.143  1.00  0.00    -0.109 NA
HETATM   24  O   UNL     1      37.908 -13.938  -1.085  1.00  0.00    -0.196 OA
HETATM   25  C   UNL     1      38.839 -14.229  -2.048  1.00  0.00     0.177 A 
HETATM   26  N   UNL     1      40.043 -14.440  -1.544  1.00  0.00    -0.207 NA
BRANCH  25  27
HETATM   27  C   UNL     1      38.495 -14.314  -3.527  1.00  0.00     0.065 A 
HETATM   28  C   UNL     1      38.333 -15.682  -4.159  1.00  0.00     0.013 A 
HETATM   29  C   UNL     1      37.130 -14.834  -3.930  1.00  0.00     0.013 A 
ENDBRANCH  25  27
ENDBRANCH  21  22
ENDBRANCH   8  21
TORSDOF 4
ENDMDL
MODEL 2
REMARK VINA RESULT:      -9.3      2.207      2.639
REMARK  4 active torsions:
REMARK  status: ('A' for Active; 'I' for Inactive)
REMARK    1  A    between atoms: N_8  and  C_10 
REMARK    2  A    between atoms: C_10  and  C_11 
REMARK    3  A    between atoms: C_14  and  C_15 
REMARK    4  A    between atoms: C_22  and  C_23 
ROOT
HETATM    1  C   UNL     1      43.965 -16.305   7.324  1.00  0.00     0.269 C 
HETATM    2  N   UNL     1      43.790 -16.687   5.866  1.00  0.00    -0.073 N 
HETATM    3  H   UNL     1      44.519 -16.159   5.367  1.00  0.00     0.279 HD
HETATM    4  C   UNL     1      42.427 -16.289   5.357  1.00  0.00     0.244 C 
HETATM    5  C   UNL     1      42.253 -16.609   3.845  1.00  0.00    -0.013 C 
HETATM    6  C   UNL     1      40.763 -16.362   3.473  1.00  0.00     0.039 C 
HETATM    7  C   UNL     1      40.467 -16.467   1.977  1.00  0.00     0.236 C 
HETATM    8  N   UNL     1      41.366 -15.546   1.197  1.00  0.00    -0.064 N 
HETATM    9  H   UNL     1      41.203 -15.802   0.206  1.00  0.00     0.280 HD
HETATM   10  C   UNL     1      42.823 -15.753   1.465  1.00  0.00     0.236 C 
HETATM   11  C   UNL     1      43.119 -15.661   2.967  1.00  0.00     0.039 C 
HETATM   12  C   UNL     1      42.603 -18.104   3.611  1.00  0.00     0.022 C 
HETATM   13  C   UNL     1      43.974 -18.516   4.185  1.00  0.00     0.045 C 
HETATM   14  C   UNL     1      44.078 -18.166   5.675  1.00  0.00     0.243 C 
ENDROOT
BRANCH  13  15
HETATM   15  C   UNL     1      44.254 -19.986   3.942  1.00  0.00    -0.052 A 
HETATM   16  C   UNL     1      44.670 -20.798   5.010  1.00  0.00     0.007 A 
HETATM   17  C   UNL     1      44.932 -22.154   4.812  1.00  0.00     0.001 A 
HETATM   18  C   UNL     1      44.785 -22.718   3.548  1.00  0.00     0.000 A 
HETATM   19  C   UNL     1      44.372 -21.926   2.480  1.00  0.00     0.001 A 
HETATM   20  C   UNL     1      44.109 -20.569   2.673  1.00  0.00     0.007 A 
ENDBRANCH  13  15
BRANCH   8  21
HETATM   21  C   UNL     1      40.919 -14.074   1.193  1.00  0.00     0.317 C 
BRANCH  21  22
HETATM   22  C   UNL     1      41.686 -13.245   0.223  1.00  0.00     0.181 A 
HETATM   23  N   UNL     1      42.423 -12.195   0.584  1.00  0.00    -0.109 NA
HETATM   24  O   UNL     1      42.886 -11.705  -0.642  1.00  0.00    -0.196 OA
HETATM   25  C   UNL     1      42.344 -12.499  -1.618  1.00  0.00     0.177 A 
HETATM   26  N   UNL     1      41.566 -13.449  -1.128  1.00  0.00    -0.207 NA
BRANCH  25  27
HETATM   27  C   UNL     1      42.609 -12.279  -3.100  1.00  0.00     0.065 A 
HETATM   28  C   UNL     1      41.474 -11.793  -3.978  1.00  0.00     0.013 A 
HETATM   29  C   UNL     1      42.589 -10.864  -3.643  1.00  0.00     0.013 A 
ENDBRANCH  25  27
ENDBRANCH  21  22
ENDBRANCH   8  21
TORSDOF 4
ENDMDL
MODEL 3
REMARK VINA RESULT:      -9.2      2.199      2.960
REMARK  4 active torsions:
REMARK  status: ('A' for Active; 'I' for Inactive)
REMARK    1  A    between atoms: N_8  and  C_10 
REMARK    2  A    between atoms: C_10  and  C_11 
REMARK    3  A    between atoms: C_14  and  C_15 
REMARK    4  A    between atoms: C_22  and  C_23 
ROOT
HETATM    1  C   UNL     1      44.055 -15.948   6.950  1.00  0.00     0.269 C 
HETATM    2  N   UNL     1      43.812 -16.470   5.546  1.00  0.00    -0.073 N 
HETATM    3  H   UNL     1      44.501 -15.980   4.961  1.00  0.00     0.279 HD
HETATM    4  C   UNL     1      42.415 -16.147   5.078  1.00  0.00     0.244 C 
HETATM    5  C   UNL     1      42.169 -16.612   3.614  1.00  0.00    -0.013 C 
HETATM    6  C   UNL     1      40.656 -16.428   3.303  1.00  0.00     0.039 C 
HETATM    7  C   UNL     1      40.285 -16.680   1.841  1.00  0.00     0.236 C 
HETATM    8  N   UNL     1      41.120 -15.822   0.931  1.00  0.00    -0.064 N 
HETATM    9  H   UNL     1      40.911 -16.174  -0.022  1.00  0.00     0.280 HD
HETATM   10  C   UNL     1      42.593 -15.977   1.137  1.00  0.00     0.236 C 
HETATM   11  C   UNL     1      42.966 -15.737   2.605  1.00  0.00     0.039 C 
HETATM   12  C   UNL     1      42.541 -18.116   3.503  1.00  0.00     0.022 C 
HETATM   13  C   UNL     1      43.949 -18.448   4.038  1.00  0.00     0.045 C 
HETATM   14  C   UNL     1      44.124 -17.955   5.480  1.00  0.00     0.243 C 
ENDROOT
BRANCH  13  15
HETATM   15  C   UNL     1      44.250 -19.928   3.919  1.00  0.00    -0.052 A 
HETATM   16  C   UNL     1      44.100 -20.569   2.679  1.00  0.00     0.007 A 
HETATM   17  C   UNL     1      44.373 -21.931   2.544  1.00  0.00     0.001 A 
HETATM   18  C   UNL     1      44.798 -22.671   3.644  1.00  0.00     0.000 A 
HETATM   19  C   UNL     1      44.953 -22.050   4.879  1.00  0.00     0.001 A 
HETATM   20  C   UNL     1      44.682 -20.688   5.019  1.00  0.00     0.007 A 
ENDBRANCH  13  15
BRANCH   8  21
HETATM   21  C   UNL     1      40.640 -14.365   0.812  1.00  0.00     0.317 C 
BRANCH  21  22
HETATM   22  C   UNL     1      41.331 -13.621  -0.277  1.00  0.00     0.181 A 
HETATM   23  N   UNL     1      41.372 -14.049  -1.538  1.00  0.00    -0.109 NA
HETATM   24  O   UNL     1      42.167 -13.085  -2.167  1.00  0.00    -0.196 OA
HETATM   25  C   UNL     1      42.550 -12.192  -1.199  1.00  0.00     0.177 A 
HETATM   26  N   UNL     1      42.080 -12.505  -0.004  1.00  0.00    -0.207 NA
BRANCH  25  27
HETATM   27  C   UNL     1      43.436 -10.991  -1.492  1.00  0.00     0.065 A 
HETATM   28  C   UNL     1      42.799  -9.739  -2.061  1.00  0.00     0.013 A 
HETATM   29  C   UNL     1      43.274  -9.742  -0.649  1.00  0.00     0.013 A 
ENDBRANCH  25  27
ENDBRANCH  21  22
ENDBRANCH   8  21
TORSDOF 4
ENDMDL
MODEL 4
REMARK VINA RESULT:      -9.0      4.003      7.832
REMARK  4 active torsions:
REMARK  status: ('A' for Active; 'I' for Inactive)
REMARK    1  A    between atoms: N_8  and  C_10 
REMARK    2  A    between atoms: C_10  and  C_11 
REMARK    3  A    between atoms: C_14  and  C_15 
REMARK    4  A    between atoms: C_22  and  C_23 
ROOT
HETATM    1  C   UNL     1      41.294 -15.772  -0.240  1.00  0.00     0.269 C 
HETATM    2  N   UNL     1      41.633 -16.022   1.217  1.00  0.00    -0.073 N 
HETATM    3  H   UNL     1      40.722 -16.120   1.685  1.00  0.00     0.279 HD
HETATM    4  C   UNL     1      42.394 -14.862   1.808  1.00  0.00     0.244 C 
HETATM    5  C   UNL     1      42.689 -15.068   3.321  1.00  0.00    -0.013 C 
HETATM    6  C   UNL     1      43.649 -13.933   3.779  1.00  0.00     0.039 C 
HETATM    7  C   UNL     1      43.898 -13.897   5.287  1.00  0.00     0.236 C 
HETATM    8  N   UNL     1      42.594 -13.820   6.034  1.00  0.00    -0.064 N 
HETATM    9  H   UNL     1      42.855 -13.959   7.028  1.00  0.00     0.280 HD
HETATM   10  C   UNL     1      41.631 -14.909   5.682  1.00  0.00     0.236 C 
HETATM   11  C   UNL     1      41.390 -14.955   4.168  1.00  0.00     0.039 C 
HETATM   12  C   UNL     1      43.390 -16.442   3.506  1.00  0.00     0.022 C 
HETATM   13  C   UNL     1      42.635 -17.616   2.849  1.00  0.00     0.045 C 
HETATM   14  C   UNL     1      42.371 -17.342   1.363  1.00  0.00     0.243 C 
ENDROOT
BRANCH  13  15
HETATM   15  C   UNL     1      43.370 -18.926   3.047  1.00  0.00    -0.052 A 
HETATM   16  C   UNL     1      43.339 -19.899   2.036  1.00  0.00     0.007 A 
HETATM   17  C   UNL     1      44.010 -21.112   2.194  1.00  0.00     0.001 A 
HETATM   18  C   UNL     1      44.720 -21.371   3.362  1.00  0.00     0.000 A 
HETATM   19  C   UNL     1      44.763 -20.416   4.373  1.00  0.00     0.001 A 
HETATM   20  C   UNL     1      44.093 -19.201   4.220  1.00  0.00     0.007 A 
ENDBRANCH  13  15
BRANCH   8  21
HETATM   21  C   UNL     1      41.975 -12.412   6.091  1.00  0.00     0.317 C 
BRANCH  21  22
HETATM   22  C   UNL     1      42.426 -11.636   7.279  1.00  0.00     0.181 A 
HETATM   23  N   UNL     1      42.002 -10.401   7.545  1.00  0.00    -0.109 NA
HETATM   24  O   UNL     1      42.731 -10.063   8.690  1.00  0.00    -0.196 OA
HETATM   25  C   UNL     1      43.548 -11.128   8.971  1.00  0.00     0.177 A 
HETATM   26  N   UNL     1      43.414 -12.114   8.100  1.00  0.00    -0.207 NA
BRANCH  25  27
HETATM   27  C   UNL     1      44.508 -11.141  10.150  1.00  0.00     0.065 A 
HETATM   28  C   UNL     1      43.967 -10.827  11.531  1.00  0.00     0.013 A 
HETATM   29  C   UNL     1      44.361 -12.225  11.199  1.00  0.00     0.013 A 
ENDBRANCH  25  27
ENDBRANCH  21  22
ENDBRANCH   8  21
TORSDOF 4
ENDMDL
MODEL 5
REMARK VINA RESULT:      -8.6      4.300      7.376
REMARK  4 active torsions:
REMARK  status: ('A' for Active; 'I' for Inactive)
REMARK    1  A    between atoms: N_8  and  C_10 
REMARK    2  A    between atoms: C_10  and  C_11 
REMARK    3  A    between atoms: C_14  and  C_15 
REMARK    4  A    between atoms: C_22  and  C_23 
ROOT
HETATM    1  C   UNL     1      41.349 -15.932  -0.471  1.00  0.00     0.269 C 
HETATM    2  N   UNL     1      41.545 -16.070   1.028  1.00  0.00    -0.073 N 
HETATM    3  H   UNL     1      40.601 -16.230   1.402  1.00  0.00     0.279 HD
HETATM    4  C   UNL     1      42.128 -14.811   1.619  1.00  0.00     0.244 C 
HETATM    5  C   UNL     1      42.271 -14.906   3.166  1.00  0.00    -0.013 C 
HETATM    6  C   UNL     1      43.068 -13.660   3.648  1.00  0.00     0.039 C 
HETATM    7  C   UNL     1      43.144 -13.518   5.168  1.00  0.00     0.236 C 
HETATM    8  N   UNL     1      41.763 -13.527   5.767  1.00  0.00    -0.064 N 
HETATM    9  H   UNL     1      41.924 -13.587   6.790  1.00  0.00     0.280 HD
HETATM   10  C   UNL     1      40.948 -14.722   5.387  1.00  0.00     0.236 C 
HETATM   11  C   UNL     1      40.881 -14.873   3.862  1.00  0.00     0.039 C 
HETATM   12  C   UNL     1      43.068 -16.194   3.511  1.00  0.00     0.022 C 
HETATM   13  C   UNL     1      42.499 -17.468   2.855  1.00  0.00     0.045 C 
HETATM   14  C   UNL     1      42.378 -17.302   1.335  1.00  0.00     0.243 C 
ENDROOT
BRANCH  13  15
HETATM   15  C   UNL     1      43.323 -18.688   3.213  1.00  0.00    -0.052 A 
HETATM   16  C   UNL     1      43.601 -19.651   2.230  1.00  0.00     0.007 A 
HETATM   17  C   UNL     1      44.360 -20.782   2.534  1.00  0.00     0.001 A 
HETATM   18  C   UNL     1      44.851 -20.968   3.823  1.00  0.00     0.000 A 
HETATM   19  C   UNL     1      44.586 -20.022   4.809  1.00  0.00     0.001 A 
HETATM   20  C   UNL     1      43.828 -18.889   4.508  1.00  0.00     0.007 A 
ENDBRANCH  13  15
BRANCH   8  21
HETATM   21  C   UNL     1      41.017 -12.186   5.669  1.00  0.00     0.317 C 
BRANCH  21  22
HETATM   22  C   UNL     1      40.379 -11.789   6.954  1.00  0.00     0.181 A 
HETATM   23  N   UNL     1      39.097 -12.021   7.232  1.00  0.00    -0.109 NA
HETATM   24  O   UNL     1      38.939 -11.426   8.489  1.00  0.00    -0.196 OA
HETATM   25  C   UNL     1      40.146 -10.865   8.817  1.00  0.00     0.177 A 
HETATM   26  N   UNL     1      41.060 -11.039   7.878  1.00  0.00    -0.207 NA
BRANCH  25  27
HETATM   27  C   UNL     1      40.377 -10.114  10.119  1.00  0.00     0.065 A 
HETATM   28  C   UNL     1      40.708 -10.907  11.368  1.00  0.00     0.013 A 
HETATM   29  C   UNL     1      41.771 -10.094  10.713  1.00  0.00     0.013 A 
ENDBRANCH  25  27
ENDBRANCH  21  22
ENDBRANCH   8  21
TORSDOF 4
ENDMDL
MODEL 6
REMARK VINA RESULT:      -8.0      3.377      8.907
REMARK  4 active torsions:
REMARK  status: ('A' for Active; 'I' for Inactive)
REMARK    1  A    between atoms: N_8  and  C_10 
REMARK    2  A    between atoms: C_10  and  C_11 
REMARK    3  A    between atoms: C_14  and  C_15 
REMARK    4  A    between atoms: C_22  and  C_23 
ROOT
HETATM    1  C   UNL     1      40.147 -15.753  -3.485  1.00  0.00     0.269 C 
HETATM    2  N   UNL     1      40.897 -15.218  -2.280  1.00  0.00    -0.073 N 
HETATM    3  H   UNL     1      41.768 -15.765  -2.250  1.00  0.00     0.279 HD
HETATM    4  C   UNL     1      40.112 -15.430  -1.010  1.00  0.00     0.244 C 
HETATM    5  C   UNL     1      40.895 -14.952   0.246  1.00  0.00    -0.013 C 
HETATM    6  C   UNL     1      39.928 -15.013   1.463  1.00  0.00     0.039 C 
HETATM    7  C   UNL     1      40.600 -14.738   2.808  1.00  0.00     0.236 C 
HETATM    8  N   UNL     1      41.768 -15.664   3.013  1.00  0.00    -0.064 N 
HETATM    9  H   UNL     1      42.244 -15.299   3.859  1.00  0.00     0.280 HD
HETATM   10  C   UNL     1      42.770 -15.628   1.903  1.00  0.00     0.236 C 
HETATM   11  C   UNL     1      42.095 -15.892   0.551  1.00  0.00     0.039 C 
HETATM   12  C   UNL     1      41.346 -13.483   0.019  1.00  0.00     0.022 C 
HETATM   13  C   UNL     1      42.098 -13.264  -1.309  1.00  0.00     0.045 C 
HETATM   14  C   UNL     1      41.273 -13.764  -2.502  1.00  0.00     0.243 C 
ENDROOT
BRANCH  13  15
HETATM   15  C   UNL     1      42.499 -11.813  -1.484  1.00  0.00    -0.052 A 
HETATM   16  C   UNL     1      42.856 -11.052  -0.360  1.00  0.00     0.007 A 
HETATM   17  C   UNL     1      43.231  -9.714  -0.495  1.00  0.00     0.001 A 
HETATM   18  C   UNL     1      43.254  -9.119  -1.753  1.00  0.00     0.000 A 
HETATM   19  C   UNL     1      42.905  -9.860  -2.877  1.00  0.00     0.001 A 
HETATM   20  C   UNL     1      42.530 -11.198  -2.747  1.00  0.00     0.007 A 
ENDBRANCH  13  15
BRANCH   8  21
HETATM   21  C   UNL     1      41.384 -17.078   3.483  1.00  0.00     0.317 C 
BRANCH  21  22
HETATM   22  C   UNL     1      42.567 -17.966   3.651  1.00  0.00     0.181 A 
HETATM   23  N   UNL     1      43.503 -17.765   4.578  1.00  0.00    -0.109 NA
HETATM   24  O   UNL     1      44.424 -18.784   4.315  1.00  0.00    -0.196 OA
HETATM   25  C   UNL     1      43.956 -19.473   3.227  1.00  0.00     0.177 A 
HETATM   26  N   UNL     1      42.821 -18.979   2.762  1.00  0.00    -0.207 NA
BRANCH  25  27
HETATM   27  C   UNL     1      44.691 -20.661   2.626  1.00  0.00     0.065 A 
HETATM   28  C   UNL     1      44.395 -22.047   3.165  1.00  0.00     0.013 A 
HETATM   29  C   UNL     1      43.906 -21.669   1.810  1.00  0.00     0.013 A 
ENDBRANCH  25  27
ENDBRANCH  21  22
ENDBRANCH   8  21
TORSDOF 4
ENDMDL
MODEL 7
REMARK VINA RESULT:      -7.9      2.079      2.515
REMARK  4 active torsions:
REMARK  status: ('A' for Active; 'I' for Inactive)
REMARK    1  A    between atoms: N_8  and  C_10 
REMARK    2  A    between atoms: C_10  and  C_11 
REMARK    3  A    between atoms: C_14  and  C_15 
REMARK    4  A    between atoms: C_22  and  C_23 
ROOT
HETATM    1  C   UNL     1      42.638 -17.052   7.415  1.00  0.00     0.269 C 
HETATM    2  N   UNL     1      42.820 -17.051   5.909  1.00  0.00    -0.073 N 
HETATM    3  H   UNL     1      43.624 -16.431   5.743  1.00  0.00     0.279 HD
HETATM    4  C   UNL     1      41.598 -16.507   5.211  1.00  0.00     0.244 C 
HETATM    5  C   UNL     1      41.792 -16.432   3.670  1.00  0.00    -0.013 C 
HETATM    6  C   UNL     1      40.420 -16.067   3.033  1.00  0.00     0.039 C 
HETATM    7  C   UNL     1      40.484 -15.785   1.532  1.00  0.00     0.236 C 
HETATM    8  N   UNL     1      41.503 -14.718   1.240  1.00  0.00    -0.064 N 
HETATM    9  H   UNL     1      41.585 -14.713   0.206  1.00  0.00     0.280 HD
HETATM   10  C   UNL     1      42.865 -15.019   1.781  1.00  0.00     0.236 C 
HETATM   11  C   UNL     1      42.801 -15.314   3.284  1.00  0.00     0.039 C 
HETATM   12  C   UNL     1      42.243 -17.828   3.158  1.00  0.00     0.022 C 
HETATM   13  C   UNL     1      43.458 -18.402   3.916  1.00  0.00     0.045 C 
HETATM   14  C   UNL     1      43.201 -18.440   5.427  1.00  0.00     0.243 C 
ENDROOT
BRANCH  13  15
HETATM   15  C   UNL     1      43.842 -19.769   3.386  1.00  0.00    -0.052 A 
HETATM   16  C   UNL     1      43.490 -20.130   2.076  1.00  0.00     0.007 A 
HETATM   17  C   UNL     1      43.834 -21.382   1.565  1.00  0.00     0.001 A 
HETATM   18  C   UNL     1      44.534 -22.290   2.354  1.00  0.00     0.000 A 
HETATM   19  C   UNL     1      44.892 -21.947   3.654  1.00  0.00     0.001 A 
HETATM   20  C   UNL     1      44.550 -20.696   4.169  1.00  0.00     0.007 A 
ENDBRANCH  13  15
BRANCH   8  21
HETATM   21  C   UNL     1      41.015 -13.282   1.499  1.00  0.00     0.317 C 
BRANCH  21  22
HETATM   22  C   UNL     1      39.779 -12.951   0.737  1.00  0.00     0.181 A 
HETATM   23  N   UNL     1      39.753 -12.829  -0.590  1.00  0.00    -0.109 NA
HETATM   24  O   UNL     1      38.429 -12.453  -0.841  1.00  0.00    -0.196 OA
HETATM   25  C   UNL     1      37.806 -12.355   0.377  1.00  0.00     0.177 A 
HETATM   26  N   UNL     1      38.616 -12.624   1.386  1.00  0.00    -0.207 NA
BRANCH  25  27
HETATM   27  C   UNL     1      36.345 -11.959   0.524  1.00  0.00     0.065 A 
HETATM   28  C   UNL     1      36.015 -10.620   1.153  1.00  0.00     0.013 A 
HETATM   29  C   UNL     1      35.813 -10.811  -0.311  1.00  0.00     0.013 A 
ENDBRANCH  25  27
ENDBRANCH  21  22
ENDBRANCH   8  21
TORSDOF 4
ENDMDL
MODEL 8
REMARK VINA RESULT:      -7.9      3.199      8.694
REMARK  4 active torsions:
REMARK  status: ('A' for Active; 'I' for Inactive)
REMARK    1  A    between atoms: N_8  and  C_10 
REMARK    2  A    between atoms: C_10  and  C_11 
REMARK    3  A    between atoms: C_14  and  C_15 
REMARK    4  A    between atoms: C_22  and  C_23 
ROOT
HETATM    1  C   UNL     1      37.444 -14.295   0.766  1.00  0.00     0.269 C 
HETATM    2  N   UNL     1      38.955 -14.425   0.716  1.00  0.00    -0.073 N 
HETATM    3  H   UNL     1      39.124 -15.366   0.334  1.00  0.00     0.279 HD
HETATM    4  C   UNL     1      39.559 -14.311   2.093  1.00  0.00     0.244 C 
HETATM    5  C   UNL     1      41.101 -14.513   2.071  1.00  0.00    -0.013 C 
HETATM    6  C   UNL     1      41.648 -14.168   3.486  1.00  0.00     0.039 C 
HETATM    7  C   UNL     1      43.131 -14.483   3.676  1.00  0.00     0.236 C 
HETATM    8  N   UNL     1      43.411 -15.922   3.337  1.00  0.00    -0.064 N 
HETATM    9  H   UNL     1      44.446 -15.994   3.342  1.00  0.00     0.280 HD
HETATM   10  C   UNL     1      42.956 -16.321   1.969  1.00  0.00     0.236 C 
HETATM   11  C   UNL     1      41.470 -15.993   1.773  1.00  0.00     0.039 C 
HETATM   12  C   UNL     1      41.714 -13.537   1.029  1.00  0.00     0.022 C 
HETATM   13  C   UNL     1      41.051 -13.619  -0.361  1.00  0.00     0.045 C 
HETATM   14  C   UNL     1      39.533 -13.419  -0.264  1.00  0.00     0.243 C 
ENDROOT
BRANCH  13  15
HETATM   15  C   UNL     1      41.677 -12.636  -1.330  1.00  0.00    -0.052 A 
HETATM   16  C   UNL     1      42.477 -11.592  -0.839  1.00  0.00     0.007 A 
HETATM   17  C   UNL     1      43.065 -10.675  -1.711  1.00  0.00     0.001 A 
HETATM   18  C   UNL     1      42.864 -10.788  -3.084  1.00  0.00     0.000 A 
HETATM   19  C   UNL     1      42.075 -11.818  -3.586  1.00  0.00     0.001 A 
HETATM   20  C   UNL     1      41.485 -12.737  -2.718  1.00  0.00     0.007 A 
ENDBRANCH  13  15
BRANCH   8  21
HETATM   21  C   UNL     1      43.046 -16.921   4.449  1.00  0.00     0.317 C 
BRANCH  21  22
HETATM   22  C   UNL     1      43.800 -18.199   4.342  1.00  0.00     0.181 A 
HETATM   23  N   UNL     1      44.626 -18.640   5.291  1.00  0.00    -0.109 NA
HETATM   24  O   UNL     1      45.145 -19.812   4.732  1.00  0.00    -0.196 OA
HETATM   25  C   UNL     1      44.596 -19.933   3.481  1.00  0.00     0.177 A 
HETATM   26  N   UNL     1      43.780 -18.936   3.185  1.00  0.00    -0.207 NA
BRANCH  25  27
HETATM   27  C   UNL     1      44.922 -21.089   2.548  1.00  0.00     0.065 A 
HETATM   28  C   UNL     1      44.496 -22.487   2.946  1.00  0.00     0.013 A 
HETATM   29  C   UNL     1      43.785 -21.794   1.835  1.00  0.00     0.013 A 
ENDBRANCH  25  27
ENDBRANCH  21  22
ENDBRANCH   8  21
TORSDOF 4
ENDMDL
MODEL 9
REMARK VINA RESULT:      -7.7      4.476      6.543
REMARK  4 active torsions:
REMARK  status: ('A' for Active; 'I' for Inactive)
REMARK    1  A    between atoms: N_8  and  C_10 
REMARK    2  A    between atoms: C_10  and  C_11 
REMARK    3  A    between atoms: C_14  and  C_15 
REMARK    4  A    between atoms: C_22  and  C_23 
ROOT
HETATM    1  C   UNL     1      41.323 -16.006  -0.475  1.00  0.00     0.269 C 
HETATM    2  N   UNL     1      41.472 -16.177   1.025  1.00  0.00    -0.073 N 
HETATM    3  H   UNL     1      40.541 -16.471   1.349  1.00  0.00     0.279 HD
HETATM    4  C   UNL     1      41.861 -14.878   1.687  1.00  0.00     0.244 C 
HETATM    5  C   UNL     1      41.949 -15.016   3.234  1.00  0.00    -0.013 C 
HETATM    6  C   UNL     1      42.557 -13.699   3.796  1.00  0.00     0.039 C 
HETATM    7  C   UNL     1      42.549 -13.610   5.322  1.00  0.00     0.236 C 
HETATM    8  N   UNL     1      41.157 -13.820   5.854  1.00  0.00    -0.064 N 
HETATM    9  H   UNL     1      41.280 -13.900   6.881  1.00  0.00     0.280 HD
HETATM   10  C   UNL     1      40.520 -15.093   5.395  1.00  0.00     0.236 C 
HETATM   11  C   UNL     1      40.539 -15.189   3.864  1.00  0.00     0.039 C 
HETATM   12  C   UNL     1      42.890 -16.205   3.572  1.00  0.00     0.022 C 
HETATM   13  C   UNL     1      42.520 -17.514   2.846  1.00  0.00     0.045 C 
HETATM   14  C   UNL     1      42.443 -17.304   1.329  1.00  0.00     0.243 C 
ENDROOT
BRANCH  13  15
HETATM   15  C   UNL     1      43.480 -18.632   3.201  1.00  0.00    -0.052 A 
HETATM   16  C   UNL     1      44.073 -18.660   4.474  1.00  0.00     0.007 A 
HETATM   17  C   UNL     1      44.958 -19.680   4.825  1.00  0.00     0.001 A 
HETATM   18  C   UNL     1      45.263 -20.685   3.912  1.00  0.00     0.000 A 
HETATM   19  C   UNL     1      44.682 -20.673   2.648  1.00  0.00     0.001 A 
HETATM   20  C   UNL     1      43.796 -19.655   2.292  1.00  0.00     0.007 A 
ENDBRANCH  13  15
BRANCH   8  21
HETATM   21  C   UNL     1      40.248 -12.581   5.766  1.00  0.00     0.317 C 
BRANCH  21  22
HETATM   22  C   UNL     1      40.924 -11.340   6.234  1.00  0.00     0.181 A 
HETATM   23  N   UNL     1      41.530 -11.243   7.417  1.00  0.00    -0.109 NA
HETATM   24  O   UNL     1      41.947  -9.908   7.444  1.00  0.00    -0.196 OA
HETATM   25  C   UNL     1      41.512  -9.333   6.277  1.00  0.00     0.177 A 
HETATM   26  N   UNL     1      40.844 -10.178   5.511  1.00  0.00    -0.207 NA
BRANCH  25  27
HETATM   27  C   UNL     1      41.768  -7.873   5.935  1.00  0.00     0.065 A 
HETATM   28  C   UNL     1      42.563  -7.547   4.686  1.00  0.00     0.013 A 
HETATM   29  C   UNL     1      41.097  -7.282   4.711  1.00  0.00     0.013 A 
ENDBRANCH  25  27
ENDBRANCH  21  22
ENDBRANCH   8  21
TORSDOF 4
ENDMDL
MODEL 10
REMARK VINA RESULT:      -7.6      5.218      8.828
REMARK  4 active torsions:
REMARK  status: ('A' for Active; 'I' for Inactive)
REMARK    1  A    between atoms: N_8  and  C_10 
REMARK    2  A    between atoms: C_10  and  C_11 
REMARK    3  A    between atoms: C_14  and  C_15 
REMARK    4  A    between atoms: C_22  and  C_23 
ROOT
HETATM    1  C   UNL     1      38.083 -14.126   0.646  1.00  0.00     0.269 C 
HETATM    2  N   UNL     1      38.957 -14.416   1.851  1.00  0.00    -0.073 N 
HETATM    3  H   UNL     1      38.322 -14.839   2.540  1.00  0.00     0.279 HD
HETATM    4  C   UNL     1      39.555 -13.149   2.410  1.00  0.00     0.244 C 
HETATM    5  C   UNL     1      40.398 -13.417   3.690  1.00  0.00    -0.013 C 
HETATM    6  C   UNL     1      41.136 -12.098   4.060  1.00  0.00     0.039 C 
HETATM    7  C   UNL     1      41.874 -12.151   5.398  1.00  0.00     0.236 C 
HETATM    8  N   UNL     1      40.935 -12.559   6.501  1.00  0.00    -0.064 N 
HETATM    9  H   UNL     1      41.551 -12.719   7.320  1.00  0.00     0.280 HD
HETATM   10  C   UNL     1      40.220 -13.847   6.239  1.00  0.00     0.236 C 
HETATM   11  C   UNL     1      39.490 -13.801   4.891  1.00  0.00     0.039 C 
HETATM   12  C   UNL     1      41.443 -14.521   3.371  1.00  0.00     0.022 C 
HETATM   13  C   UNL     1      40.831 -15.791   2.746  1.00  0.00     0.045 C 
HETATM   14  C   UNL     1      40.009 -15.453   1.496  1.00  0.00     0.243 C 
ENDROOT
BRANCH  13  15
HETATM   15  C   UNL     1      41.897 -16.825   2.442  1.00  0.00    -0.052 A 
HETATM   16  C   UNL     1      42.170 -17.836   3.378  1.00  0.00     0.007 A 
HETATM   17  C   UNL     1      43.145 -18.801   3.121  1.00  0.00     0.001 A 
HETATM   18  C   UNL     1      43.860 -18.770   1.928  1.00  0.00     0.000 A 
HETATM   19  C   UNL     1      43.601 -17.776   0.989  1.00  0.00     0.001 A 
HETATM   20  C   UNL     1      42.626 -16.809   1.242  1.00  0.00     0.007 A 
ENDBRANCH  13  15
BRANCH   8  21
HETATM   21  C   UNL     1      40.039 -11.425   7.027  1.00  0.00     0.317 C 
BRANCH  21  22
HETATM   22  C   UNL     1      40.440 -10.961   8.384  1.00  0.00     0.181 A 
HETATM   23  N   UNL     1      41.651 -10.479   8.660  1.00  0.00    -0.109 NA
HETATM   24  O   UNL     1      41.585 -10.246  10.038  1.00  0.00    -0.196 OA
HETATM   25  C   UNL     1      40.341 -10.648  10.450  1.00  0.00     0.177 A 
HETATM   26  N   UNL     1      39.608 -11.130   9.461  1.00  0.00    -0.207 NA
BRANCH  25  27
HETATM   27  C   UNL     1      39.885 -10.558  11.899  1.00  0.00     0.065 A 
HETATM   28  C   UNL     1      40.596 -11.402  12.938  1.00  0.00     0.013 A 
HETATM   29  C   UNL     1      40.813  -9.928  12.918  1.00  0.00     0.013 A 
ENDBRANCH  25  27
ENDBRANCH  21  22
ENDBRANCH   8  21
TORSDOF 4
ENDMDL
