MODEL 1
REMARK VINA RESULT:      -8.1      0.000      0.000
REMARK  5 active torsions:
REMARK  status: ('A' for Active; 'I' for Inactive)
REMARK    1  A    between atoms: C_2  and  N_3 
REMARK    2  A    between atoms: C_2  and  C_19 
REMARK       I    between atoms: N_3  and  C_4 
REMARK    3  A    between atoms: C_4  and  C_5 
REMARK    4  A    between atoms: C_7  and  O_8 
REMARK    5  A    between atoms: O_8  and  C_9 
ROOT
HETATM    1  C   UNL     1      40.983 -16.263   2.744  1.00  0.00     0.146 A 
HETATM    2  O   UNL     1      42.118 -16.802   2.193  1.00  0.00    -0.282 OA
HETATM    3  C   UNL     1      42.763 -17.469   3.192  1.00  0.00     0.191 A 
HETATM    4  C   UNL     1      42.039 -17.407   4.359  1.00  0.00     0.067 A 
HETATM    5  C   UNL     1      40.910 -16.602   4.082  1.00  0.00     0.048 A 
ENDROOT
BRANCH   1   6
HETATM    6  C   UNL     1      40.090 -15.474   1.919  1.00  0.00     0.276 C 
HETATM    7  N   UNL     1      40.730 -14.668   1.007  1.00  0.00    -0.347 N 
HETATM    8  H   UNL     1      41.744 -14.681   1.003  1.00  0.00     0.163 HD
HETATM    9  O   UNL     1      38.867 -15.527   2.013  1.00  0.00    -0.265 OA
BRANCH   7  10
HETATM   10  C   UNL     1      40.017 -13.771   0.121  1.00  0.00     0.114 C 
HETATM   11  C   UNL     1      40.618 -12.366   0.178  1.00  0.00     0.037 C 
BRANCH  10  12
HETATM   12  C   UNL     1      39.988 -14.340  -1.284  1.00  0.00    -0.033 A 
HETATM   13  C   UNL     1      41.022 -15.181  -1.715  1.00  0.00     0.028 A 
HETATM   14  C   UNL     1      40.985 -15.685  -3.006  1.00  0.00     0.116 A 
HETATM   15  N   UNL     1      40.004 -15.410  -3.889  1.00  0.00    -0.273 NA
HETATM   16  C   UNL     1      39.021 -14.588  -3.465  1.00  0.00     0.116 A 
HETATM   17  C   UNL     1      38.969 -14.036  -2.194  1.00  0.00     0.028 A 
ENDBRANCH  10  12
ENDBRANCH   7  10
ENDBRANCH   1   6
BRANCH   3  18
HETATM   18  O   UNL     1      43.893 -18.094   2.873  1.00  0.00    -0.286 OA
BRANCH  18  19
HETATM   19  C   UNL     1      43.998 -19.467   2.912  1.00  0.00     0.100 A 
HETATM   20  C   UNL     1      44.593 -20.055   4.034  1.00  0.00     0.068 A 
HETATM   21 CL   UNL     1      45.104 -19.106   5.383  1.00  0.00    -0.081 Cl
HETATM   22  C   UNL     1      44.793 -21.437   4.082  1.00  0.00     0.026 A 
HETATM   23  C   UNL     1      44.407 -22.237   3.006  1.00  0.00     0.002 A 
HETATM   24  C   UNL     1      43.825 -21.655   1.880  1.00  0.00     0.003 A 
HETATM   25  C   UNL     1      43.627 -20.274   1.829  1.00  0.00     0.039 A 
ENDBRANCH  18  19
ENDBRANCH   3  18
TORSDOF 5
ENDMDL
MODEL 2
REMARK VINA RESULT:      -8.0      1.079      1.553
REMARK  5 active torsions:
REMARK  status: ('A' for Active; 'I' for Inactive)
REMARK    1  A    between atoms: C_2  and  N_3 
REMARK    2  A    between atoms: C_2  and  C_19 
REMARK       I    between atoms: N_3  and  C_4 
REMARK    3  A    between atoms: C_4  and  C_5 
REMARK    4  A    between atoms: C_7  and  O_8 
REMARK    5  A    between atoms: O_8  and  C_9 
ROOT
HETATM    1  C   UNL     1      41.184 -15.906   1.809  1.00  0.00     0.146 A 
HETATM    2  O   UNL     1      42.466 -16.376   1.667  1.00  0.00    -0.282 OA
HETATM    3  C   UNL     1      42.672 -17.269   2.677  1.00  0.00     0.191 A 
HETATM    4  C   UNL     1      41.532 -17.415   3.432  1.00  0.00     0.067 A 
HETATM    5  C   UNL     1      40.585 -16.512   2.897  1.00  0.00     0.048 A 
ENDROOT
BRANCH   1   6
HETATM    6  C   UNL     1      40.675 -14.918   0.879  1.00  0.00     0.276 C 
HETATM    7  N   UNL     1      41.282 -14.941  -0.355  1.00  0.00    -0.347 N 
HETATM    8  H   UNL     1      42.024 -15.616  -0.498  1.00  0.00     0.163 HD
HETATM    9  O   UNL     1      39.773 -14.134   1.159  1.00  0.00    -0.265 OA
BRANCH   7  10
HETATM   10  C   UNL     1      40.946 -14.004  -1.408  1.00  0.00     0.114 C 
HETATM   11  C   UNL     1      42.208 -13.525  -2.126  1.00  0.00     0.037 C 
BRANCH  10  12
HETATM   12  C   UNL     1      39.934 -14.623  -2.351  1.00  0.00    -0.033 A 
HETATM   13  C   UNL     1      38.624 -14.126  -2.390  1.00  0.00     0.028 A 
HETATM   14  C   UNL     1      37.710 -14.710  -3.252  1.00  0.00     0.116 A 
HETATM   15  N   UNL     1      38.001 -15.746  -4.066  1.00  0.00    -0.273 NA
HETATM   16  C   UNL     1      39.262 -16.222  -4.009  1.00  0.00     0.116 A 
HETATM   17  C   UNL     1      40.248 -15.705  -3.182  1.00  0.00     0.028 A 
ENDBRANCH  10  12
ENDBRANCH   7  10
ENDBRANCH   1   6
BRANCH   3  18
HETATM   18  O   UNL     1      43.857 -17.871   2.721  1.00  0.00    -0.286 OA
BRANCH  18  19
HETATM   19  C   UNL     1      43.972 -19.241   2.802  1.00  0.00     0.100 A 
HETATM   20  C   UNL     1      44.540 -19.792   3.957  1.00  0.00     0.068 A 
HETATM   21 CL   UNL     1      45.007 -18.799   5.291  1.00  0.00    -0.081 Cl
HETATM   22  C   UNL     1      44.749 -21.170   4.051  1.00  0.00     0.026 A 
HETATM   23  C   UNL     1      44.399 -22.004   2.988  1.00  0.00     0.002 A 
HETATM   24  C   UNL     1      43.843 -21.460   1.831  1.00  0.00     0.003 A 
HETATM   25  C   UNL     1      43.635 -20.083   1.734  1.00  0.00     0.039 A 
ENDBRANCH  18  19
ENDBRANCH   3  18
TORSDOF 5
ENDMDL
MODEL 3
REMARK VINA RESULT:      -7.9      7.855     10.489
REMARK  5 active torsions:
REMARK  status: ('A' for Active; 'I' for Inactive)
REMARK    1  A    between atoms: C_2  and  N_3 
REMARK    2  A    between atoms: C_2  and  C_19 
REMARK       I    between atoms: N_3  and  C_4 
REMARK    3  A    between atoms: C_4  and  C_5 
REMARK    4  A    between atoms: C_7  and  O_8 
REMARK    5  A    between atoms: O_8  and  C_9 
ROOT
HETATM    1  C   UNL     1      44.923 -12.530   8.465  1.00  0.00     0.146 A 
HETATM    2  O   UNL     1      43.745 -11.935   8.845  1.00  0.00    -0.282 OA
HETATM    3  C   UNL     1      44.069 -10.943   9.722  1.00  0.00     0.191 A 
HETATM    4  C   UNL     1      45.433 -10.860   9.875  1.00  0.00     0.067 A 
HETATM    5  C   UNL     1      45.982 -11.903   9.094  1.00  0.00     0.048 A 
ENDROOT
BRANCH   1   6
HETATM    6  C   UNL     1      44.899 -13.642   7.537  1.00  0.00     0.276 C 
HETATM    7  N   UNL     1      43.935 -14.584   7.812  1.00  0.00    -0.347 N 
HETATM    8  H   UNL     1      43.354 -14.433   8.628  1.00  0.00     0.163 HD
HETATM    9  O   UNL     1      45.661 -13.734   6.579  1.00  0.00    -0.265 OA
BRANCH   7  10
HETATM   10  C   UNL     1      43.778 -15.793   7.028  1.00  0.00     0.114 C 
HETATM   11  C   UNL     1      43.368 -16.965   7.921  1.00  0.00     0.037 C 
BRANCH  10  12
HETATM   12  C   UNL     1      42.805 -15.553   5.891  1.00  0.00    -0.033 A 
HETATM   13  C   UNL     1      41.435 -15.444   6.160  1.00  0.00     0.028 A 
HETATM   14  C   UNL     1      40.558 -15.234   5.107  1.00  0.00     0.116 A 
HETATM   15  N   UNL     1      40.945 -15.131   3.819  1.00  0.00    -0.273 NA
HETATM   16  C   UNL     1      42.267 -15.251   3.573  1.00  0.00     0.116 A 
HETATM   17  C   UNL     1      43.221 -15.460   4.558  1.00  0.00     0.028 A 
ENDBRANCH  10  12
ENDBRANCH   7  10
ENDBRANCH   1   6
BRANCH   3  18
HETATM   18  O   UNL     1      43.069 -10.214  10.208  1.00  0.00    -0.286 OA
BRANCH  18  19
HETATM   19  C   UNL     1      42.720 -10.257  11.540  1.00  0.00     0.100 A 
HETATM   20  C   UNL     1      41.442 -10.720  11.876  1.00  0.00     0.068 A 
HETATM   21 CL   UNL     1      40.353 -11.309  10.672  1.00  0.00    -0.081 Cl
HETATM   22  C   UNL     1      41.016 -10.707  13.206  1.00  0.00     0.026 A 
HETATM   23  C   UNL     1      41.861 -10.224  14.206  1.00  0.00     0.002 A 
HETATM   24  C   UNL     1      43.131  -9.752  13.877  1.00  0.00     0.003 A 
HETATM   25  C   UNL     1      43.558  -9.761  12.547  1.00  0.00     0.039 A 
ENDBRANCH  18  19
ENDBRANCH   3  18
TORSDOF 5
ENDMDL
MODEL 4
REMARK VINA RESULT:      -7.9      2.760      4.057
REMARK  5 active torsions:
REMARK  status: ('A' for Active; 'I' for Inactive)
REMARK    1  A    between atoms: C_2  and  N_3 
REMARK    2  A    between atoms: C_2  and  C_19 
REMARK       I    between atoms: N_3  and  C_4 
REMARK    3  A    between atoms: C_4  and  C_5 
REMARK    4  A    between atoms: C_7  and  O_8 
REMARK    5  A    between atoms: O_8  and  C_9 
ROOT
HETATM    1  C   UNL     1      42.509 -17.529   6.478  1.00  0.00     0.146 A 
HETATM    2  O   UNL     1      43.188 -18.086   5.424  1.00  0.00    -0.282 OA
HETATM    3  C   UNL     1      44.280 -18.715   5.946  1.00  0.00     0.191 A 
HETATM    4  C   UNL     1      44.286 -18.612   7.317  1.00  0.00     0.067 A 
HETATM    5  C   UNL     1      43.166 -17.819   7.659  1.00  0.00     0.048 A 
ENDROOT
BRANCH   1   6
HETATM    6  C   UNL     1      41.297 -16.773   6.232  1.00  0.00     0.276 C 
HETATM    7  N   UNL     1      41.478 -15.661   5.442  1.00  0.00    -0.347 N 
HETATM    8  H   UNL     1      42.420 -15.462   5.125  1.00  0.00     0.163 HD
HETATM    9  O   UNL     1      40.200 -17.099   6.675  1.00  0.00    -0.265 OA
BRANCH   7  10
HETATM   10  C   UNL     1      40.400 -14.751   5.117  1.00  0.00     0.114 C 
HETATM   11  C   UNL     1      40.650 -13.375   5.737  1.00  0.00     0.037 C 
BRANCH  10  12
HETATM   12  C   UNL     1      40.205 -14.690   3.615  1.00  0.00    -0.033 A 
HETATM   13  C   UNL     1      39.645 -13.546   3.032  1.00  0.00     0.028 A 
HETATM   14  C   UNL     1      39.465 -13.511   1.658  1.00  0.00     0.116 A 
HETATM   15  N   UNL     1      39.795 -14.526   0.833  1.00  0.00    -0.273 NA
HETATM   16  C   UNL     1      40.320 -15.627   1.410  1.00  0.00     0.116 A 
HETATM   17  C   UNL     1      40.540 -15.756   2.773  1.00  0.00     0.028 A 
ENDBRANCH  10  12
ENDBRANCH   7  10
ENDBRANCH   1   6
BRANCH   3  18
HETATM   18  O   UNL     1      45.080 -19.349   5.094  1.00  0.00    -0.286 OA
BRANCH  18  19
HETATM   19  C   UNL     1      44.584 -20.035   4.007  1.00  0.00     0.100 A 
HETATM   20  C   UNL     1      44.673 -21.432   4.007  1.00  0.00     0.068 A 
HETATM   21 CL   UNL     1      45.303 -22.293   5.365  1.00  0.00    -0.081 Cl
HETATM   22  C   UNL     1      44.255 -22.165   2.893  1.00  0.00     0.026 A 
HETATM   23  C   UNL     1      43.755 -21.504   1.770  1.00  0.00     0.002 A 
HETATM   24  C   UNL     1      43.674 -20.112   1.759  1.00  0.00     0.003 A 
HETATM   25  C   UNL     1      44.093 -19.378   2.871  1.00  0.00     0.039 A 
ENDBRANCH  18  19
ENDBRANCH   3  18
TORSDOF 5
ENDMDL
MODEL 5
REMARK VINA RESULT:      -7.9      4.761      5.970
REMARK  5 active torsions:
REMARK  status: ('A' for Active; 'I' for Inactive)
REMARK    1  A    between atoms: C_2  and  N_3 
REMARK    2  A    between atoms: C_2  and  C_19 
REMARK       I    between atoms: N_3  and  C_4 
REMARK    3  A    between atoms: C_4  and  C_5 
REMARK    4  A    between atoms: C_7  and  O_8 
REMARK    5  A    between atoms: O_8  and  C_9 
ROOT
HETATM    1  C   UNL     1      43.770 -16.637   6.701  1.00  0.00     0.146 A 
HETATM    2  O   UNL     1      44.541 -17.397   5.857  1.00  0.00    -0.282 OA
HETATM    3  C   UNL     1      44.395 -18.695   6.251  1.00  0.00     0.191 A 
HETATM    4  C   UNL     1      43.510 -18.784   7.299  1.00  0.00     0.067 A 
HETATM    5  C   UNL     1      43.134 -17.457   7.613  1.00  0.00     0.048 A 
ENDROOT
BRANCH   1   6
HETATM    6  C   UNL     1      43.734 -15.198   6.538  1.00  0.00     0.276 C 
HETATM    7  N   UNL     1      42.916 -14.767   5.519  1.00  0.00    -0.347 N 
HETATM    8  H   UNL     1      42.438 -15.475   4.974  1.00  0.00     0.163 HD
HETATM    9  O   UNL     1      44.365 -14.425   7.253  1.00  0.00    -0.265 OA
BRANCH   7  10
HETATM   10  C   UNL     1      42.777 -13.369   5.168  1.00  0.00     0.114 C 
HETATM   11  C   UNL     1      42.783 -13.191   3.649  1.00  0.00     0.037 C 
BRANCH  10  12
HETATM   12  C   UNL     1      41.539 -12.788   5.821  1.00  0.00    -0.033 A 
HETATM   13  C   UNL     1      40.286 -13.364   5.572  1.00  0.00     0.028 A 
HETATM   14  C   UNL     1      39.163 -12.815   6.170  1.00  0.00     0.116 A 
HETATM   15  N   UNL     1      39.198 -11.740   6.985  1.00  0.00    -0.273 NA
HETATM   16  C   UNL     1      40.409 -11.188   7.205  1.00  0.00     0.116 A 
HETATM   17  C   UNL     1      41.589 -11.665   6.655  1.00  0.00     0.028 A 
ENDBRANCH  10  12
ENDBRANCH   7  10
ENDBRANCH   1   6
BRANCH   3  18
HETATM   18  O   UNL     1      45.045 -19.618   5.549  1.00  0.00    -0.286 OA
BRANCH  18  19
HETATM   19  C   UNL     1      44.564 -20.088   4.347  1.00  0.00     0.100 A 
HETATM   20  C   UNL     1      44.695 -21.454   4.069  1.00  0.00     0.068 A 
HETATM   21 CL   UNL     1      45.357 -22.549   5.228  1.00  0.00    -0.081 Cl
HETATM   22  C   UNL     1      44.293 -21.962   2.831  1.00  0.00     0.026 A 
HETATM   23  C   UNL     1      43.768 -21.106   1.861  1.00  0.00     0.002 A 
HETATM   24  C   UNL     1      43.646 -19.743   2.128  1.00  0.00     0.003 A 
HETATM   25  C   UNL     1      44.049 -19.233   3.364  1.00  0.00     0.039 A 
ENDBRANCH  18  19
ENDBRANCH   3  18
TORSDOF 5
ENDMDL
MODEL 6
REMARK VINA RESULT:      -7.8      2.278      3.336
REMARK  5 active torsions:
REMARK  status: ('A' for Active; 'I' for Inactive)
REMARK    1  A    between atoms: C_2  and  N_3 
REMARK    2  A    between atoms: C_2  and  C_19 
REMARK       I    between atoms: N_3  and  C_4 
REMARK    3  A    between atoms: C_4  and  C_5 
REMARK    4  A    between atoms: C_7  and  O_8 
REMARK    5  A    between atoms: O_8  and  C_9 
ROOT
HETATM    1  C   UNL     1      42.466 -16.532   1.227  1.00  0.00     0.146 A 
HETATM    2  O   UNL     1      42.059 -17.012   2.446  1.00  0.00    -0.282 OA
HETATM    3  C   UNL     1      42.783 -18.142   2.687  1.00  0.00     0.191 A 
HETATM    4  C   UNL     1      43.678 -18.367   1.668  1.00  0.00     0.067 A 
HETATM    5  C   UNL     1      43.451 -17.352   0.710  1.00  0.00     0.048 A 
ENDROOT
BRANCH   1   6
HETATM    6  C   UNL     1      41.857 -15.332   0.688  1.00  0.00     0.276 C 
HETATM    7  N   UNL     1      41.612 -15.384  -0.665  1.00  0.00    -0.347 N 
HETATM    8  H   UNL     1      41.888 -16.225  -1.157  1.00  0.00     0.163 HD
HETATM    9  O   UNL     1      41.570 -14.357   1.376  1.00  0.00    -0.265 OA
BRANCH   7  10
HETATM   10  C   UNL     1      41.048 -14.270  -1.399  1.00  0.00     0.114 C 
HETATM   11  C   UNL     1      42.150 -13.475  -2.101  1.00  0.00     0.037 C 
BRANCH  10  12
HETATM   12  C   UNL     1      39.981 -14.763  -2.355  1.00  0.00    -0.033 A 
HETATM   13  C   UNL     1      38.707 -14.181  -2.336  1.00  0.00     0.028 A 
HETATM   14  C   UNL     1      37.740 -14.651  -3.211  1.00  0.00     0.116 A 
HETATM   15  N   UNL     1      37.949 -15.652  -4.091  1.00  0.00    -0.273 NA
HETATM   16  C   UNL     1      39.176 -16.212  -4.089  1.00  0.00     0.116 A 
HETATM   17  C   UNL     1      40.209 -15.811  -3.255  1.00  0.00     0.028 A 
ENDBRANCH  10  12
ENDBRANCH   7  10
ENDBRANCH   1   6
BRANCH   3  18
HETATM   18  O   UNL     1      42.564 -18.768   3.839  1.00  0.00    -0.286 OA
BRANCH  18  19
HETATM   19  C   UNL     1      43.172 -18.370   5.009  1.00  0.00     0.100 A 
HETATM   20  C   UNL     1      42.421 -17.627   5.927  1.00  0.00     0.068 A 
HETATM   21 CL   UNL     1      40.749 -17.287   5.657  1.00  0.00    -0.081 Cl
HETATM   22  C   UNL     1      43.018 -17.134   7.091  1.00  0.00     0.026 A 
HETATM   23  C   UNL     1      44.370 -17.374   7.338  1.00  0.00     0.002 A 
HETATM   24  C   UNL     1      45.126 -18.104   6.421  1.00  0.00     0.003 A 
HETATM   25  C   UNL     1      44.532 -18.595   5.257  1.00  0.00     0.039 A 
ENDBRANCH  18  19
ENDBRANCH   3  18
TORSDOF 5
ENDMDL
MODEL 7
REMARK VINA RESULT:      -7.6      1.989      2.686
REMARK  5 active torsions:
REMARK  status: ('A' for Active; 'I' for Inactive)
REMARK    1  A    between atoms: C_2  and  N_3 
REMARK    2  A    between atoms: C_2  and  C_19 
REMARK       I    between atoms: N_3  and  C_4 
REMARK    3  A    between atoms: C_4  and  C_5 
REMARK    4  A    between atoms: C_7  and  O_8 
REMARK    5  A    between atoms: O_8  and  C_9 
ROOT
HETATM    1  C   UNL     1      41.655 -16.435   1.004  1.00  0.00     0.146 A 
HETATM    2  O   UNL     1      42.790 -16.301   1.764  1.00  0.00    -0.282 OA
HETATM    3  C   UNL     1      43.046 -17.524   2.311  1.00  0.00     0.191 A 
HETATM    4  C   UNL     1      42.125 -18.448   1.877  1.00  0.00     0.067 A 
HETATM    5  C   UNL     1      41.208 -17.741   1.065  1.00  0.00     0.048 A 
ENDROOT
BRANCH   1   6
HETATM    6  C   UNL     1      41.121 -15.285   0.302  1.00  0.00     0.276 C 
HETATM    7  N   UNL     1      41.409 -15.263  -1.043  1.00  0.00    -0.347 N 
HETATM    8  H   UNL     1      41.969 -16.022  -1.413  1.00  0.00     0.163 HD
HETATM    9  O   UNL     1      40.458 -14.411   0.853  1.00  0.00    -0.265 OA
BRANCH   7  10
HETATM   10  C   UNL     1      41.002 -14.176  -1.910  1.00  0.00     0.114 C 
HETATM   11  C   UNL     1      42.186 -13.679  -2.742  1.00  0.00     0.037 C 
BRANCH  10  12
HETATM   12  C   UNL     1      39.825 -14.604  -2.763  1.00  0.00    -0.033 A 
HETATM   13  C   UNL     1      39.902 -15.783  -3.515  1.00  0.00     0.028 A 
HETATM   14  C   UNL     1      38.819 -16.154  -4.297  1.00  0.00     0.116 A 
HETATM   15  N   UNL     1      37.679 -15.438  -4.387  1.00  0.00    -0.273 NA
HETATM   16  C   UNL     1      37.624 -14.298  -3.668  1.00  0.00     0.116 A 
HETATM   17  C   UNL     1      38.653 -13.844  -2.855  1.00  0.00     0.028 A 
ENDBRANCH  10  12
ENDBRANCH   7  10
ENDBRANCH   1   6
BRANCH   3  18
HETATM   18  O   UNL     1      44.126 -17.631   3.078  1.00  0.00    -0.286 OA
BRANCH  18  19
HETATM   19  C   UNL     1      44.068 -18.177   4.341  1.00  0.00     0.100 A 
HETATM   20  C   UNL     1      44.391 -19.530   4.494  1.00  0.00     0.068 A 
HETATM   21 CL   UNL     1      44.938 -20.481   3.160  1.00  0.00    -0.081 Cl
HETATM   22  C   UNL     1      44.270 -20.147   5.742  1.00  0.00     0.026 A 
HETATM   23  C   UNL     1      43.817 -19.416   6.841  1.00  0.00     0.002 A 
HETATM   24  C   UNL     1      43.483 -18.070   6.693  1.00  0.00     0.003 A 
HETATM   25  C   UNL     1      43.601 -17.453   5.446  1.00  0.00     0.039 A 
ENDBRANCH  18  19
ENDBRANCH   3  18
TORSDOF 5
ENDMDL
MODEL 8
REMARK VINA RESULT:      -7.3      2.096      2.773
REMARK  5 active torsions:
REMARK  status: ('A' for Active; 'I' for Inactive)
REMARK    1  A    between atoms: C_2  and  N_3 
REMARK    2  A    between atoms: C_2  and  C_19 
REMARK       I    between atoms: N_3  and  C_4 
REMARK    3  A    between atoms: C_4  and  C_5 
REMARK    4  A    between atoms: C_7  and  O_8 
REMARK    5  A    between atoms: O_8  and  C_9 
ROOT
HETATM    1  C   UNL     1      41.898 -16.169   4.599  1.00  0.00     0.146 A 
HETATM    2  O   UNL     1      43.173 -16.571   4.285  1.00  0.00    -0.282 OA
HETATM    3  C   UNL     1      43.304 -17.852   4.734  1.00  0.00     0.191 A 
HETATM    4  C   UNL     1      42.124 -18.293   5.285  1.00  0.00     0.067 A 
HETATM    5  C   UNL     1      41.229 -17.199   5.232  1.00  0.00     0.048 A 
ENDROOT
BRANCH   1   6
HETATM    6  C   UNL     1      41.464 -14.829   4.258  1.00  0.00     0.276 C 
HETATM    7  N   UNL     1      41.217 -14.642   2.917  1.00  0.00    -0.347 N 
HETATM    8  H   UNL     1      41.374 -15.430   2.299  1.00  0.00     0.163 HD
HETATM    9  O   UNL     1      41.314 -13.939   5.089  1.00  0.00    -0.265 OA
BRANCH   7  10
HETATM   10  C   UNL     1      40.816 -13.363   2.368  1.00  0.00     0.114 C 
HETATM   11  C   UNL     1      42.041 -12.554   1.938  1.00  0.00     0.037 C 
BRANCH  10  12
HETATM   12  C   UNL     1      39.823 -13.568   1.242  1.00  0.00    -0.033 A 
HETATM   13  C   UNL     1      38.460 -13.708   1.534  1.00  0.00     0.028 A 
HETATM   14  C   UNL     1      37.567 -13.904   0.492  1.00  0.00     0.116 A 
HETATM   15  N   UNL     1      37.931 -13.975  -0.805  1.00  0.00    -0.273 NA
HETATM   16  C   UNL     1      39.249 -13.851  -1.069  1.00  0.00     0.116 A 
HETATM   17  C   UNL     1      40.218 -13.651  -0.098  1.00  0.00     0.028 A 
ENDBRANCH  10  12
ENDBRANCH   7  10
ENDBRANCH   1   6
BRANCH   3  18
HETATM   18  O   UNL     1      44.468 -18.455   4.514  1.00  0.00    -0.286 OA
BRANCH  18  19
HETATM   19  C   UNL     1      44.540 -19.774   4.124  1.00  0.00     0.100 A 
HETATM   20  C   UNL     1      44.255 -20.087   2.789  1.00  0.00     0.068 A 
HETATM   21 CL   UNL     1      43.911 -18.855   1.630  1.00  0.00    -0.081 Cl
HETATM   22  C   UNL     1      44.239 -21.418   2.367  1.00  0.00     0.026 A 
HETATM   23  C   UNL     1      44.497 -22.444   3.277  1.00  0.00     0.002 A 
HETATM   24  C   UNL     1      44.770 -22.139   4.610  1.00  0.00     0.003 A 
HETATM   25  C   UNL     1      44.785 -20.809   5.035  1.00  0.00     0.039 A 
ENDBRANCH  18  19
ENDBRANCH   3  18
TORSDOF 5
ENDMDL
MODEL 9
REMARK VINA RESULT:      -7.3      1.551      2.204
REMARK  5 active torsions:
REMARK  status: ('A' for Active; 'I' for Inactive)
REMARK    1  A    between atoms: C_2  and  N_3 
REMARK    2  A    between atoms: C_2  and  C_19 
REMARK       I    between atoms: N_3  and  C_4 
REMARK    3  A    between atoms: C_4  and  C_5 
REMARK    4  A    between atoms: C_7  and  O_8 
REMARK    5  A    between atoms: O_8  and  C_9 
ROOT
HETATM    1  C   UNL     1      40.462 -15.088   2.671  1.00  0.00     0.146 A 
HETATM    2  O   UNL     1      41.713 -15.525   2.312  1.00  0.00    -0.282 OA
HETATM    3  C   UNL     1      42.382 -15.798   3.468  1.00  0.00     0.191 A 
HETATM    4  C   UNL     1      41.569 -15.590   4.557  1.00  0.00     0.067 A 
HETATM    5  C   UNL     1      40.345 -15.099   4.048  1.00  0.00     0.048 A 
ENDROOT
BRANCH   1   6
HETATM    6  C   UNL     1      39.514 -14.704   1.645  1.00  0.00     0.276 C 
HETATM    7  N   UNL     1      40.049 -13.919   0.650  1.00  0.00    -0.347 N 
HETATM    8  H   UNL     1      41.028 -13.668   0.729  1.00  0.00     0.163 HD
HETATM    9  O   UNL     1      38.338 -15.056   1.651  1.00  0.00    -0.265 OA
BRANCH   7  10
HETATM   10  C   UNL     1      39.256 -13.394  -0.442  1.00  0.00     0.114 C 
HETATM   11  C   UNL     1      39.554 -11.910  -0.661  1.00  0.00     0.037 C 
BRANCH  10  12
HETATM   12  C   UNL     1      39.473 -14.226  -1.690  1.00  0.00    -0.033 A 
HETATM   13  C   UNL     1      38.460 -14.311  -2.654  1.00  0.00     0.028 A 
HETATM   14  C   UNL     1      38.672 -15.085  -3.785  1.00  0.00     0.116 A 
HETATM   15  N   UNL     1      39.807 -15.776  -4.018  1.00  0.00    -0.273 NA
HETATM   16  C   UNL     1      40.768 -15.695  -3.075  1.00  0.00     0.116 A 
HETATM   17  C   UNL     1      40.651 -14.948  -1.913  1.00  0.00     0.028 A 
ENDBRANCH  10  12
ENDBRANCH   7  10
ENDBRANCH   1   6
BRANCH   3  18
HETATM   18  O   UNL     1      43.624 -16.261   3.355  1.00  0.00    -0.286 OA
BRANCH  18  19
HETATM   19  C   UNL     1      43.911 -17.603   3.476  1.00  0.00     0.100 A 
HETATM   20  C   UNL     1      43.936 -18.383   2.314  1.00  0.00     0.068 A 
HETATM   21 CL   UNL     1      43.704 -17.681   0.753  1.00  0.00    -0.081 Cl
HETATM   22  C   UNL     1      44.145 -19.762   2.396  1.00  0.00     0.026 A 
HETATM   23  C   UNL     1      44.321 -20.370   3.640  1.00  0.00     0.002 A 
HETATM   24  C   UNL     1      44.286 -19.600   4.802  1.00  0.00     0.003 A 
HETATM   25  C   UNL     1      44.075 -18.221   4.722  1.00  0.00     0.039 A 
ENDBRANCH  18  19
ENDBRANCH   3  18
TORSDOF 5
ENDMDL
MODEL 10
REMARK VINA RESULT:      -7.3      3.719      8.424
REMARK  5 active torsions:
REMARK  status: ('A' for Active; 'I' for Inactive)
REMARK    1  A    between atoms: C_2  and  N_3 
REMARK    2  A    between atoms: C_2  and  C_19 
REMARK       I    between atoms: N_3  and  C_4 
REMARK    3  A    between atoms: C_4  and  C_5 
REMARK    4  A    between atoms: C_7  and  O_8 
REMARK    5  A    between atoms: O_8  and  C_9 
ROOT
HETATM    1  C   UNL     1      42.273 -15.916   1.158  1.00  0.00     0.146 A 
HETATM    2  O   UNL     1      41.905 -14.595   1.095  1.00  0.00    -0.282 OA
HETATM    3  C   UNL     1      41.193 -14.438  -0.058  1.00  0.00     0.191 A 
HETATM    4  C   UNL     1      41.058 -15.641  -0.708  1.00  0.00     0.067 A 
HETATM    5  C   UNL     1      41.782 -16.587   0.054  1.00  0.00     0.048 A 
ENDROOT
BRANCH   1   6
HETATM    6  C   UNL     1      43.062 -16.388   2.277  1.00  0.00     0.276 C 
HETATM    7  N   UNL     1      42.935 -17.735   2.527  1.00  0.00    -0.347 N 
HETATM    8  H   UNL     1      42.303 -18.262   1.936  1.00  0.00     0.163 HD
HETATM    9  O   UNL     1      43.794 -15.657   2.939  1.00  0.00    -0.265 OA
BRANCH   7  10
HETATM   10  C   UNL     1      43.608 -18.391   3.629  1.00  0.00     0.114 C 
HETATM   11  C   UNL     1      42.777 -18.285   4.909  1.00  0.00     0.037 C 
BRANCH  10  12
HETATM   12  C   UNL     1      43.936 -19.824   3.260  1.00  0.00    -0.033 A 
HETATM   13  C   UNL     1      43.607 -20.307   1.987  1.00  0.00     0.028 A 
HETATM   14  C   UNL     1      43.905 -21.623   1.670  1.00  0.00     0.116 A 
HETATM   15  N   UNL     1      44.497 -22.484   2.524  1.00  0.00    -0.273 NA
HETATM   16  C   UNL     1      44.796 -22.009   3.750  1.00  0.00     0.116 A 
HETATM   17  C   UNL     1      44.540 -20.709   4.161  1.00  0.00     0.028 A 
ENDBRANCH  10  12
ENDBRANCH   7  10
ENDBRANCH   1   6
BRANCH   3  18
HETATM   18  O   UNL     1      40.715 -13.224  -0.314  1.00  0.00    -0.286 OA
BRANCH  18  19
HETATM   19  C   UNL     1      41.413 -12.315  -1.078  1.00  0.00     0.100 A 
HETATM   20  C   UNL     1      41.104 -12.218  -2.440  1.00  0.00     0.068 A 
HETATM   21 CL   UNL     1      39.822 -13.139  -3.140  1.00  0.00    -0.081 Cl
HETATM   22  C   UNL     1      41.839 -11.367  -3.270  1.00  0.00     0.026 A 
HETATM   23  C   UNL     1      42.893 -10.617  -2.745  1.00  0.00     0.002 A 
HETATM   24  C   UNL     1      43.213 -10.719  -1.391  1.00  0.00     0.003 A 
HETATM   25  C   UNL     1      42.481 -11.570  -0.561  1.00  0.00     0.039 A 
ENDBRANCH  18  19
ENDBRANCH   3  18
TORSDOF 5
ENDMDL
