MODEL 1
REMARK VINA RESULT:      -8.6      0.000      0.000
REMARK  5 active torsions:
REMARK  status: ('A' for Active; 'I' for Inactive)
REMARK    1  A    between atoms: C_2  and  O_3 
REMARK    2  A    between atoms: O_3  and  C_4 
REMARK    3  A    between atoms: C_5  and  N_6 
REMARK       I    between atoms: N_6  and  C_7 
REMARK    4  A    between atoms: C_7  and  C_8 
REMARK    5  A    between atoms: C_9  and  C_10 
ROOT
HETATM    1  N   UNL     1      42.053 -14.749  -0.843  1.00  0.00    -0.321 N 
HETATM    2  C   UNL     1      41.051 -15.122   0.028  1.00  0.00     0.245 C 
HETATM    3  O   UNL     1      39.903 -14.705   0.086  1.00  0.00    -0.268 OA
HETATM    4  H   UNL     1      42.827 -15.392  -0.936  1.00  0.00     0.169 HD
ENDROOT
BRANCH   1   5
HETATM    5  C   UNL     1      42.060 -13.666  -1.755  1.00  0.00     0.071 A 
HETATM    6  C   UNL     1      41.606 -13.708  -3.094  1.00  0.00     0.096 A 
HETATM    7  C   UNL     1      41.698 -12.583  -3.931  1.00  0.00     0.049 A 
HETATM    8  C   UNL     1      42.158 -11.399  -3.390  1.00  0.00    -0.020 A 
HETATM    9  C   UNL     1      42.539 -11.335  -2.064  1.00  0.00     0.078 A 
HETATM   10  C   UNL     1      42.372 -10.083  -4.031  1.00  0.00     0.073 C 
HETATM   11  C   UNL     1      42.505 -12.440  -1.235  1.00  0.00     0.069 A 
HETATM   12  O   UNL     1      42.951 -10.089  -1.668  1.00  0.00    -0.345 OA
HETATM   13  C   UNL     1      42.584  -9.222  -2.774  1.00  0.00     0.129 C 
HETATM   14  C   UNL     1      41.335  -8.437  -2.380  1.00  0.00     0.040 C 
BRANCH   6  15
HETATM   15  O   UNL     1      41.034 -14.835  -3.619  1.00  0.00    -0.349 OA
BRANCH  15  16
HETATM   16  C   UNL     1      39.605 -14.807  -3.543  1.00  0.00     0.171 C 
HETATM   17  C   UNL     1      39.051 -16.073  -4.171  1.00  0.00     0.034 C 
ENDBRANCH  15  16
ENDBRANCH   6  15
ENDBRANCH   1   5
BRANCH   2  18
HETATM   18  C   UNL     1      41.498 -16.223   0.928  1.00  0.00     0.077 C 
HETATM   19  C   UNL     1      42.797 -16.554   0.973  1.00  0.00     0.043 C 
BRANCH  19  20
HETATM   20  C   UNL     1      43.247 -17.621   1.798  1.00  0.00     0.077 A 
HETATM   21  O   UNL     1      43.439 -18.913   1.354  1.00  0.00    -0.310 OA
HETATM   22  C   UNL     1      43.878 -19.664   2.397  1.00  0.00     0.086 A 
HETATM   23  C   UNL     1      43.986 -18.887   3.538  1.00  0.00     0.000 A 
HETATM   24  C   UNL     1      44.184 -21.022   2.343  1.00  0.00     0.038 A 
HETATM   25  C   UNL     1      43.577 -17.587   3.149  1.00  0.00     0.051 A 
HETATM   26  C   UNL     1      44.435 -19.491   4.725  1.00  0.00     0.014 A 
HETATM   27  C   UNL     1      44.754 -20.856   4.705  1.00  0.00     0.001 A 
HETATM   28  C   UNL     1      44.628 -21.608   3.533  1.00  0.00     0.003 A 
ENDBRANCH  19  20
ENDBRANCH   2  18
TORSDOF 5
ENDMDL
MODEL 2
REMARK VINA RESULT:      -8.5      8.337     11.416
REMARK  5 active torsions:
REMARK  status: ('A' for Active; 'I' for Inactive)
REMARK    1  A    between atoms: C_2  and  O_3 
REMARK    2  A    between atoms: O_3  and  C_4 
REMARK    3  A    between atoms: C_5  and  N_6 
REMARK       I    between atoms: N_6  and  C_7 
REMARK    4  A    between atoms: C_7  and  C_8 
REMARK    5  A    between atoms: C_9  and  C_10 
ROOT
HETATM    1  N   UNL     1      43.827 -13.819   7.387  1.00  0.00    -0.321 N 
HETATM    2  C   UNL     1      44.998 -13.182   7.739  1.00  0.00     0.245 C 
HETATM    3  O   UNL     1      46.083 -13.229   7.179  1.00  0.00    -0.268 OA
HETATM    4  H   UNL     1      42.976 -13.442   7.781  1.00  0.00     0.169 HD
ENDROOT
BRANCH   1   5
HETATM    5  C   UNL     1      43.639 -14.826   6.409  1.00  0.00     0.071 A 
HETATM    6  C   UNL     1      43.500 -14.614   5.018  1.00  0.00     0.096 A 
HETATM    7  C   UNL     1      43.274 -15.685   4.136  1.00  0.00     0.049 A 
HETATM    8  C   UNL     1      43.282 -16.968   4.646  1.00  0.00    -0.020 A 
HETATM    9  C   UNL     1      43.486 -17.186   5.995  1.00  0.00     0.078 A 
HETATM   10  C   UNL     1      43.059 -18.261   3.964  1.00  0.00     0.073 C 
HETATM   11  C   UNL     1      43.659 -16.146   6.889  1.00  0.00     0.069 A 
HETATM   12  O   UNL     1      43.489 -18.510   6.346  1.00  0.00    -0.345 OA
HETATM   13  C   UNL     1      43.522 -19.216   5.077  1.00  0.00     0.129 C 
HETATM   14  C   UNL     1      44.939 -19.740   4.851  1.00  0.00     0.040 C 
BRANCH   6  15
HETATM   15  O   UNL     1      43.609 -13.364   4.472  1.00  0.00    -0.349 OA
BRANCH  15  16
HETATM   16  C   UNL     1      42.378 -12.912   3.899  1.00  0.00     0.171 C 
HETATM   17  C   UNL     1      41.649 -12.046   4.911  1.00  0.00     0.034 C 
ENDBRANCH  15  16
ENDBRANCH   6  15
ENDBRANCH   1   5
BRANCH   2  18
HETATM   18  C   UNL     1      44.797 -12.296   8.921  1.00  0.00     0.077 C 
HETATM   19  C   UNL     1      43.584 -11.781   9.163  1.00  0.00     0.043 C 
BRANCH  19  20
HETATM   20  C   UNL     1      43.371 -10.908  10.265  1.00  0.00     0.077 A 
HETATM   21  O   UNL     1      42.660  -9.728  10.191  1.00  0.00    -0.310 OA
HETATM   22  C   UNL     1      42.648  -9.155  11.421  1.00  0.00     0.086 A 
HETATM   23  C   UNL     1      43.344  -9.941  12.325  1.00  0.00     0.000 A 
HETATM   24  C   UNL     1      42.027  -7.952  11.748  1.00  0.00     0.038 A 
HETATM   25  C   UNL     1      43.806 -11.054  11.578  1.00  0.00     0.051 A 
HETATM   26  C   UNL     1      43.436  -9.513  13.661  1.00  0.00     0.014 A 
HETATM   27  C   UNL     1      42.820  -8.307  14.023  1.00  0.00     0.001 A 
HETATM   28  C   UNL     1      42.129  -7.540  13.081  1.00  0.00     0.003 A 
ENDBRANCH  19  20
ENDBRANCH   2  18
TORSDOF 5
ENDMDL
MODEL 3
REMARK VINA RESULT:      -8.5      8.483     10.575
REMARK  5 active torsions:
REMARK  status: ('A' for Active; 'I' for Inactive)
REMARK    1  A    between atoms: C_2  and  O_3 
REMARK    2  A    between atoms: O_3  and  C_4 
REMARK    3  A    between atoms: C_5  and  N_6 
REMARK       I    between atoms: N_6  and  C_7 
REMARK    4  A    between atoms: C_7  and  C_8 
REMARK    5  A    between atoms: C_9  and  C_10 
ROOT
HETATM    1  N   UNL     1      43.834 -12.595   8.574  1.00  0.00    -0.321 N 
HETATM    2  C   UNL     1      45.094 -12.823   8.063  1.00  0.00     0.245 C 
HETATM    3  O   UNL     1      46.133 -12.233   8.319  1.00  0.00    -0.268 OA
HETATM    4  H   UNL     1      43.168 -13.349   8.477  1.00  0.00     0.169 HD
ENDROOT
BRANCH   1   5
HETATM    5  C   UNL     1      43.397 -11.509   9.372  1.00  0.00     0.071 A 
HETATM    6  C   UNL     1      42.424 -10.551   9.004  1.00  0.00     0.096 A 
HETATM    7  C   UNL     1      42.093  -9.484   9.856  1.00  0.00     0.049 A 
HETATM    8  C   UNL     1      42.673  -9.440  11.108  1.00  0.00    -0.020 A 
HETATM    9  C   UNL     1      43.573 -10.412  11.499  1.00  0.00     0.078 A 
HETATM   10  C   UNL     1      42.524  -8.440  12.189  1.00  0.00     0.073 C 
HETATM   11  C   UNL     1      43.953 -11.442  10.660  1.00  0.00     0.069 A 
HETATM   12  O   UNL     1      44.046 -10.246  12.775  1.00  0.00    -0.345 OA
HETATM   13  C   UNL     1      43.200  -9.208  13.337  1.00  0.00     0.129 C 
HETATM   14  C   UNL     1      42.193  -9.862  14.281  1.00  0.00     0.040 C 
BRANCH   6  15
HETATM   15  O   UNL     1      41.746 -10.641   7.819  1.00  0.00    -0.349 OA
BRANCH  15  16
HETATM   16  C   UNL     1      40.388 -10.203   7.933  1.00  0.00     0.171 C 
HETATM   17  C   UNL     1      39.503 -11.405   8.211  1.00  0.00     0.034 C 
ENDBRANCH  15  16
ENDBRANCH   6  15
ENDBRANCH   1   5
BRANCH   2  18
HETATM   18  C   UNL     1      45.102 -13.998   7.146  1.00  0.00     0.077 C 
HETATM   19  C   UNL     1      44.148 -14.933   7.262  1.00  0.00     0.043 C 
BRANCH  19  20
HETATM   20  C   UNL     1      44.149 -16.080   6.422  1.00  0.00     0.077 A 
HETATM   21  O   UNL     1      43.513 -16.143   5.199  1.00  0.00    -0.310 OA
HETATM   22  C   UNL     1      43.725 -17.374   4.668  1.00  0.00     0.086 A 
HETATM   23  C   UNL     1      44.500 -18.141   5.522  1.00  0.00     0.000 A 
HETATM   24  C   UNL     1      43.241 -17.820   3.439  1.00  0.00     0.038 A 
HETATM   25  C   UNL     1      44.761 -17.310   6.640  1.00  0.00     0.051 A 
HETATM   26  C   UNL     1      44.832 -19.452   5.138  1.00  0.00     0.014 A 
HETATM   27  C   UNL     1      44.364 -19.930   3.906  1.00  0.00     0.001 A 
HETATM   28  C   UNL     1      43.580 -19.127   3.073  1.00  0.00     0.003 A 
ENDBRANCH  19  20
ENDBRANCH   2  18
TORSDOF 5
ENDMDL
MODEL 4
REMARK VINA RESULT:      -8.4      1.619      2.385
REMARK  5 active torsions:
REMARK  status: ('A' for Active; 'I' for Inactive)
REMARK    1  A    between atoms: C_2  and  O_3 
REMARK    2  A    between atoms: O_3  and  C_4 
REMARK    3  A    between atoms: C_5  and  N_6 
REMARK       I    between atoms: N_6  and  C_7 
REMARK    4  A    between atoms: C_7  and  C_8 
REMARK    5  A    between atoms: C_9  and  C_10 
ROOT
HETATM    1  N   UNL     1      41.205 -15.352  -0.969  1.00  0.00    -0.321 N 
HETATM    2  C   UNL     1      41.695 -15.296   0.319  1.00  0.00     0.245 C 
HETATM    3  O   UNL     1      41.794 -14.323   1.051  1.00  0.00    -0.268 OA
HETATM    4  H   UNL     1      40.930 -16.264  -1.305  1.00  0.00     0.169 HD
ENDROOT
BRANCH   1   5
HETATM    5  C   UNL     1      40.875 -14.273  -1.826  1.00  0.00     0.071 A 
HETATM    6  C   UNL     1      39.584 -13.728  -2.011  1.00  0.00     0.096 A 
HETATM    7  C   UNL     1      39.357 -12.682  -2.921  1.00  0.00     0.049 A 
HETATM    8  C   UNL     1      40.444 -12.129  -3.569  1.00  0.00    -0.020 A 
HETATM    9  C   UNL     1      41.717 -12.613  -3.341  1.00  0.00     0.078 A 
HETATM   10  C   UNL     1      40.499 -11.047  -4.576  1.00  0.00     0.073 C 
HETATM   11  C   UNL     1      41.959 -13.674  -2.489  1.00  0.00     0.069 A 
HETATM   12  O   UNL     1      42.693 -11.950  -4.038  1.00  0.00    -0.345 OA
HETATM   13  C   UNL     1      42.015 -10.788  -4.585  1.00  0.00     0.129 C 
HETATM   14  C   UNL     1      42.408  -9.564  -3.760  1.00  0.00     0.040 C 
BRANCH   6  15
HETATM   15  O   UNL     1      38.510 -14.177  -1.291  1.00  0.00    -0.349 OA
BRANCH  15  16
HETATM   16  C   UNL     1      38.242 -13.361  -0.146  1.00  0.00     0.171 C 
HETATM   17  C   UNL     1      38.025 -14.257   1.060  1.00  0.00     0.034 C 
ENDBRANCH  15  16
ENDBRANCH   6  15
ENDBRANCH   1   5
BRANCH   2  18
HETATM   18  C   UNL     1      42.059 -16.653   0.817  1.00  0.00     0.077 C 
HETATM   19  C   UNL     1      43.084 -16.791   1.671  1.00  0.00     0.043 C 
BRANCH  19  20
HETATM   20  C   UNL     1      43.474 -18.076   2.138  1.00  0.00     0.077 A 
HETATM   21  O   UNL     1      44.000 -18.318   3.390  1.00  0.00    -0.310 OA
HETATM   22  C   UNL     1      44.250 -19.648   3.501  1.00  0.00     0.086 A 
HETATM   23  C   UNL     1      43.894 -20.304   2.335  1.00  0.00     0.000 A 
HETATM   24  C   UNL     1      44.785 -20.279   4.622  1.00  0.00     0.038 A 
HETATM   25  C   UNL     1      43.405 -19.294   1.469  1.00  0.00     0.051 A 
HETATM   26  C   UNL     1      44.073 -21.697   2.263  1.00  0.00     0.014 A 
HETATM   27  C   UNL     1      44.607 -22.363   3.375  1.00  0.00     0.001 A 
HETATM   28  C   UNL     1      44.958 -21.665   4.534  1.00  0.00     0.003 A 
ENDBRANCH  19  20
ENDBRANCH   2  18
TORSDOF 5
ENDMDL
MODEL 5
REMARK VINA RESULT:      -7.9      2.064      9.785
REMARK  5 active torsions:
REMARK  status: ('A' for Active; 'I' for Inactive)
REMARK    1  A    between atoms: C_2  and  O_3 
REMARK    2  A    between atoms: O_3  and  C_4 
REMARK    3  A    between atoms: C_5  and  N_6 
REMARK       I    between atoms: N_6  and  C_7 
REMARK    4  A    between atoms: C_7  and  C_8 
REMARK    5  A    between atoms: C_9  and  C_10 
ROOT
HETATM    1  N   UNL     1      42.560 -16.772   2.061  1.00  0.00    -0.321 N 
HETATM    2  C   UNL     1      41.502 -16.853   1.180  1.00  0.00     0.245 C 
HETATM    3  O   UNL     1      40.523 -17.582   1.237  1.00  0.00    -0.268 OA
HETATM    4  H   UNL     1      43.117 -15.929   2.016  1.00  0.00     0.169 HD
ENDROOT
BRANCH   1   5
HETATM    5  C   UNL     1      42.869 -17.637   3.139  1.00  0.00     0.071 A 
HETATM    6  C   UNL     1      42.200 -17.680   4.384  1.00  0.00     0.096 A 
HETATM    7  C   UNL     1      42.616 -18.550   5.405  1.00  0.00     0.049 A 
HETATM    8  C   UNL     1      43.639 -19.437   5.136  1.00  0.00    -0.020 A 
HETATM    9  C   UNL     1      44.251 -19.447   3.898  1.00  0.00     0.078 A 
HETATM   10  C   UNL     1      44.282 -20.439   6.013  1.00  0.00     0.073 C 
HETATM   11  C   UNL     1      43.894 -18.566   2.894  1.00  0.00     0.069 A 
HETATM   12  O   UNL     1      45.232 -20.395   3.774  1.00  0.00    -0.345 OA
HETATM   13  C   UNL     1      45.080 -21.223   4.959  1.00  0.00     0.129 C 
HETATM   14  C   UNL     1      44.398 -22.528   4.553  1.00  0.00     0.040 C 
BRANCH   6  15
HETATM   15  O   UNL     1      41.106 -16.896   4.634  1.00  0.00    -0.349 OA
BRANCH  15  16
HETATM   16  C   UNL     1      41.242 -16.142   5.842  1.00  0.00     0.171 C 
HETATM   17  C   UNL     1      41.978 -14.849   5.540  1.00  0.00     0.034 C 
ENDBRANCH  15  16
ENDBRANCH   6  15
ENDBRANCH   1   5
BRANCH   2  18
HETATM   18  C   UNL     1      41.624 -15.839   0.094  1.00  0.00     0.077 C 
HETATM   19  C   UNL     1      41.962 -14.578   0.401  1.00  0.00     0.043 C 
BRANCH  19  20
HETATM   20  C   UNL     1      42.054 -13.583  -0.610  1.00  0.00     0.077 A 
HETATM   21  O   UNL     1      42.522 -12.303  -0.396  1.00  0.00    -0.310 OA
HETATM   22  C   UNL     1      42.481 -11.628  -1.573  1.00  0.00     0.086 A 
HETATM   23  C   UNL     1      41.991 -12.443  -2.579  1.00  0.00     0.000 A 
HETATM   24  C   UNL     1      42.874 -10.305  -1.760  1.00  0.00     0.038 A 
HETATM   25  C   UNL     1      41.716 -13.686  -1.956  1.00  0.00     0.051 A 
HETATM   26  C   UNL     1      41.880 -11.919  -3.879  1.00  0.00     0.014 A 
HETATM   27  C   UNL     1      42.271 -10.591  -4.102  1.00  0.00     0.001 A 
HETATM   28  C   UNL     1      42.758  -9.798  -3.059  1.00  0.00     0.003 A 
ENDBRANCH  19  20
ENDBRANCH   2  18
TORSDOF 5
ENDMDL
MODEL 6
REMARK VINA RESULT:      -7.9      3.119      3.746
REMARK  5 active torsions:
REMARK  status: ('A' for Active; 'I' for Inactive)
REMARK    1  A    between atoms: C_2  and  O_3 
REMARK    2  A    between atoms: O_3  and  C_4 
REMARK    3  A    between atoms: C_5  and  N_6 
REMARK       I    between atoms: N_6  and  C_7 
REMARK    4  A    between atoms: C_7  and  C_8 
REMARK    5  A    between atoms: C_9  and  C_10 
ROOT
HETATM    1  N   UNL     1      39.608 -14.990   0.738  1.00  0.00    -0.321 N 
HETATM    2  C   UNL     1      40.984 -15.074   0.778  1.00  0.00     0.245 C 
HETATM    3  O   UNL     1      41.805 -14.228   0.454  1.00  0.00    -0.268 OA
HETATM    4  H   UNL     1      39.102 -15.655   1.306  1.00  0.00     0.169 HD
ENDROOT
BRANCH   1   5
HETATM    5  C   UNL     1      38.811 -13.985   0.139  1.00  0.00     0.071 A 
HETATM    6  C   UNL     1      38.575 -13.831  -1.246  1.00  0.00     0.096 A 
HETATM    7  C   UNL     1      37.799 -12.768  -1.740  1.00  0.00     0.049 A 
HETATM    8  C   UNL     1      37.190 -11.924  -0.834  1.00  0.00    -0.020 A 
HETATM    9  C   UNL     1      37.361 -12.110   0.524  1.00  0.00     0.078 A 
HETATM   10  C   UNL     1      36.344 -10.732  -1.067  1.00  0.00     0.073 C 
HETATM   11  C   UNL     1      38.160 -13.117   1.032  1.00  0.00     0.069 A 
HETATM   12  O   UNL     1      36.678 -11.208   1.296  1.00  0.00    -0.345 OA
HETATM   13  C   UNL     1      35.804 -10.524   0.358  1.00  0.00     0.129 C 
HETATM   14  C   UNL     1      34.386 -11.064   0.534  1.00  0.00     0.040 C 
BRANCH   6  15
HETATM   15  O   UNL     1      39.068 -14.724  -2.158  1.00  0.00    -0.349 OA
BRANCH  15  16
HETATM   16  C   UNL     1      38.340 -14.702  -3.390  1.00  0.00     0.171 C 
HETATM   17  C   UNL     1      38.728 -15.916  -4.216  1.00  0.00     0.034 C 
ENDBRANCH  15  16
ENDBRANCH   6  15
ENDBRANCH   1   5
BRANCH   2  18
HETATM   18  C   UNL     1      41.430 -16.368   1.368  1.00  0.00     0.077 C 
HETATM   19  C   UNL     1      42.740 -16.603   1.535  1.00  0.00     0.043 C 
BRANCH  19  20
HETATM   20  C   UNL     1      43.194 -17.841   2.065  1.00  0.00     0.077 A 
HETATM   21  O   UNL     1      43.181 -19.033   1.369  1.00  0.00    -0.310 OA
HETATM   22  C   UNL     1      43.690 -20.003   2.170  1.00  0.00     0.086 A 
HETATM   23  C   UNL     1      44.049 -19.475   3.399  1.00  0.00     0.000 A 
HETATM   24  C   UNL     1      43.841 -21.344   1.821  1.00  0.00     0.038 A 
HETATM   25  C   UNL     1      43.724 -18.097   3.326  1.00  0.00     0.051 A 
HETATM   26  C   UNL     1      44.605 -20.332   4.365  1.00  0.00     0.014 A 
HETATM   27  C   UNL     1      44.773 -21.686   4.044  1.00  0.00     0.001 A 
HETATM   28  C   UNL     1      44.395 -22.183   2.794  1.00  0.00     0.003 A 
ENDBRANCH  19  20
ENDBRANCH   2  18
TORSDOF 5
ENDMDL
MODEL 7
REMARK VINA RESULT:      -7.8      2.438      3.684
REMARK  5 active torsions:
REMARK  status: ('A' for Active; 'I' for Inactive)
REMARK    1  A    between atoms: C_2  and  O_3 
REMARK    2  A    between atoms: O_3  and  C_4 
REMARK    3  A    between atoms: C_5  and  N_6 
REMARK       I    between atoms: N_6  and  C_7 
REMARK    4  A    between atoms: C_7  and  C_8 
REMARK    5  A    between atoms: C_9  and  C_10 
ROOT
HETATM    1  N   UNL     1      41.917 -14.629   1.575  1.00  0.00    -0.321 N 
HETATM    2  C   UNL     1      42.935 -14.629   2.506  1.00  0.00     0.245 C 
HETATM    3  O   UNL     1      43.533 -13.671   2.974  1.00  0.00    -0.268 OA
HETATM    4  H   UNL     1      41.355 -15.468   1.527  1.00  0.00     0.169 HD
ENDROOT
BRANCH   1   5
HETATM    5  C   UNL     1      41.444 -13.545   0.797  1.00  0.00     0.071 A 
HETATM    6  C   UNL     1      40.713 -12.435   1.280  1.00  0.00     0.096 A 
HETATM    7  C   UNL     1      40.252 -11.432   0.411  1.00  0.00     0.049 A 
HETATM    8  C   UNL     1      40.609 -11.501  -0.920  1.00  0.00    -0.020 A 
HETATM    9  C   UNL     1      41.382 -12.547  -1.386  1.00  0.00     0.078 A 
HETATM   10  C   UNL     1      40.258 -10.607  -2.045  1.00  0.00     0.073 C 
HETATM   11  C   UNL     1      41.804 -13.573  -0.561  1.00  0.00     0.069 A 
HETATM   12  O   UNL     1      41.672 -12.467  -2.722  1.00  0.00    -0.345 OA
HETATM   13  C   UNL     1      41.244 -11.132  -3.102  1.00  0.00     0.129 C 
HETATM   14  C   UNL     1      42.482 -10.248  -3.243  1.00  0.00     0.040 C 
BRANCH   6  15
HETATM   15  O   UNL     1      40.449 -12.281   2.614  1.00  0.00    -0.349 OA
BRANCH  15  16
HETATM   16  C   UNL     1      39.062 -12.458   2.918  1.00  0.00     0.171 C 
HETATM   17  C   UNL     1      38.647 -11.426   3.952  1.00  0.00     0.034 C 
ENDBRANCH  15  16
ENDBRANCH   6  15
ENDBRANCH   1   5
BRANCH   2  18
HETATM   18  C   UNL     1      43.225 -16.008   2.990  1.00  0.00     0.077 C 
HETATM   19  C   UNL     1      43.656 -16.937   2.125  1.00  0.00     0.043 C 
BRANCH  19  20
HETATM   20  C   UNL     1      43.910 -18.268   2.553  1.00  0.00     0.077 A 
HETATM   21  O   UNL     1      44.242 -18.615   3.846  1.00  0.00    -0.310 OA
HETATM   22  C   UNL     1      44.404 -19.961   3.902  1.00  0.00     0.086 A 
HETATM   23  C   UNL     1      44.183 -20.525   2.657  1.00  0.00     0.000 A 
HETATM   24  C   UNL     1      44.743 -20.689   5.041  1.00  0.00     0.038 A 
HETATM   25  C   UNL     1      43.874 -19.438   1.801  1.00  0.00     0.051 A 
HETATM   26  C   UNL     1      44.299 -21.919   2.516  1.00  0.00     0.014 A 
HETATM   27  C   UNL     1      44.636 -22.681   3.644  1.00  0.00     0.001 A 
HETATM   28  C   UNL     1      44.856 -22.075   4.884  1.00  0.00     0.003 A 
ENDBRANCH  19  20
ENDBRANCH   2  18
TORSDOF 5
ENDMDL
MODEL 8
REMARK VINA RESULT:      -7.8      1.851      2.519
REMARK  5 active torsions:
REMARK  status: ('A' for Active; 'I' for Inactive)
REMARK    1  A    between atoms: C_2  and  O_3 
REMARK    2  A    between atoms: O_3  and  C_4 
REMARK    3  A    between atoms: C_5  and  N_6 
REMARK       I    between atoms: N_6  and  C_7 
REMARK    4  A    between atoms: C_7  and  C_8 
REMARK    5  A    between atoms: C_9  and  C_10 
ROOT
HETATM    1  N   UNL     1      41.872 -14.528   0.668  1.00  0.00    -0.321 N 
HETATM    2  C   UNL     1      41.601 -15.778   0.152  1.00  0.00     0.245 C 
HETATM    3  O   UNL     1      41.158 -16.062  -0.950  1.00  0.00    -0.268 OA
HETATM    4  H   UNL     1      42.495 -14.497   1.463  1.00  0.00     0.169 HD
ENDROOT
BRANCH   1   5
HETATM    5  C   UNL     1      41.529 -13.265   0.126  1.00  0.00     0.071 A 
HETATM    6  C   UNL     1      40.480 -12.429   0.574  1.00  0.00     0.096 A 
HETATM    7  C   UNL     1      40.196 -11.210  -0.065  1.00  0.00     0.049 A 
HETATM    8  C   UNL     1      41.026 -10.796  -1.087  1.00  0.00    -0.020 A 
HETATM    9  C   UNL     1      42.094 -11.577  -1.484  1.00  0.00     0.078 A 
HETATM   10  C   UNL     1      40.957  -9.585  -1.934  1.00  0.00     0.073 C 
HETATM   11  C   UNL     1      42.363 -12.803  -0.906  1.00  0.00     0.069 A 
HETATM   12  O   UNL     1      42.838 -11.025  -2.494  1.00  0.00    -0.345 OA
HETATM   13  C   UNL     1      42.342  -9.663  -2.598  1.00  0.00     0.129 C 
HETATM   14  C   UNL     1      43.360  -8.726  -1.950  1.00  0.00     0.040 C 
BRANCH   6  15
HETATM   15  O   UNL     1      39.719 -12.759   1.662  1.00  0.00    -0.349 OA
BRANCH  15  16
HETATM   16  C   UNL     1      38.337 -12.922   1.330  1.00  0.00     0.171 C 
HETATM   17  C   UNL     1      38.051 -14.397   1.110  1.00  0.00     0.034 C 
ENDBRANCH  15  16
ENDBRANCH   6  15
ENDBRANCH   1   5
BRANCH   2  18
HETATM   18  C   UNL     1      41.995 -16.853   1.106  1.00  0.00     0.077 C 
HETATM   19  C   UNL     1      43.184 -17.458   0.967  1.00  0.00     0.043 C 
BRANCH  19  20
HETATM   20  C   UNL     1      43.572 -18.509   1.842  1.00  0.00     0.077 A 
HETATM   21  O   UNL     1      43.642 -19.837   1.474  1.00  0.00    -0.310 OA
HETATM   22  C   UNL     1      44.052 -20.559   2.548  1.00  0.00     0.086 A 
HETATM   23  C   UNL     1      44.261 -19.728   3.636  1.00  0.00     0.000 A 
HETATM   24  C   UNL     1      44.243 -21.939   2.569  1.00  0.00     0.038 A 
HETATM   25  C   UNL     1      43.947 -18.424   3.179  1.00  0.00     0.051 A 
HETATM   26  C   UNL     1      44.698 -20.297   4.845  1.00  0.00     0.014 A 
HETATM   27  C   UNL     1      44.903 -21.683   4.900  1.00  0.00     0.001 A 
HETATM   28  C   UNL     1      44.677 -22.489   3.781  1.00  0.00     0.003 A 
ENDBRANCH  19  20
ENDBRANCH   2  18
TORSDOF 5
ENDMDL
MODEL 9
REMARK VINA RESULT:      -7.6      6.420      8.198
REMARK  5 active torsions:
REMARK  status: ('A' for Active; 'I' for Inactive)
REMARK    1  A    between atoms: C_2  and  O_3 
REMARK    2  A    between atoms: O_3  and  C_4 
REMARK    3  A    between atoms: C_5  and  N_6 
REMARK       I    between atoms: N_6  and  C_7 
REMARK    4  A    between atoms: C_7  and  C_8 
REMARK    5  A    between atoms: C_9  and  C_10 
ROOT
HETATM    1  N   UNL     1      42.360 -13.241   6.259  1.00  0.00    -0.321 N 
HETATM    2  C   UNL     1      42.831 -13.523   4.994  1.00  0.00     0.245 C 
HETATM    3  O   UNL     1      42.991 -12.755   4.056  1.00  0.00    -0.268 OA
HETATM    4  H   UNL     1      42.568 -13.922   6.976  1.00  0.00     0.169 HD
ENDROOT
BRANCH   1   5
HETATM    5  C   UNL     1      41.769 -12.041   6.724  1.00  0.00     0.071 A 
HETATM    6  C   UNL     1      42.303 -11.186   7.716  1.00  0.00     0.096 A 
HETATM    7  C   UNL     1      41.612 -10.038   8.138  1.00  0.00     0.049 A 
HETATM    8  C   UNL     1      40.438  -9.705   7.494  1.00  0.00    -0.020 A 
HETATM    9  C   UNL     1      39.946 -10.500   6.476  1.00  0.00     0.078 A 
HETATM   10  C   UNL     1      39.508  -8.580   7.736  1.00  0.00     0.073 C 
HETATM   11  C   UNL     1      40.580 -11.662   6.079  1.00  0.00     0.069 A 
HETATM   12  O   UNL     1      38.785 -10.030   5.920  1.00  0.00    -0.345 OA
HETATM   13  C   UNL     1      38.640  -8.693   6.471  1.00  0.00     0.129 C 
HETATM   14  C   UNL     1      39.032  -7.682   5.396  1.00  0.00     0.040 C 
BRANCH   6  15
HETATM   15  O   UNL     1      43.524 -11.428   8.285  1.00  0.00    -0.349 OA
BRANCH  15  16
HETATM   16  C   UNL     1      43.607 -10.938   9.627  1.00  0.00     0.171 C 
HETATM   17  C   UNL     1      45.068 -10.791  10.011  1.00  0.00     0.034 C 
ENDBRANCH  15  16
ENDBRANCH   6  15
ENDBRANCH   1   5
BRANCH   2  18
HETATM   18  C   UNL     1      43.233 -14.953   4.873  1.00  0.00     0.077 C 
HETATM   19  C   UNL     1      43.071 -15.590   3.704  1.00  0.00     0.043 C 
BRANCH  19  20
HETATM   20  C   UNL     1      43.416 -16.962   3.570  1.00  0.00     0.077 A 
HETATM   21  O   UNL     1      43.949 -17.729   4.586  1.00  0.00    -0.310 OA
HETATM   22  C   UNL     1      44.148 -18.987   4.115  1.00  0.00     0.086 A 
HETATM   23  C   UNL     1      43.752 -19.074   2.791  1.00  0.00     0.000 A 
HETATM   24  C   UNL     1      44.672 -20.050   4.846  1.00  0.00     0.038 A 
HETATM   25  C   UNL     1      43.292 -17.778   2.450  1.00  0.00     0.051 A 
HETATM   26  C   UNL     1      43.876 -20.309   2.130  1.00  0.00     0.014 A 
HETATM   27  C   UNL     1      44.398 -21.400   2.838  1.00  0.00     0.001 A 
HETATM   28  C   UNL     1      44.790 -21.271   4.173  1.00  0.00     0.003 A 
ENDBRANCH  19  20
ENDBRANCH   2  18
TORSDOF 5
ENDMDL
MODEL 10
REMARK VINA RESULT:      -7.6      4.637      5.603
REMARK  5 active torsions:
REMARK  status: ('A' for Active; 'I' for Inactive)
REMARK    1  A    between atoms: C_2  and  O_3 
REMARK    2  A    between atoms: O_3  and  C_4 
REMARK    3  A    between atoms: C_5  and  N_6 
REMARK       I    between atoms: N_6  and  C_7 
REMARK    4  A    between atoms: C_7  and  C_8 
REMARK    5  A    between atoms: C_9  and  C_10 
ROOT
HETATM    1  N   UNL     1      41.898 -13.987   4.273  1.00  0.00    -0.321 N 
HETATM    2  C   UNL     1      43.137 -14.338   3.780  1.00  0.00     0.245 C 
HETATM    3  O   UNL     1      43.992 -13.613   3.294  1.00  0.00    -0.268 OA
HETATM    4  H   UNL     1      41.456 -14.654   4.890  1.00  0.00     0.169 HD
ENDROOT
BRANCH   1   5
HETATM    5  C   UNL     1      41.236 -12.739   4.167  1.00  0.00     0.071 A 
HETATM    6  C   UNL     1      40.311 -12.375   3.162  1.00  0.00     0.096 A 
HETATM    7  C   UNL     1      39.743 -11.091   3.124  1.00  0.00     0.049 A 
HETATM    8  C   UNL     1      40.036 -10.214   4.149  1.00  0.00    -0.020 A 
HETATM    9  C   UNL     1      40.886 -10.587   5.171  1.00  0.00     0.078 A 
HETATM   10  C   UNL     1      39.600  -8.815   4.354  1.00  0.00     0.073 C 
HETATM   11  C   UNL     1      41.497 -11.826   5.202  1.00  0.00     0.069 A 
HETATM   12  O   UNL     1      41.063  -9.619   6.124  1.00  0.00    -0.345 OA
HETATM   13  C   UNL     1      40.056  -8.620   5.810  1.00  0.00     0.129 C 
HETATM   14  C   UNL     1      38.909  -8.756   6.809  1.00  0.00     0.040 C 
BRANCH   6  15
HETATM   15  O   UNL     1      39.911 -13.267   2.204  1.00  0.00    -0.349 OA
BRANCH  15  16
HETATM   16  C   UNL     1      38.683 -12.880   1.579  1.00  0.00     0.171 C 
HETATM   17  C   UNL     1      37.949 -14.126   1.117  1.00  0.00     0.034 C 
ENDBRANCH  15  16
ENDBRANCH   6  15
ENDBRANCH   1   5
BRANCH   2  18
HETATM   18  C   UNL     1      43.402 -15.793   3.970  1.00  0.00     0.077 C 
HETATM   19  C   UNL     1      43.682 -16.559   2.905  1.00  0.00     0.043 C 
BRANCH  19  20
HETATM   20  C   UNL     1      43.907 -17.954   3.053  1.00  0.00     0.077 A 
HETATM   21  O   UNL     1      44.258 -18.560   4.242  1.00  0.00    -0.310 OA
HETATM   22  C   UNL     1      44.384 -19.894   4.024  1.00  0.00     0.086 A 
HETATM   23  C   UNL     1      44.118 -20.192   2.699  1.00  0.00     0.000 A 
HETATM   24  C   UNL     1      44.727 -20.841   4.986  1.00  0.00     0.038 A 
HETATM   25  C   UNL     1      43.820 -18.950   2.085  1.00  0.00     0.051 A 
HETATM   26  C   UNL     1      44.191 -21.533   2.281  1.00  0.00     0.014 A 
HETATM   27  C   UNL     1      44.532 -22.512   3.225  1.00  0.00     0.001 A 
HETATM   28  C   UNL     1      44.796 -22.171   4.554  1.00  0.00     0.003 A 
ENDBRANCH  19  20
ENDBRANCH   2  18
TORSDOF 5
ENDMDL
