MODEL 1
REMARK VINA RESULT:      -9.7      0.000      0.000
REMARK  5 active torsions:
REMARK  status: ('A' for Active; 'I' for Inactive)
REMARK    1  A    between atoms: C_14  and  C_15 
REMARK       I    between atoms: C_15  and  N_16 
REMARK    2  A    between atoms: N_16  and  C_17 
REMARK    3  A    between atoms: C_18  and  C_19 
REMARK    4  A    between atoms: C_19  and  O_20 
REMARK    5  A    between atoms: O_20  and  C_21 
ROOT
HETATM    1  C   UNL     1      41.631 -15.159   2.752  1.00  0.00     0.273 C 
HETATM    2  N   UNL     1      42.950 -15.322   3.157  1.00  0.00    -0.321 N 
HETATM    3  O   UNL     1      40.689 -15.073   3.533  1.00  0.00    -0.266 OA
HETATM    4  H   UNL     1      43.619 -14.892   2.533  1.00  0.00     0.169 HD
ENDROOT
BRANCH   1   5
HETATM    5  C   UNL     1      41.477 -14.999   1.309  1.00  0.00     0.104 C 
HETATM    6  N   UNL     1      41.686 -13.808   0.605  1.00  0.00    -0.345 N 
HETATM    7  C   UNL     1      41.862 -12.514   1.231  1.00  0.00     0.156 C 
HETATM    8  C   UNL     1      41.626 -14.082  -0.718  1.00  0.00     0.060 A 
HETATM    9  C   UNL     1      41.175 -15.371  -0.925  1.00  0.00     0.012 A 
HETATM   10  C   UNL     1      41.918 -13.292  -1.794  1.00  0.00     0.039 A 
HETATM   11  C   UNL     1      40.960 -15.801  -2.251  1.00  0.00     0.132 A 
HETATM   12  C   UNL     1      41.076 -15.946   0.365  1.00  0.00     0.050 C 
HETATM   13  N   UNL     1      41.206 -15.011  -3.338  1.00  0.00    -0.241 NA
HETATM   14  C   UNL     1      41.693 -13.792  -3.054  1.00  0.00     0.139 A 
HETATM   15  N   UNL     1      42.068 -12.820  -3.938  1.00  0.00    -0.350 N 
HETATM   16  H   UNL     1      42.007 -12.915  -4.941  1.00  0.00     0.166 HD
HETATM   17  C   UNL     1      42.566 -11.734  -3.245  1.00  0.00     0.091 A 
HETATM   18  C   UNL     1      42.494 -12.004  -1.887  1.00  0.00     0.034 A 
ENDBRANCH   1   5
BRANCH   2  19
HETATM   19  C   UNL     1      43.331 -15.415   4.515  1.00  0.00     0.043 A 
HETATM   20  C   UNL     1      43.260 -16.596   5.277  1.00  0.00    -0.007 A 
HETATM   21  C   UNL     1      43.570 -16.531   6.651  1.00  0.00     0.011 A 
HETATM   22  C   UNL     1      43.997 -15.342   7.239  1.00  0.00     0.001 A 
HETATM   23  C   UNL     1      44.145 -14.200   6.460  1.00  0.00     0.002 A 
HETATM   24  C   UNL     1      43.824 -14.240   5.104  1.00  0.00     0.030 A 
BRANCH  20  25
HETATM   25  C   UNL     1      43.013 -17.968   4.683  1.00  0.00     0.216 C 
BRANCH  25  26
HETATM   26  O   UNL     1      43.878 -18.195   3.567  1.00  0.00    -0.347 OA
BRANCH  26  27
HETATM   27  C   UNL     1      44.018 -19.524   3.265  1.00  0.00     0.069 A 
HETATM   28  C   UNL     1      43.629 -20.082   2.046  1.00  0.00     0.037 A 
HETATM   29  C   UNL     1      43.827 -21.444   1.809  1.00  0.00     0.003 A 
HETATM   30  C   UNL     1      44.424 -22.244   2.784  1.00  0.00     0.000 A 
HETATM   31  C   UNL     1      44.832 -21.682   3.992  1.00  0.00     0.003 A 
HETATM   32  C   UNL     1      44.636 -20.320   4.230  1.00  0.00     0.037 A 
ENDBRANCH  26  27
ENDBRANCH  25  26
ENDBRANCH  20  25
ENDBRANCH   2  19
TORSDOF 5
ENDMDL
MODEL 2
REMARK VINA RESULT:      -9.4      1.939      2.396
REMARK  5 active torsions:
REMARK  status: ('A' for Active; 'I' for Inactive)
REMARK    1  A    between atoms: C_14  and  C_15 
REMARK       I    between atoms: C_15  and  N_16 
REMARK    2  A    between atoms: N_16  and  C_17 
REMARK    3  A    between atoms: C_18  and  C_19 
REMARK    4  A    between atoms: C_19  and  O_20 
REMARK    5  A    between atoms: O_20  and  C_21 
ROOT
HETATM    1  C   UNL     1      41.446 -15.136   2.240  1.00  0.00     0.273 C 
HETATM    2  N   UNL     1      41.147 -16.319   2.904  1.00  0.00    -0.321 N 
HETATM    3  O   UNL     1      42.072 -14.214   2.750  1.00  0.00    -0.266 OA
HETATM    4  H   UNL     1      41.103 -17.124   2.293  1.00  0.00     0.169 HD
ENDROOT
BRANCH   1   5
HETATM    5  C   UNL     1      41.028 -15.128   0.841  1.00  0.00     0.104 C 
HETATM    6  N   UNL     1      39.885 -14.490   0.347  1.00  0.00    -0.345 N 
HETATM    7  C   UNL     1      38.836 -13.941   1.180  1.00  0.00     0.156 C 
HETATM    8  C   UNL     1      39.920 -14.545  -1.004  1.00  0.00     0.060 A 
HETATM    9  C   UNL     1      40.935 -15.380  -1.428  1.00  0.00     0.012 A 
HETATM   10  C   UNL     1      39.122 -13.936  -1.930  1.00  0.00     0.039 A 
HETATM   11  C   UNL     1      41.063 -15.633  -2.810  1.00  0.00     0.132 A 
HETATM   12  C   UNL     1      41.631 -15.752  -0.252  1.00  0.00     0.050 C 
HETATM   13  N   UNL     1      40.247 -15.066  -3.748  1.00  0.00    -0.241 NA
HETATM   14  C   UNL     1      39.321 -14.225  -3.259  1.00  0.00     0.139 A 
HETATM   15  N   UNL     1      38.410 -13.490  -3.965  1.00  0.00    -0.350 N 
HETATM   16  H   UNL     1      38.327 -13.510  -4.970  1.00  0.00     0.166 HD
HETATM   17  C   UNL     1      37.673 -12.711  -3.094  1.00  0.00     0.091 A 
HETATM   18  C   UNL     1      38.104 -12.962  -1.801  1.00  0.00     0.034 A 
ENDBRANCH   1   5
BRANCH   2  19
HETATM   19  C   UNL     1      41.532 -16.570   4.241  1.00  0.00     0.043 A 
HETATM   20  C   UNL     1      42.723 -17.222   4.612  1.00  0.00    -0.007 A 
HETATM   21  C   UNL     1      42.938 -17.505   5.976  1.00  0.00     0.011 A 
HETATM   22  C   UNL     1      42.027 -17.099   6.951  1.00  0.00     0.001 A 
HETATM   23  C   UNL     1      40.895 -16.381   6.582  1.00  0.00     0.002 A 
HETATM   24  C   UNL     1      40.654 -16.110   5.235  1.00  0.00     0.030 A 
BRANCH  20  25
HETATM   25  C   UNL     1      43.861 -17.508   3.654  1.00  0.00     0.216 C 
BRANCH  25  26
HETATM   26  O   UNL     1      43.428 -18.382   2.608  1.00  0.00    -0.347 OA
BRANCH  26  27
HETATM   27  C   UNL     1      43.836 -19.677   2.796  1.00  0.00     0.069 A 
HETATM   28  C   UNL     1      44.499 -20.115   3.943  1.00  0.00     0.037 A 
HETATM   29  C   UNL     1      44.862 -21.459   4.067  1.00  0.00     0.003 A 
HETATM   30  C   UNL     1      44.551 -22.364   3.052  1.00  0.00     0.000 A 
HETATM   31  C   UNL     1      43.869 -21.929   1.916  1.00  0.00     0.003 A 
HETATM   32  C   UNL     1      43.505 -20.587   1.792  1.00  0.00     0.037 A 
ENDBRANCH  26  27
ENDBRANCH  25  26
ENDBRANCH  20  25
ENDBRANCH   2  19
TORSDOF 5
ENDMDL
MODEL 3
REMARK VINA RESULT:      -9.4      2.822      5.381
REMARK  5 active torsions:
REMARK  status: ('A' for Active; 'I' for Inactive)
REMARK    1  A    between atoms: C_14  and  C_15 
REMARK       I    between atoms: C_15  and  N_16 
REMARK    2  A    between atoms: N_16  and  C_17 
REMARK    3  A    between atoms: C_18  and  C_19 
REMARK    4  A    between atoms: C_19  and  O_20 
REMARK    5  A    between atoms: O_20  and  C_21 
ROOT
HETATM    1  C   UNL     1      43.669 -17.240   2.167  1.00  0.00     0.273 C 
HETATM    2  N   UNL     1      43.117 -18.256   2.936  1.00  0.00    -0.321 N 
HETATM    3  O   UNL     1      44.614 -17.407   1.404  1.00  0.00    -0.266 OA
HETATM    4  H   UNL     1      42.125 -18.143   3.101  1.00  0.00     0.169 HD
ENDROOT
BRANCH   1   5
HETATM    5  C   UNL     1      42.958 -15.969   2.277  1.00  0.00     0.104 C 
HETATM    6  N   UNL     1      41.779 -15.647   1.596  1.00  0.00    -0.345 N 
HETATM    7  C   UNL     1      41.222 -16.435   0.517  1.00  0.00     0.156 C 
HETATM    8  C   UNL     1      41.320 -14.470   2.078  1.00  0.00     0.060 A 
HETATM    9  C   UNL     1      42.259 -13.887   2.907  1.00  0.00     0.012 A 
HETATM   10  C   UNL     1      40.137 -13.826   1.848  1.00  0.00     0.039 A 
HETATM   11  C   UNL     1      41.989 -12.605   3.429  1.00  0.00     0.132 A 
HETATM   12  C   UNL     1      43.299 -14.840   3.024  1.00  0.00     0.050 C 
HETATM   13  N   UNL     1      40.830 -11.928   3.176  1.00  0.00    -0.241 NA
HETATM   14  C   UNL     1      39.947 -12.584   2.405  1.00  0.00     0.139 A 
HETATM   15  N   UNL     1      38.699 -12.170   2.032  1.00  0.00    -0.350 N 
HETATM   16  H   UNL     1      38.296 -11.284   2.299  1.00  0.00     0.166 HD
HETATM   17  C   UNL     1      38.090 -13.158   1.283  1.00  0.00     0.091 A 
HETATM   18  C   UNL     1      38.968 -14.222   1.156  1.00  0.00     0.034 A 
ENDBRANCH   1   5
BRANCH   2  19
HETATM   19  C   UNL     1      43.601 -19.584   2.918  1.00  0.00     0.043 A 
HETATM   20  C   UNL     1      44.430 -20.137   3.912  1.00  0.00    -0.007 A 
HETATM   21  C   UNL     1      44.931 -21.441   3.723  1.00  0.00     0.011 A 
HETATM   22  C   UNL     1      44.571 -22.198   2.608  1.00  0.00     0.001 A 
HETATM   23  C   UNL     1      43.685 -21.674   1.674  1.00  0.00     0.002 A 
HETATM   24  C   UNL     1      43.195 -20.378   1.834  1.00  0.00     0.030 A 
BRANCH  20  25
HETATM   25  C   UNL     1      44.700 -19.475   5.248  1.00  0.00     0.216 C 
BRANCH  25  26
HETATM   26  O   UNL     1      43.472 -19.185   5.922  1.00  0.00    -0.347 OA
BRANCH  26  27
HETATM   27  C   UNL     1      43.281 -17.843   6.124  1.00  0.00     0.069 A 
HETATM   28  C   UNL     1      42.033 -17.223   6.046  1.00  0.00     0.037 A 
HETATM   29  C   UNL     1      41.921 -15.852   6.288  1.00  0.00     0.003 A 
HETATM   30  C   UNL     1      43.052 -15.105   6.619  1.00  0.00     0.000 A 
HETATM   31  C   UNL     1      44.294 -15.730   6.718  1.00  0.00     0.003 A 
HETATM   32  C   UNL     1      44.407 -17.100   6.478  1.00  0.00     0.037 A 
ENDBRANCH  26  27
ENDBRANCH  25  26
ENDBRANCH  20  25
ENDBRANCH   2  19
TORSDOF 5
ENDMDL
MODEL 4
REMARK VINA RESULT:      -9.3      2.746      7.684
REMARK  5 active torsions:
REMARK  status: ('A' for Active; 'I' for Inactive)
REMARK    1  A    between atoms: C_14  and  C_15 
REMARK       I    between atoms: C_15  and  N_16 
REMARK    2  A    between atoms: N_16  and  C_17 
REMARK    3  A    between atoms: C_18  and  C_19 
REMARK    4  A    between atoms: C_19  and  O_20 
REMARK    5  A    between atoms: O_20  and  C_21 
ROOT
HETATM    1  C   UNL     1      42.743 -16.495   3.194  1.00  0.00     0.273 C 
HETATM    2  N   UNL     1      41.384 -16.425   3.479  1.00  0.00    -0.321 N 
HETATM    3  O   UNL     1      43.485 -15.520   3.200  1.00  0.00    -0.266 OA
HETATM    4  H   UNL     1      41.021 -17.260   3.920  1.00  0.00     0.169 HD
ENDROOT
BRANCH   1   5
HETATM    5  C   UNL     1      43.228 -17.857   2.984  1.00  0.00     0.104 C 
HETATM    6  N   UNL     1      43.881 -18.635   3.945  1.00  0.00    -0.345 N 
HETATM    7  C   UNL     1      44.371 -18.124   5.208  1.00  0.00     0.156 C 
HETATM    8  C   UNL     1      44.019 -19.887   3.454  1.00  0.00     0.060 A 
HETATM    9  C   UNL     1      43.671 -19.924   2.117  1.00  0.00     0.012 A 
HETATM   10  C   UNL     1      44.444 -21.031   4.068  1.00  0.00     0.039 A 
HETATM   11  C   UNL     1      43.843 -21.133   1.413  1.00  0.00     0.132 A 
HETATM   12  C   UNL     1      43.176 -18.630   1.823  1.00  0.00     0.050 C 
HETATM   13  N   UNL     1      44.307 -22.276   2.000  1.00  0.00    -0.241 NA
HETATM   14  C   UNL     1      44.571 -22.172   3.313  1.00  0.00     0.139 A 
HETATM   15  N   UNL     1      45.000 -23.159   4.155  1.00  0.00    -0.350 N 
HETATM   16  H   UNL     1      45.181 -24.108   3.866  1.00  0.00     0.166 HD
HETATM   17  C   UNL     1      45.101 -22.657   5.439  1.00  0.00     0.091 A 
HETATM   18  C   UNL     1      44.748 -21.317   5.420  1.00  0.00     0.034 A 
ENDBRANCH   1   5
BRANCH   2  19
HETATM   19  C   UNL     1      40.725 -15.215   3.792  1.00  0.00     0.043 A 
HETATM   20  C   UNL     1      40.269 -14.291   2.833  1.00  0.00    -0.007 A 
HETATM   21  C   UNL     1      39.722 -13.071   3.280  1.00  0.00     0.011 A 
HETATM   22  C   UNL     1      39.577 -12.800   4.640  1.00  0.00     0.001 A 
HETATM   23  C   UNL     1      39.954 -13.753   5.578  1.00  0.00     0.002 A 
HETATM   24  C   UNL     1      40.516 -14.958   5.156  1.00  0.00     0.030 A 
BRANCH  20  25
HETATM   25  C   UNL     1      40.191 -14.587   1.349  1.00  0.00     0.216 C 
BRANCH  25  26
HETATM   26  O   UNL     1      41.493 -14.548   0.760  1.00  0.00    -0.347 OA
BRANCH  26  27
HETATM   27  C   UNL     1      41.456 -14.540  -0.610  1.00  0.00     0.069 A 
HETATM   28  C   UNL     1      40.981 -15.608  -1.373  1.00  0.00     0.037 A 
HETATM   29  C   UNL     1      40.956 -15.511  -2.766  1.00  0.00     0.003 A 
HETATM   30  C   UNL     1      41.394 -14.345  -3.394  1.00  0.00     0.000 A 
HETATM   31  C   UNL     1      41.849 -13.271  -2.630  1.00  0.00     0.003 A 
HETATM   32  C   UNL     1      41.873 -13.366  -1.238  1.00  0.00     0.037 A 
ENDBRANCH  26  27
ENDBRANCH  25  26
ENDBRANCH  20  25
ENDBRANCH   2  19
TORSDOF 5
ENDMDL
MODEL 5
REMARK VINA RESULT:      -9.1      0.916      2.149
REMARK  5 active torsions:
REMARK  status: ('A' for Active; 'I' for Inactive)
REMARK    1  A    between atoms: C_14  and  C_15 
REMARK       I    between atoms: C_15  and  N_16 
REMARK    2  A    between atoms: N_16  and  C_17 
REMARK    3  A    between atoms: C_18  and  C_19 
REMARK    4  A    between atoms: C_19  and  O_20 
REMARK    5  A    between atoms: O_20  and  C_21 
ROOT
HETATM    1  C   UNL     1      41.814 -14.746   3.335  1.00  0.00     0.273 C 
HETATM    2  N   UNL     1      43.047 -15.196   3.790  1.00  0.00    -0.321 N 
HETATM    3  O   UNL     1      40.781 -14.828   3.990  1.00  0.00    -0.266 OA
HETATM    4  H   UNL     1      43.828 -14.658   3.437  1.00  0.00     0.169 HD
ENDROOT
BRANCH   1   5
HETATM    5  C   UNL     1      41.877 -14.075   2.040  1.00  0.00     0.104 C 
HETATM    6  N   UNL     1      41.711 -14.703   0.800  1.00  0.00    -0.345 N 
HETATM    7  C   UNL     1      41.681 -16.138   0.614  1.00  0.00     0.156 C 
HETATM    8  C   UNL     1      41.656 -13.747  -0.154  1.00  0.00     0.060 A 
HETATM    9  C   UNL     1      41.990 -12.515   0.375  1.00  0.00     0.012 A 
HETATM   10  C   UNL     1      41.351 -13.846  -1.482  1.00  0.00     0.039 A 
HETATM   11  C   UNL     1      42.077 -11.411  -0.499  1.00  0.00     0.132 A 
HETATM   12  C   UNL     1      42.135 -12.731   1.766  1.00  0.00     0.050 C 
HETATM   13  N   UNL     1      41.816 -11.500  -1.837  1.00  0.00    -0.241 NA
HETATM   14  C   UNL     1      41.446 -12.719  -2.263  1.00  0.00     0.139 A 
HETATM   15  N   UNL     1      41.086 -13.084  -3.530  1.00  0.00    -0.350 N 
HETATM   16  H   UNL     1      41.068 -12.451  -4.315  1.00  0.00     0.166 HD
HETATM   17  C   UNL     1      40.724 -14.417  -3.540  1.00  0.00     0.091 A 
HETATM   18  C   UNL     1      40.871 -14.926  -2.260  1.00  0.00     0.034 A 
ENDBRANCH   1   5
BRANCH   2  19
HETATM   19  C   UNL     1      43.227 -15.803   5.054  1.00  0.00     0.043 A 
HETATM   20  C   UNL     1      42.868 -17.131   5.352  1.00  0.00    -0.007 A 
HETATM   21  C   UNL     1      43.000 -17.582   6.680  1.00  0.00     0.011 A 
HETATM   22  C   UNL     1      43.531 -16.760   7.674  1.00  0.00     0.001 A 
HETATM   23  C   UNL     1      43.961 -15.478   7.351  1.00  0.00     0.002 A 
HETATM   24  C   UNL     1      43.818 -15.006   6.047  1.00  0.00     0.030 A 
BRANCH  20  25
HETATM   25  C   UNL     1      42.486 -18.155   4.303  1.00  0.00     0.216 C 
BRANCH  25  26
HETATM   26  O   UNL     1      43.554 -18.341   3.370  1.00  0.00    -0.347 OA
BRANCH  26  27
HETATM   27  C   UNL     1      43.902 -19.657   3.216  1.00  0.00     0.069 A 
HETATM   28  C   UNL     1      44.565 -20.398   4.196  1.00  0.00     0.037 A 
HETATM   29  C   UNL     1      44.864 -21.743   3.968  1.00  0.00     0.003 A 
HETATM   30  C   UNL     1      44.489 -22.350   2.769  1.00  0.00     0.000 A 
HETATM   31  C   UNL     1      43.808 -21.615   1.800  1.00  0.00     0.003 A 
HETATM   32  C   UNL     1      43.508 -20.271   2.027  1.00  0.00     0.037 A 
ENDBRANCH  26  27
ENDBRANCH  25  26
ENDBRANCH  20  25
ENDBRANCH   2  19
TORSDOF 5
ENDMDL
MODEL 6
REMARK VINA RESULT:      -8.9      2.923      7.533
REMARK  5 active torsions:
REMARK  status: ('A' for Active; 'I' for Inactive)
REMARK    1  A    between atoms: C_14  and  C_15 
REMARK       I    between atoms: C_15  and  N_16 
REMARK    2  A    between atoms: N_16  and  C_17 
REMARK    3  A    between atoms: C_18  and  C_19 
REMARK    4  A    between atoms: C_19  and  O_20 
REMARK    5  A    between atoms: O_20  and  C_21 
ROOT
HETATM    1  C   UNL     1      42.134 -15.437   3.549  1.00  0.00     0.273 C 
HETATM    2  N   UNL     1      40.784 -15.337   3.859  1.00  0.00    -0.321 N 
HETATM    3  O   UNL     1      42.808 -14.494   3.149  1.00  0.00    -0.266 OA
HETATM    4  H   UNL     1      40.492 -15.962   4.599  1.00  0.00     0.169 HD
ENDROOT
BRANCH   1   5
HETATM    5  C   UNL     1      42.705 -16.750   3.837  1.00  0.00     0.104 C 
HETATM    6  N   UNL     1      42.637 -17.860   2.988  1.00  0.00    -0.345 N 
HETATM    7  C   UNL     1      41.799 -17.932   1.809  1.00  0.00     0.156 C 
HETATM    8  C   UNL     1      43.422 -18.834   3.500  1.00  0.00     0.060 A 
HETATM    9  C   UNL     1      43.847 -18.496   4.770  1.00  0.00     0.012 A 
HETATM   10  C   UNL     1      43.802 -20.031   2.963  1.00  0.00     0.039 A 
HETATM   11  C   UNL     1      44.601 -19.438   5.499  1.00  0.00     0.132 A 
HETATM   12  C   UNL     1      43.383 -17.174   4.981  1.00  0.00     0.050 C 
HETATM   13  N   UNL     1      44.956 -20.657   4.994  1.00  0.00    -0.241 NA
HETATM   14  C   UNL     1      44.550 -20.889   3.734  1.00  0.00     0.139 A 
HETATM   15  N   UNL     1      44.799 -21.994   2.970  1.00  0.00    -0.350 N 
HETATM   16  H   UNL     1      45.328 -22.791   3.289  1.00  0.00     0.166 HD
HETATM   17  C   UNL     1      44.252 -21.818   1.714  1.00  0.00     0.091 A 
HETATM   18  C   UNL     1      43.623 -20.584   1.673  1.00  0.00     0.034 A 
ENDBRANCH   1   5
BRANCH   2  19
HETATM   19  C   UNL     1      40.052 -14.134   3.732  1.00  0.00     0.043 A 
HETATM   20  C   UNL     1      39.450 -13.697   2.538  1.00  0.00    -0.007 A 
HETATM   21  C   UNL     1      38.840 -12.426   2.517  1.00  0.00     0.011 A 
HETATM   22  C   UNL     1      38.776 -11.637   3.665  1.00  0.00     0.001 A 
HETATM   23  C   UNL     1      39.300 -12.114   4.861  1.00  0.00     0.002 A 
HETATM   24  C   UNL     1      39.926 -13.360   4.896  1.00  0.00     0.030 A 
BRANCH  20  25
HETATM   25  C   UNL     1      39.285 -14.568   1.310  1.00  0.00     0.216 C 
BRANCH  25  26
HETATM   26  O   UNL     1      40.533 -14.716   0.627  1.00  0.00    -0.347 OA
BRANCH  26  27
HETATM   27  C   UNL     1      40.389 -14.777  -0.734  1.00  0.00     0.069 A 
HETATM   28  C   UNL     1      41.122 -15.645  -1.547  1.00  0.00     0.037 A 
HETATM   29  C   UNL     1      40.899 -15.661  -2.926  1.00  0.00     0.003 A 
HETATM   30  C   UNL     1      39.938 -14.821  -3.489  1.00  0.00     0.000 A 
HETATM   31  C   UNL     1      39.192 -13.971  -2.674  1.00  0.00     0.003 A 
HETATM   32  C   UNL     1      39.413 -13.955  -1.296  1.00  0.00     0.037 A 
ENDBRANCH  26  27
ENDBRANCH  25  26
ENDBRANCH  20  25
ENDBRANCH   2  19
TORSDOF 5
ENDMDL
MODEL 7
REMARK VINA RESULT:      -8.6      3.282      7.357
REMARK  5 active torsions:
REMARK  status: ('A' for Active; 'I' for Inactive)
REMARK    1  A    between atoms: C_14  and  C_15 
REMARK       I    between atoms: C_15  and  N_16 
REMARK    2  A    between atoms: N_16  and  C_17 
REMARK    3  A    between atoms: C_18  and  C_19 
REMARK    4  A    between atoms: C_19  and  O_20 
REMARK    5  A    between atoms: O_20  and  C_21 
ROOT
HETATM    1  C   UNL     1      42.567 -16.977   1.803  1.00  0.00     0.273 C 
HETATM    2  N   UNL     1      41.392 -16.745   2.507  1.00  0.00    -0.321 N 
HETATM    3  O   UNL     1      43.126 -16.125   1.121  1.00  0.00    -0.266 OA
HETATM    4  H   UNL     1      41.320 -17.284   3.360  1.00  0.00     0.169 HD
ENDROOT
BRANCH   1   5
HETATM    5  C   UNL     1      43.132 -18.305   2.027  1.00  0.00     0.104 C 
HETATM    6  N   UNL     1      43.725 -18.735   3.219  1.00  0.00    -0.345 N 
HETATM    7  C   UNL     1      44.067 -17.858   4.319  1.00  0.00     0.156 C 
HETATM    8  C   UNL     1      43.967 -20.061   3.117  1.00  0.00     0.060 A 
HETATM    9  C   UNL     1      43.752 -20.494   1.823  1.00  0.00     0.012 A 
HETATM   10  C   UNL     1      44.384 -20.954   4.063  1.00  0.00     0.039 A 
HETATM   11  C   UNL     1      44.046 -21.837   1.508  1.00  0.00     0.132 A 
HETATM   12  C   UNL     1      43.229 -19.374   1.134  1.00  0.00     0.050 C 
HETATM   13  N   UNL     1      44.504 -22.735   2.431  1.00  0.00    -0.241 NA
HETATM   14  C   UNL     1      44.635 -22.250   3.677  1.00  0.00     0.139 A 
HETATM   15  N   UNL     1      45.026 -22.928   4.796  1.00  0.00    -0.350 N 
HETATM   16  H   UNL     1      45.277 -23.905   4.804  1.00  0.00     0.166 HD
HETATM   17  C   UNL     1      44.979 -22.082   5.887  1.00  0.00     0.091 A 
HETATM   18  C   UNL     1      44.569 -20.830   5.460  1.00  0.00     0.034 A 
ENDBRANCH   1   5
BRANCH   2  19
HETATM   19  C   UNL     1      40.721 -15.501   2.496  1.00  0.00     0.043 A 
HETATM   20  C   UNL     1      41.118 -14.382   3.252  1.00  0.00    -0.007 A 
HETATM   21  C   UNL     1      40.301 -13.233   3.233  1.00  0.00     0.011 A 
HETATM   22  C   UNL     1      39.155 -13.174   2.440  1.00  0.00     0.001 A 
HETATM   23  C   UNL     1      38.818 -14.254   1.632  1.00  0.00     0.002 A 
HETATM   24  C   UNL     1      39.603 -15.407   1.653  1.00  0.00     0.030 A 
BRANCH  20  25
HETATM   25  C   UNL     1      42.448 -14.279   3.970  1.00  0.00     0.216 C 
BRANCH  25  26
HETATM   26  O   UNL     1      42.247 -14.024   5.363  1.00  0.00    -0.347 OA
BRANCH  26  27
HETATM   27  C   UNL     1      42.510 -15.119   6.145  1.00  0.00     0.069 A 
HETATM   28  C   UNL     1      43.697 -15.287   6.859  1.00  0.00     0.037 A 
HETATM   29  C   UNL     1      43.878 -16.423   7.652  1.00  0.00     0.003 A 
HETATM   30  C   UNL     1      42.869 -17.382   7.740  1.00  0.00     0.000 A 
HETATM   31  C   UNL     1      41.675 -17.203   7.043  1.00  0.00     0.003 A 
HETATM   32  C   UNL     1      41.493 -16.068   6.252  1.00  0.00     0.037 A 
ENDBRANCH  26  27
ENDBRANCH  25  26
ENDBRANCH  20  25
ENDBRANCH   2  19
TORSDOF 5
ENDMDL
MODEL 8
REMARK VINA RESULT:      -8.5      2.266      2.972
REMARK  5 active torsions:
REMARK  status: ('A' for Active; 'I' for Inactive)
REMARK    1  A    between atoms: C_14  and  C_15 
REMARK       I    between atoms: C_15  and  N_16 
REMARK    2  A    between atoms: N_16  and  C_17 
REMARK    3  A    between atoms: C_18  and  C_19 
REMARK    4  A    between atoms: C_19  and  O_20 
REMARK    5  A    between atoms: O_20  and  C_21 
ROOT
HETATM    1  C   UNL     1      40.718 -14.135   1.941  1.00  0.00     0.273 C 
HETATM    2  N   UNL     1      40.221 -15.229   2.639  1.00  0.00    -0.321 N 
HETATM    3  O   UNL     1      41.673 -13.468   2.321  1.00  0.00    -0.266 OA
HETATM    4  H   UNL     1      39.826 -15.943   2.042  1.00  0.00     0.169 HD
ENDROOT
BRANCH   1   5
HETATM    5  C   UNL     1      40.058 -13.911   0.658  1.00  0.00     0.104 C 
HETATM    6  N   UNL     1      40.278 -14.662  -0.502  1.00  0.00    -0.345 N 
HETATM    7  C   UNL     1      41.352 -15.620  -0.658  1.00  0.00     0.156 C 
HETATM    8  C   UNL     1      39.370 -14.284  -1.429  1.00  0.00     0.060 A 
HETATM    9  C   UNL     1      38.686 -13.160  -1.008  1.00  0.00     0.012 A 
HETATM   10  C   UNL     1      39.080 -14.827  -2.649  1.00  0.00     0.039 A 
HETATM   11  C   UNL     1      37.761 -12.567  -1.892  1.00  0.00     0.132 A 
HETATM   12  C   UNL     1      39.132 -12.924   0.315  1.00  0.00     0.050 C 
HETATM   13  N   UNL     1      37.489 -13.072  -3.132  1.00  0.00    -0.241 NA
HETATM   14  C   UNL     1      38.155 -14.196  -3.445  1.00  0.00     0.139 A 
HETATM   15  N   UNL     1      38.046 -14.935  -4.589  1.00  0.00    -0.350 N 
HETATM   16  H   UNL     1      37.436 -14.699  -5.357  1.00  0.00     0.166 HD
HETATM   17  C   UNL     1      38.862 -16.046  -4.499  1.00  0.00     0.091 A 
HETATM   18  C   UNL     1      39.522 -16.013  -3.281  1.00  0.00     0.034 A 
ENDBRANCH   1   5
BRANCH   2  19
HETATM   19  C   UNL     1      40.767 -15.671   3.866  1.00  0.00     0.043 A 
HETATM   20  C   UNL     1      41.703 -16.716   3.983  1.00  0.00    -0.007 A 
HETATM   21  C   UNL     1      42.089 -17.132   5.274  1.00  0.00     0.011 A 
HETATM   22  C   UNL     1      41.607 -16.490   6.414  1.00  0.00     0.001 A 
HETATM   23  C   UNL     1      40.748 -15.405   6.284  1.00  0.00     0.002 A 
HETATM   24  C   UNL     1      40.339 -14.992   5.017  1.00  0.00     0.030 A 
BRANCH  20  25
HETATM   25  C   UNL     1      42.437 -17.326   2.806  1.00  0.00     0.216 C 
BRANCH  25  26
HETATM   26  O   UNL     1      43.730 -17.788   3.207  1.00  0.00    -0.347 OA
BRANCH  26  27
HETATM   27  C   UNL     1      43.893 -19.136   3.022  1.00  0.00     0.069 A 
HETATM   28  C   UNL     1      43.456 -19.814   1.882  1.00  0.00     0.037 A 
HETATM   29  C   UNL     1      43.681 -21.188   1.761  1.00  0.00     0.003 A 
HETATM   30  C   UNL     1      44.351 -21.879   2.771  1.00  0.00     0.000 A 
HETATM   31  C   UNL     1      44.805 -21.196   3.899  1.00  0.00     0.003 A 
HETATM   32  C   UNL     1      44.583 -19.824   4.020  1.00  0.00     0.037 A 
ENDBRANCH  26  27
ENDBRANCH  25  26
ENDBRANCH  20  25
ENDBRANCH   2  19
TORSDOF 5
ENDMDL
MODEL 9
REMARK VINA RESULT:      -8.4      1.899      4.828
REMARK  5 active torsions:
REMARK  status: ('A' for Active; 'I' for Inactive)
REMARK    1  A    between atoms: C_14  and  C_15 
REMARK       I    between atoms: C_15  and  N_16 
REMARK    2  A    between atoms: N_16  and  C_17 
REMARK    3  A    between atoms: C_18  and  C_19 
REMARK    4  A    between atoms: C_19  and  O_20 
REMARK    5  A    between atoms: O_20  and  C_21 
ROOT
HETATM    1  C   UNL     1      42.085 -16.649   2.152  1.00  0.00     0.273 C 
HETATM    2  N   UNL     1      43.411 -16.968   2.417  1.00  0.00    -0.321 N 
HETATM    3  O   UNL     1      41.145 -17.389   2.419  1.00  0.00    -0.266 OA
HETATM    4  H   UNL     1      43.986 -16.162   2.625  1.00  0.00     0.169 HD
ENDROOT
BRANCH   1   5
HETATM    5  C   UNL     1      41.903 -15.304   1.612  1.00  0.00     0.104 C 
HETATM    6  N   UNL     1      41.435 -15.010   0.327  1.00  0.00    -0.345 N 
HETATM    7  C   UNL     1      41.279 -15.991  -0.725  1.00  0.00     0.156 C 
HETATM    8  C   UNL     1      41.229 -13.676   0.247  1.00  0.00     0.060 A 
HETATM    9  C   UNL     1      41.743 -13.039   1.360  1.00  0.00     0.012 A 
HETATM   10  C   UNL     1      40.636 -12.935  -0.735  1.00  0.00     0.039 A 
HETATM   11  C   UNL     1      41.702 -11.630   1.405  1.00  0.00     0.132 A 
HETATM   12  C   UNL     1      42.175 -14.077   2.220  1.00  0.00     0.050 C 
HETATM   13  N   UNL     1      41.151 -10.870   0.413  1.00  0.00    -0.241 NA
HETATM   14  C   UNL     1      40.625 -11.566  -0.609  1.00  0.00     0.139 A 
HETATM   15  N   UNL     1      39.977 -11.072  -1.705  1.00  0.00    -0.350 N 
HETATM   16  H   UNL     1      39.825 -10.089  -1.875  1.00  0.00     0.166 HD
HETATM   17  C   UNL     1      39.542 -12.120  -2.494  1.00  0.00     0.091 A 
HETATM   18  C   UNL     1      39.935 -13.311  -1.905  1.00  0.00     0.034 A 
ENDBRANCH   1   5
BRANCH   2  19
HETATM   19  C   UNL     1      43.804 -18.188   3.014  1.00  0.00     0.043 A 
HETATM   20  C   UNL     1      44.105 -18.338   4.381  1.00  0.00    -0.007 A 
HETATM   21  C   UNL     1      44.589 -19.584   4.831  1.00  0.00     0.011 A 
HETATM   22  C   UNL     1      44.712 -20.667   3.962  1.00  0.00     0.001 A 
HETATM   23  C   UNL     1      44.332 -20.532   2.631  1.00  0.00     0.002 A 
HETATM   24  C   UNL     1      43.872 -19.302   2.163  1.00  0.00     0.030 A 
BRANCH  20  25
HETATM   25  C   UNL     1      43.803 -17.288   5.430  1.00  0.00     0.216 C 
BRANCH  25  26
HETATM   26  O   UNL     1      42.392 -17.079   5.538  1.00  0.00    -0.347 OA
BRANCH  26  27
HETATM   27  C   UNL     1      42.058 -15.753   5.633  1.00  0.00     0.069 A 
HETATM   28  C   UNL     1      42.999 -14.731   5.770  1.00  0.00     0.037 A 
HETATM   29  C   UNL     1      42.577 -13.401   5.838  1.00  0.00     0.003 A 
HETATM   30  C   UNL     1      41.219 -13.093   5.757  1.00  0.00     0.000 A 
HETATM   31  C   UNL     1      40.282 -14.113   5.599  1.00  0.00     0.003 A 
HETATM   32  C   UNL     1      40.703 -15.442   5.529  1.00  0.00     0.037 A 
ENDBRANCH  26  27
ENDBRANCH  25  26
ENDBRANCH  20  25
ENDBRANCH   2  19
TORSDOF 5
ENDMDL
MODEL 10
REMARK VINA RESULT:      -8.2      2.359      2.988
REMARK  5 active torsions:
REMARK  status: ('A' for Active; 'I' for Inactive)
REMARK    1  A    between atoms: C_14  and  C_15 
REMARK       I    between atoms: C_15  and  N_16 
REMARK    2  A    between atoms: N_16  and  C_17 
REMARK    3  A    between atoms: C_18  and  C_19 
REMARK    4  A    between atoms: C_19  and  O_20 
REMARK    5  A    between atoms: O_20  and  C_21 
ROOT
HETATM    1  C   UNL     1      41.559 -13.405   1.153  1.00  0.00     0.273 C 
HETATM    2  N   UNL     1      41.105 -13.965   2.340  1.00  0.00    -0.321 N 
HETATM    3  O   UNL     1      42.449 -12.563   1.099  1.00  0.00    -0.266 OA
HETATM    4  H   UNL     1      40.787 -14.920   2.240  1.00  0.00     0.169 HD
ENDROOT
BRANCH   1   5
HETATM    5  C   UNL     1      40.946 -13.984  -0.040  1.00  0.00     0.104 C 
HETATM    6  N   UNL     1      39.695 -13.627  -0.554  1.00  0.00    -0.345 N 
HETATM    7  C   UNL     1      38.734 -12.801   0.146  1.00  0.00     0.156 C 
HETATM    8  C   UNL     1      39.540 -14.236  -1.752  1.00  0.00     0.060 A 
HETATM    9  C   UNL     1      40.551 -15.154  -1.962  1.00  0.00     0.012 A 
HETATM   10  C   UNL     1      38.570 -14.078  -2.700  1.00  0.00     0.039 A 
HETATM   11  C   UNL     1      40.499 -15.954  -3.122  1.00  0.00     0.132 A 
HETATM   12  C   UNL     1      41.436 -14.995  -0.869  1.00  0.00     0.050 C 
HETATM   13  N   UNL     1      39.513 -15.839  -4.061  1.00  0.00    -0.241 NA
HETATM   14  C   UNL     1      38.599 -14.887  -3.810  1.00  0.00     0.139 A 
HETATM   15  N   UNL     1      37.539 -14.526  -4.592  1.00  0.00    -0.350 N 
HETATM   16  H   UNL     1      37.315 -14.961  -5.474  1.00  0.00     0.166 HD
HETATM   17  C   UNL     1      36.871 -13.469  -4.004  1.00  0.00     0.091 A 
HETATM   18  C   UNL     1      37.503 -13.155  -2.811  1.00  0.00     0.034 A 
ENDBRANCH   1   5
BRANCH   2  19
HETATM   19  C   UNL     1      41.622 -13.607   3.607  1.00  0.00     0.043 A 
HETATM   20  C   UNL     1      42.635 -14.319   4.276  1.00  0.00    -0.007 A 
HETATM   21  C   UNL     1      42.987 -13.920   5.582  1.00  0.00     0.011 A 
HETATM   22  C   UNL     1      42.394 -12.810   6.183  1.00  0.00     0.001 A 
HETATM   23  C   UNL     1      41.455 -12.064   5.480  1.00  0.00     0.002 A 
HETATM   24  C   UNL     1      41.079 -12.455   4.195  1.00  0.00     0.030 A 
BRANCH  20  25
HETATM   25  C   UNL     1      43.478 -15.397   3.627  1.00  0.00     0.216 C 
BRANCH  25  26
HETATM   26  O   UNL     1      42.644 -16.397   3.035  1.00  0.00    -0.347 OA
BRANCH  26  27
HETATM   27  C   UNL     1      43.191 -17.652   3.103  1.00  0.00     0.069 A 
HETATM   28  C   UNL     1      43.244 -18.528   2.017  1.00  0.00     0.037 A 
HETATM   29  C   UNL     1      43.839 -19.783   2.164  1.00  0.00     0.003 A 
HETATM   30  C   UNL     1      44.390 -20.157   3.390  1.00  0.00     0.000 A 
HETATM   31  C   UNL     1      44.355 -19.273   4.467  1.00  0.00     0.003 A 
HETATM   32  C   UNL     1      43.762 -18.018   4.321  1.00  0.00     0.037 A 
ENDBRANCH  26  27
ENDBRANCH  25  26
ENDBRANCH  20  25
ENDBRANCH   2  19
TORSDOF 5
ENDMDL
