MODEL 1
REMARK VINA RESULT:      -8.3      0.000      0.000
REMARK  2 active torsions:
REMARK  status: ('A' for Active; 'I' for Inactive)
REMARK    1  A    between atoms: C_4  and  C_5 
REMARK    2  A    between atoms: C_10  and  C_11 
ROOT
HETATM    1  C   UNL     1      42.556 -17.767   4.509  1.00  0.00     0.224 C 
HETATM    2  N   UNL     1      41.890 -16.607   5.112  1.00  0.00    -0.359 N 
HETATM    3  C   UNL     1      40.636 -16.203   4.489  1.00  0.00     0.152 C 
HETATM    4  C   UNL     1      42.707 -15.661   5.736  1.00  0.00     0.047 A 
HETATM    5  C   UNL     1      43.967 -16.036   6.238  1.00  0.00     0.058 A 
HETATM    6  C   UNL     1      44.379 -17.449   6.116  1.00  0.00     0.255 C 
HETATM    7  O   UNL     1      45.412 -17.873   6.623  1.00  0.00    -0.268 OA
HETATM    8  N   UNL     1      43.533 -18.269   5.428  1.00  0.00    -0.331 N 
HETATM    9  C   UNL     1      42.325 -14.325   5.930  1.00  0.00     0.030 A 
HETATM   10  C   UNL     1      43.173 -13.402   6.560  1.00  0.00     0.002 A 
HETATM   11  C   UNL     1      44.422 -13.800   7.025  1.00  0.00     0.001 A 
HETATM   12  C   UNL     1      44.821 -15.122   6.871  1.00  0.00     0.019 A 
HETATM   13  H   UNL     1      43.876 -19.207   5.281  1.00  0.00     0.165 HD
ENDROOT
BRANCH   1  14
HETATM   14  C   UNL     1      43.208 -17.590   3.166  1.00  0.00     0.034 A 
HETATM   15  C   UNL     1      43.905 -18.566   2.398  1.00  0.00     0.122 A 
HETATM   16  N   UNL     1      44.353 -18.067   1.235  1.00  0.00    -0.172 NA
HETATM   17  N   UNL     1      43.984 -16.781   1.270  1.00  0.00    -0.288 N 
HETATM   18  H   UNL     1      44.240 -16.186   0.489  1.00  0.00     0.188 HD
HETATM   19  C   UNL     1      43.286 -16.446   2.387  1.00  0.00     0.123 A 
BRANCH  15  20
HETATM   20  C   UNL     1      44.148 -19.993   2.778  1.00  0.00     0.106 A 
HETATM   21  O   UNL     1      44.628 -20.412   3.988  1.00  0.00    -0.313 OA
HETATM   22  C   UNL     1      44.703 -21.771   3.953  1.00  0.00     0.050 A 
HETATM   23  C   UNL     1      45.191 -22.440   5.176  1.00  0.00     0.076 C 
HETATM   24  C   UNL     1      44.287 -22.237   2.727  1.00  0.00     0.035 A 
HETATM   25  C   UNL     1      43.931 -21.094   1.971  1.00  0.00     0.042 A 
ENDBRANCH  15  20
ENDBRANCH   1  14
TORSDOF 2
ENDMDL
MODEL 2
REMARK VINA RESULT:      -8.1      3.134      5.765
REMARK  2 active torsions:
REMARK  status: ('A' for Active; 'I' for Inactive)
REMARK    1  A    between atoms: C_4  and  C_5 
REMARK    2  A    between atoms: C_10  and  C_11 
ROOT
HETATM    1  C   UNL     1      41.427 -16.628   3.573  1.00  0.00     0.224 C 
HETATM    2  N   UNL     1      41.521 -17.482   4.762  1.00  0.00    -0.359 N 
HETATM    3  C   UNL     1      40.917 -16.945   5.975  1.00  0.00     0.152 C 
HETATM    4  C   UNL     1      42.618 -18.343   4.840  1.00  0.00     0.047 A 
HETATM    5  C   UNL     1      43.266 -18.770   3.666  1.00  0.00     0.058 A 
HETATM    6  C   UNL     1      42.735 -18.313   2.366  1.00  0.00     0.255 C 
HETATM    7  O   UNL     1      43.177 -18.727   1.299  1.00  0.00    -0.268 OA
HETATM    8  N   UNL     1      41.705 -17.420   2.412  1.00  0.00    -0.331 N 
HETATM    9  C   UNL     1      43.111 -18.852   6.051  1.00  0.00     0.030 A 
HETATM   10  C   UNL     1      44.217 -19.713   6.090  1.00  0.00     0.002 A 
HETATM   11  C   UNL     1      44.849 -20.100   4.913  1.00  0.00     0.001 A 
HETATM   12  C   UNL     1      44.370 -19.633   3.694  1.00  0.00     0.019 A 
HETATM   13  H   UNL     1      41.418 -17.055   1.516  1.00  0.00     0.165 HD
ENDROOT
BRANCH   1  14
HETATM   14  C   UNL     1      42.278 -15.390   3.522  1.00  0.00     0.034 A 
HETATM   15  C   UNL     1      42.323 -14.403   2.495  1.00  0.00     0.122 A 
HETATM   16  N   UNL     1      43.192 -13.420   2.779  1.00  0.00    -0.172 NA
HETATM   17  N   UNL     1      43.724 -13.785   3.951  1.00  0.00    -0.288 N 
HETATM   18  H   UNL     1      44.438 -13.191   4.361  1.00  0.00     0.188 HD
HETATM   19  C   UNL     1      43.205 -14.940   4.447  1.00  0.00     0.123 A 
BRANCH  15  20
HETATM   20  C   UNL     1      41.530 -14.399   1.225  1.00  0.00     0.106 A 
HETATM   21  O   UNL     1      41.797 -15.176   0.131  1.00  0.00    -0.313 OA
HETATM   22  C   UNL     1      40.856 -14.896  -0.811  1.00  0.00     0.050 A 
HETATM   23  C   UNL     1      40.949 -15.639  -2.084  1.00  0.00     0.076 C 
HETATM   24  C   UNL     1      39.987 -13.936  -0.343  1.00  0.00     0.035 A 
HETATM   25  C   UNL     1      40.421 -13.616   0.966  1.00  0.00     0.042 A 
ENDBRANCH  15  20
ENDBRANCH   1  14
TORSDOF 2
ENDMDL
MODEL 3
REMARK VINA RESULT:      -7.9      2.487      3.144
REMARK  2 active torsions:
REMARK  status: ('A' for Active; 'I' for Inactive)
REMARK    1  A    between atoms: C_4  and  C_5 
REMARK    2  A    between atoms: C_10  and  C_11 
ROOT
HETATM    1  C   UNL     1      42.263 -16.301   4.465  1.00  0.00     0.224 C 
HETATM    2  N   UNL     1      41.455 -15.679   5.520  1.00  0.00    -0.359 N 
HETATM    3  C   UNL     1      40.508 -16.559   6.193  1.00  0.00     0.152 C 
HETATM    4  C   UNL     1      41.184 -14.315   5.391  1.00  0.00     0.047 A 
HETATM    5  C   UNL     1      42.047 -13.491   4.645  1.00  0.00     0.058 A 
HETATM    6  C   UNL     1      43.250 -14.098   4.041  1.00  0.00     0.255 C 
HETATM    7  O   UNL     1      44.103 -13.427   3.470  1.00  0.00    -0.268 OA
HETATM    8  N   UNL     1      43.378 -15.450   4.174  1.00  0.00    -0.331 N 
HETATM    9  C   UNL     1      40.088 -13.687   6.003  1.00  0.00     0.030 A 
HETATM   10  C   UNL     1      39.847 -12.315   5.849  1.00  0.00     0.002 A 
HETATM   11  C   UNL     1      40.707 -11.531   5.087  1.00  0.00     0.001 A 
HETATM   12  C   UNL     1      41.816 -12.117   4.487  1.00  0.00     0.019 A 
HETATM   13  H   UNL     1      44.159 -15.853   3.679  1.00  0.00     0.165 HD
ENDROOT
BRANCH   1  14
HETATM   14  C   UNL     1      41.584 -16.659   3.173  1.00  0.00     0.034 A 
HETATM   15  C   UNL     1      41.839 -17.783   2.334  1.00  0.00     0.122 A 
HETATM   16  N   UNL     1      41.038 -17.800   1.258  1.00  0.00    -0.172 NA
HETATM   17  N   UNL     1      40.303 -16.688   1.381  1.00  0.00    -0.288 N 
HETATM   18  H   UNL     1      39.628 -16.475   0.654  1.00  0.00     0.188 HD
HETATM   19  C   UNL     1      40.575 -15.980   2.509  1.00  0.00     0.123 A 
BRANCH  15  20
HETATM   20  C   UNL     1      42.862 -18.851   2.562  1.00  0.00     0.106 A 
HETATM   21  O   UNL     1      42.963 -20.007   1.837  1.00  0.00    -0.313 OA
HETATM   22  C   UNL     1      44.014 -20.715   2.335  1.00  0.00     0.050 A 
HETATM   23  C   UNL     1      44.314 -22.006   1.684  1.00  0.00     0.076 C 
HETATM   24  C   UNL     1      44.589 -20.034   3.384  1.00  0.00     0.035 A 
HETATM   25  C   UNL     1      43.847 -18.836   3.531  1.00  0.00     0.042 A 
ENDBRANCH  15  20
ENDBRANCH   1  14
TORSDOF 2
ENDMDL
MODEL 4
REMARK VINA RESULT:      -7.8      3.428      6.678
REMARK  2 active torsions:
REMARK  status: ('A' for Active; 'I' for Inactive)
REMARK    1  A    between atoms: C_4  and  C_5 
REMARK    2  A    between atoms: C_10  and  C_11 
ROOT
HETATM    1  C   UNL     1      41.056 -16.167   4.193  1.00  0.00     0.224 C 
HETATM    2  N   UNL     1      41.594 -17.323   4.919  1.00  0.00    -0.359 N 
HETATM    3  C   UNL     1      41.712 -17.163   6.363  1.00  0.00     0.152 C 
HETATM    4  C   UNL     1      42.476 -18.153   4.225  1.00  0.00     0.047 A 
HETATM    5  C   UNL     1      42.429 -18.218   2.820  1.00  0.00     0.058 A 
HETATM    6  C   UNL     1      41.408 -17.417   2.115  1.00  0.00     0.255 C 
HETATM    7  O   UNL     1      41.235 -17.503   0.904  1.00  0.00    -0.268 OA
HETATM    8  N   UNL     1      40.646 -16.591   2.888  1.00  0.00    -0.331 N 
HETATM    9  C   UNL     1      43.417 -18.979   4.861  1.00  0.00     0.030 A 
HETATM   10  C   UNL     1      44.288 -19.798   4.130  1.00  0.00     0.002 A 
HETATM   11  C   UNL     1      44.231 -19.823   2.741  1.00  0.00     0.001 A 
HETATM   12  C   UNL     1      43.294 -19.036   2.081  1.00  0.00     0.019 A 
HETATM   13  H   UNL     1      40.018 -15.990   2.376  1.00  0.00     0.165 HD
ENDROOT
BRANCH   1  14
HETATM   14  C   UNL     1      41.930 -14.952   4.050  1.00  0.00     0.034 A 
HETATM   15  C   UNL     1      41.594 -13.700   3.460  1.00  0.00     0.122 A 
HETATM   16  N   UNL     1      42.615 -12.830   3.510  1.00  0.00    -0.172 NA
HETATM   17  N   UNL     1      43.604 -13.521   4.089  1.00  0.00    -0.288 N 
HETATM   18  H   UNL     1      44.501 -13.064   4.215  1.00  0.00     0.188 HD
HETATM   19  C   UNL     1      43.247 -14.784   4.446  1.00  0.00     0.123 A 
BRANCH  15  20
HETATM   20  C   UNL     1      40.284 -13.329   2.838  1.00  0.00     0.106 A 
HETATM   21  O   UNL     1      39.592 -14.101   1.946  1.00  0.00    -0.313 OA
HETATM   22  C   UNL     1      38.453 -13.431   1.619  1.00  0.00     0.050 A 
HETATM   23  C   UNL     1      37.542 -14.097   0.666  1.00  0.00     0.076 C 
HETATM   24  C   UNL     1      38.405 -12.226   2.282  1.00  0.00     0.035 A 
HETATM   25  C   UNL     1      39.583 -12.159   3.065  1.00  0.00     0.042 A 
ENDBRANCH  15  20
ENDBRANCH   1  14
TORSDOF 2
ENDMDL
MODEL 5
REMARK VINA RESULT:      -7.7      2.528      4.457
REMARK  2 active torsions:
REMARK  status: ('A' for Active; 'I' for Inactive)
REMARK    1  A    between atoms: C_4  and  C_5 
REMARK    2  A    between atoms: C_10  and  C_11 
ROOT
HETATM    1  C   UNL     1      43.079 -16.099   3.312  1.00  0.00     0.224 C 
HETATM    2  N   UNL     1      42.773 -14.708   2.960  1.00  0.00    -0.359 N 
HETATM    3  C   UNL     1      43.603 -13.697   3.602  1.00  0.00     0.152 C 
HETATM    4  C   UNL     1      41.454 -14.419   2.604  1.00  0.00     0.047 A 
HETATM    5  C   UNL     1      40.624 -15.431   2.086  1.00  0.00     0.058 A 
HETATM    6  C   UNL     1      41.194 -16.780   1.901  1.00  0.00     0.255 C 
HETATM    7  O   UNL     1      40.567 -17.684   1.358  1.00  0.00    -0.268 OA
HETATM    8  N   UNL     1      42.470 -16.965   2.347  1.00  0.00    -0.331 N 
HETATM    9  C   UNL     1      40.895 -13.135   2.702  1.00  0.00     0.030 A 
HETATM   10  C   UNL     1      39.565 -12.884   2.337  1.00  0.00     0.002 A 
HETATM   11  C   UNL     1      38.763 -13.910   1.849  1.00  0.00     0.001 A 
HETATM   12  C   UNL     1      39.294 -15.188   1.716  1.00  0.00     0.019 A 
HETATM   13  H   UNL     1      42.806 -17.915   2.292  1.00  0.00     0.165 HD
ENDROOT
BRANCH   1  14
HETATM   14  C   UNL     1      42.707 -16.578   4.688  1.00  0.00     0.034 A 
HETATM   15  C   UNL     1      43.003 -17.838   5.283  1.00  0.00     0.122 A 
HETATM   16  N   UNL     1      42.527 -17.928   6.535  1.00  0.00    -0.172 NA
HETATM   17  N   UNL     1      41.902 -16.761   6.730  1.00  0.00    -0.288 N 
HETATM   18  H   UNL     1      41.436 -16.607   7.618  1.00  0.00     0.188 HD
HETATM   19  C   UNL     1      41.991 -15.914   5.670  1.00  0.00     0.123 A 
BRANCH  15  20
HETATM   20  C   UNL     1      43.748 -18.971   4.650  1.00  0.00     0.106 A 
HETATM   21  O   UNL     1      43.430 -19.548   3.451  1.00  0.00    -0.313 OA
HETATM   22  C   UNL     1      44.339 -20.532   3.213  1.00  0.00     0.050 A 
HETATM   23  C   UNL     1      44.188 -21.284   1.951  1.00  0.00     0.076 C 
HETATM   24  C   UNL     1      45.239 -20.607   4.252  1.00  0.00     0.035 A 
HETATM   25  C   UNL     1      44.859 -19.604   5.177  1.00  0.00     0.042 A 
ENDBRANCH  15  20
ENDBRANCH   1  14
TORSDOF 2
ENDMDL
MODEL 6
REMARK VINA RESULT:      -7.5      3.664      6.232
REMARK  2 active torsions:
REMARK  status: ('A' for Active; 'I' for Inactive)
REMARK    1  A    between atoms: C_4  and  C_5 
REMARK    2  A    between atoms: C_10  and  C_11 
ROOT
HETATM    1  C   UNL     1      43.126 -15.689   2.394  1.00  0.00     0.224 C 
HETATM    2  N   UNL     1      43.826 -16.961   2.609  1.00  0.00    -0.359 N 
HETATM    3  C   UNL     1      44.031 -17.778   1.420  1.00  0.00     0.152 C 
HETATM    4  C   UNL     1      43.683 -17.560   3.862  1.00  0.00     0.047 A 
HETATM    5  C   UNL     1      43.375 -16.776   4.990  1.00  0.00     0.058 A 
HETATM    6  C   UNL     1      43.243 -15.316   4.814  1.00  0.00     0.255 C 
HETATM    7  O   UNL     1      43.083 -14.556   5.764  1.00  0.00    -0.268 OA
HETATM    8  N   UNL     1      43.335 -14.849   3.535  1.00  0.00    -0.331 N 
HETATM    9  C   UNL     1      43.865 -18.934   4.083  1.00  0.00     0.030 A 
HETATM   10  C   UNL     1      43.710 -19.501   5.356  1.00  0.00     0.002 A 
HETATM   11  C   UNL     1      43.384 -18.701   6.447  1.00  0.00     0.001 A 
HETATM   12  C   UNL     1      43.222 -17.333   6.267  1.00  0.00     0.019 A 
HETATM   13  H   UNL     1      43.154 -13.862   3.430  1.00  0.00     0.165 HD
ENDROOT
BRANCH   1  14
HETATM   14  C   UNL     1      41.653 -15.734   2.095  1.00  0.00     0.034 A 
HETATM   15  C   UNL     1      40.921 -14.913   1.190  1.00  0.00     0.122 A 
HETATM   16  N   UNL     1      39.618 -15.233   1.162  1.00  0.00    -0.172 NA
HETATM   17  N   UNL     1      39.505 -16.218   2.061  1.00  0.00    -0.288 N 
HETATM   18  H   UNL     1      38.585 -16.611   2.231  1.00  0.00     0.188 HD
HETATM   19  C   UNL     1      40.687 -16.567   2.635  1.00  0.00     0.123 A 
BRANCH  15  20
HETATM   20  C   UNL     1      41.471 -13.810   0.342  1.00  0.00     0.106 A 
HETATM   21  O   UNL     1      41.810 -13.929  -0.978  1.00  0.00    -0.313 OA
HETATM   22  C   UNL     1      42.261 -12.714  -1.398  1.00  0.00     0.050 A 
HETATM   23  C   UNL     1      42.674 -12.613  -2.812  1.00  0.00     0.076 C 
HETATM   24  C   UNL     1      42.226 -11.811  -0.360  1.00  0.00     0.035 A 
HETATM   25  C   UNL     1      41.719 -12.515   0.759  1.00  0.00     0.042 A 
ENDBRANCH  15  20
ENDBRANCH   1  14
TORSDOF 2
ENDMDL
MODEL 7
REMARK VINA RESULT:      -7.4      3.023      6.259
REMARK  2 active torsions:
REMARK  status: ('A' for Active; 'I' for Inactive)
REMARK    1  A    between atoms: C_4  and  C_5 
REMARK    2  A    between atoms: C_10  and  C_11 
ROOT
HETATM    1  C   UNL     1      43.061 -15.774   2.884  1.00  0.00     0.224 C 
HETATM    2  N   UNL     1      43.939 -16.946   2.790  1.00  0.00    -0.359 N 
HETATM    3  C   UNL     1      44.246 -17.399   1.439  1.00  0.00     0.152 C 
HETATM    4  C   UNL     1      43.899 -17.856   3.848  1.00  0.00     0.047 A 
HETATM    5  C   UNL     1      43.494 -17.434   5.129  1.00  0.00     0.058 A 
HETATM    6  C   UNL     1      43.152 -16.010   5.323  1.00  0.00     0.255 C 
HETATM    7  O   UNL     1      42.895 -15.546   6.428  1.00  0.00    -0.268 OA
HETATM    8  N   UNL     1      43.160 -15.228   4.205  1.00  0.00    -0.331 N 
HETATM    9  C   UNL     1      44.279 -19.201   3.722  1.00  0.00     0.030 A 
HETATM   10  C   UNL     1      44.222 -20.087   4.808  1.00  0.00     0.002 A 
HETATM   11  C   UNL     1      43.797 -19.643   6.055  1.00  0.00     0.001 A 
HETATM   12  C   UNL     1      43.438 -18.311   6.221  1.00  0.00     0.019 A 
HETATM   13  H   UNL     1      42.838 -14.282   4.346  1.00  0.00     0.165 HD
ENDROOT
BRANCH   1  14
HETATM   14  C   UNL     1      41.607 -15.951   2.547  1.00  0.00     0.034 A 
HETATM   15  C   UNL     1      40.592 -14.952   2.510  1.00  0.00     0.122 A 
HETATM   16  N   UNL     1      39.400 -15.459   2.158  1.00  0.00    -0.172 NA
HETATM   17  N   UNL     1      39.634 -16.768   2.007  1.00  0.00    -0.288 N 
HETATM   18  H   UNL     1      38.856 -17.370   1.759  1.00  0.00     0.188 HD
HETATM   19  C   UNL     1      40.933 -17.114   2.211  1.00  0.00     0.123 A 
BRANCH  15  20
HETATM   20  C   UNL     1      40.760 -13.497   2.815  1.00  0.00     0.106 A 
HETATM   21  O   UNL     1      40.977 -12.976   4.061  1.00  0.00    -0.313 OA
HETATM   22  C   UNL     1      41.085 -11.626   3.930  1.00  0.00     0.050 A 
HETATM   23  C   UNL     1      41.335 -10.856   5.166  1.00  0.00     0.076 C 
HETATM   24  C   UNL     1      40.929 -11.264   2.611  1.00  0.00     0.035 A 
HETATM   25  C   UNL     1      40.720 -12.467   1.894  1.00  0.00     0.042 A 
ENDBRANCH  15  20
ENDBRANCH   1  14
TORSDOF 2
ENDMDL
MODEL 8
REMARK VINA RESULT:      -7.3      2.495      6.530
REMARK  2 active torsions:
REMARK  status: ('A' for Active; 'I' for Inactive)
REMARK    1  A    between atoms: C_4  and  C_5 
REMARK    2  A    between atoms: C_10  and  C_11 
ROOT
HETATM    1  C   UNL     1      43.403 -15.951   4.893  1.00  0.00     0.224 C 
HETATM    2  N   UNL     1      43.680 -16.545   3.580  1.00  0.00    -0.359 N 
HETATM    3  C   UNL     1      43.118 -15.840   2.436  1.00  0.00     0.152 C 
HETATM    4  C   UNL     1      43.866 -17.929   3.536  1.00  0.00     0.047 A 
HETATM    5  C   UNL     1      44.304 -18.620   4.681  1.00  0.00     0.058 A 
HETATM    6  C   UNL     1      44.591 -17.842   5.903  1.00  0.00     0.255 C 
HETATM    7  O   UNL     1      45.077 -18.357   6.905  1.00  0.00    -0.268 OA
HETATM    8  N   UNL     1      44.309 -16.508   5.853  1.00  0.00    -0.331 N 
HETATM    9  C   UNL     1      43.668 -18.695   2.377  1.00  0.00     0.030 A 
HETATM   10  C   UNL     1      43.862 -20.084   2.372  1.00  0.00     0.002 A 
HETATM   11  C   UNL     1      44.274 -20.740   3.527  1.00  0.00     0.001 A 
HETATM   12  C   UNL     1      44.504 -20.007   4.685  1.00  0.00     0.019 A 
HETATM   13  H   UNL     1      44.429 -16.015   6.725  1.00  0.00     0.165 HD
ENDROOT
BRANCH   1  14
HETATM   14  C   UNL     1      42.006 -16.056   5.436  1.00  0.00     0.034 A 
HETATM   15  C   UNL     1      41.000 -15.047   5.460  1.00  0.00     0.122 A 
HETATM   16  N   UNL     1      39.858 -15.487   6.011  1.00  0.00    -0.172 NA
HETATM   17  N   UNL     1      40.134 -16.747   6.370  1.00  0.00    -0.288 N 
HETATM   18  H   UNL     1      39.411 -17.283   6.837  1.00  0.00     0.188 HD
HETATM   19  C   UNL     1      41.392 -17.143   6.037  1.00  0.00     0.123 A 
BRANCH  15  20
HETATM   20  C   UNL     1      41.130 -13.645   4.952  1.00  0.00     0.106 A 
HETATM   21  O   UNL     1      40.906 -13.254   3.661  1.00  0.00    -0.313 OA
HETATM   22  C   UNL     1      41.117 -11.911   3.595  1.00  0.00     0.050 A 
HETATM   23  C   UNL     1      40.917 -11.271   2.279  1.00  0.00     0.076 C 
HETATM   24  C   UNL     1      41.487 -11.428   4.830  1.00  0.00     0.035 A 
HETATM   25  C   UNL     1      41.497 -12.544   5.703  1.00  0.00     0.042 A 
ENDBRANCH  15  20
ENDBRANCH   1  14
TORSDOF 2
ENDMDL
MODEL 9
REMARK VINA RESULT:      -7.2      3.046      5.838
REMARK  2 active torsions:
REMARK  status: ('A' for Active; 'I' for Inactive)
REMARK    1  A    between atoms: C_4  and  C_5 
REMARK    2  A    between atoms: C_10  and  C_11 
ROOT
HETATM    1  C   UNL     1      43.185 -15.320   4.424  1.00  0.00     0.224 C 
HETATM    2  N   UNL     1      43.612 -16.703   4.184  1.00  0.00    -0.359 N 
HETATM    3  C   UNL     1      43.300 -17.240   2.866  1.00  0.00     0.152 C 
HETATM    4  C   UNL     1      43.681 -17.547   5.293  1.00  0.00     0.047 A 
HETATM    5  C   UNL     1      43.873 -17.010   6.580  1.00  0.00     0.058 A 
HETATM    6  C   UNL     1      44.032 -15.548   6.713  1.00  0.00     0.255 C 
HETATM    7  O   UNL     1      44.308 -15.017   7.784  1.00  0.00    -0.268 OA
HETATM    8  N   UNL     1      43.878 -14.816   5.573  1.00  0.00    -0.331 N 
HETATM    9  C   UNL     1      43.601 -18.946   5.202  1.00  0.00     0.030 A 
HETATM   10  C   UNL     1      43.673 -19.762   6.340  1.00  0.00     0.002 A 
HETATM   11  C   UNL     1      43.841 -19.198   7.600  1.00  0.00     0.001 A 
HETATM   12  C   UNL     1      43.949 -17.818   7.723  1.00  0.00     0.019 A 
HETATM   13  H   UNL     1      43.902 -13.815   5.703  1.00  0.00     0.165 HD
ENDROOT
BRANCH   1  14
HETATM   14  C   UNL     1      41.716 -15.052   4.595  1.00  0.00     0.034 A 
HETATM   15  C   UNL     1      40.800 -14.557   3.623  1.00  0.00     0.122 A 
HETATM   16  N   UNL     1      39.555 -14.448   4.114  1.00  0.00    -0.172 NA
HETATM   17  N   UNL     1      39.674 -14.832   5.391  1.00  0.00    -0.288 N 
HETATM   18  H   UNL     1      38.847 -14.809   5.979  1.00  0.00     0.188 HD
HETATM   19  C   UNL     1      40.934 -15.217   5.727  1.00  0.00     0.123 A 
BRANCH  15  20
HETATM   20  C   UNL     1      41.115 -14.180   2.210  1.00  0.00     0.106 A 
HETATM   21  O   UNL     1      41.601 -12.965   1.811  1.00  0.00    -0.313 OA
HETATM   22  C   UNL     1      41.766 -13.011   0.461  1.00  0.00     0.050 A 
HETATM   23  C   UNL     1      42.299 -11.794  -0.185  1.00  0.00     0.076 C 
HETATM   24  C   UNL     1      41.382 -14.242  -0.022  1.00  0.00     0.035 A 
HETATM   25  C   UNL     1      40.962 -14.993   1.102  1.00  0.00     0.042 A 
ENDBRANCH  15  20
ENDBRANCH   1  14
TORSDOF 2
ENDMDL
MODEL 10
REMARK VINA RESULT:      -7.0      3.739      5.939
REMARK  2 active torsions:
REMARK  status: ('A' for Active; 'I' for Inactive)
REMARK    1  A    between atoms: C_4  and  C_5 
REMARK    2  A    between atoms: C_10  and  C_11 
ROOT
HETATM    1  C   UNL     1      40.727 -14.749   3.892  1.00  0.00     0.224 C 
HETATM    2  N   UNL     1      41.773 -13.935   4.523  1.00  0.00    -0.359 N 
HETATM    3  C   UNL     1      42.289 -12.836   3.718  1.00  0.00     0.152 C 
HETATM    4  C   UNL     1      42.589 -14.568   5.462  1.00  0.00     0.047 A 
HETATM    5  C   UNL     1      42.122 -15.699   6.157  1.00  0.00     0.058 A 
HETATM    6  C   UNL     1      40.747 -16.168   5.891  1.00  0.00     0.255 C 
HETATM    7  O   UNL     1      40.233 -17.078   6.533  1.00  0.00    -0.268 OA
HETATM    8  N   UNL     1      40.066 -15.517   4.905  1.00  0.00    -0.331 N 
HETATM    9  C   UNL     1      43.876 -14.115   5.792  1.00  0.00     0.030 A 
HETATM   10  C   UNL     1      44.669 -14.779   6.740  1.00  0.00     0.002 A 
HETATM   11  C   UNL     1      44.186 -15.907   7.394  1.00  0.00     0.001 A 
HETATM   12  C   UNL     1      42.906 -16.367   7.109  1.00  0.00     0.019 A 
HETATM   13  H   UNL     1      39.164 -15.911   4.680  1.00  0.00     0.165 HD
ENDROOT
BRANCH   1  14
HETATM   14  C   UNL     1      41.127 -15.673   2.776  1.00  0.00     0.034 A 
HETATM   15  C   UNL     1      40.604 -15.719   1.451  1.00  0.00     0.122 A 
HETATM   16  N   UNL     1      41.200 -16.664   0.708  1.00  0.00    -0.172 NA
HETATM   17  N   UNL     1      42.066 -17.242   1.549  1.00  0.00    -0.288 N 
HETATM   18  H   UNL     1      42.625 -18.017   1.206  1.00  0.00     0.188 HD
HETATM   19  C   UNL     1      42.076 -16.682   2.787  1.00  0.00     0.123 A 
BRANCH  15  20
HETATM   20  C   UNL     1      39.522 -14.852   0.889  1.00  0.00     0.106 A 
HETATM   21  O   UNL     1      39.625 -14.114  -0.259  1.00  0.00    -0.313 OA
HETATM   22  C   UNL     1      38.439 -13.471  -0.442  1.00  0.00     0.050 A 
HETATM   23  C   UNL     1      38.325 -12.618  -1.643  1.00  0.00     0.076 C 
HETATM   24  C   UNL     1      37.571 -13.777   0.582  1.00  0.00     0.035 A 
HETATM   25  C   UNL     1      38.268 -14.664   1.438  1.00  0.00     0.042 A 
ENDBRANCH  15  20
ENDBRANCH   1  14
TORSDOF 2
ENDMDL
