MODEL 1
REMARK VINA RESULT:      -9.3      0.000      0.000
REMARK  9 active torsions:
REMARK  status: ('A' for Active; 'I' for Inactive)
REMARK    1  A    between atoms: N_2  and  C_5 
REMARK    2  A    between atoms: C_10  and  N_11 
REMARK       I    between atoms: N_11  and  C_12 
REMARK    3  A    between atoms: C_12  and  C_14 
REMARK    4  A    between atoms: C_18  and  C_19 
REMARK    5  A    between atoms: C_19  and  N_20 
REMARK       I    between atoms: N_20  and  C_21 
REMARK    6  A    between atoms: C_21  and  C_23 
REMARK    7  A    between atoms: N_26  and  C_34 
REMARK    8  A    between atoms: C_27  and  C_28 
REMARK    9  A    between atoms: C_38  and  N_39 
ROOT
HETATM    1  C   UNL     1      40.937  -9.660   1.564  1.00  0.00     0.161 C 
ENDROOT
BRANCH   1   2
HETATM    2  C   UNL     1      40.975 -10.356   2.899  1.00  0.00    -0.040 A 
HETATM    3  C   UNL     1      40.825  -9.616   4.081  1.00  0.00     0.009 A 
HETATM    4  C   UNL     1      40.825 -10.253   5.320  1.00  0.00     0.002 A 
HETATM    5  C   UNL     1      40.988 -11.636   5.392  1.00  0.00     0.017 A 
HETATM    6  C   UNL     1      41.151 -12.395   4.225  1.00  0.00     0.033 A 
HETATM    7  C   UNL     1      41.122 -11.752   2.978  1.00  0.00     0.026 A 
BRANCH   6   8
HETATM    8  C   UNL     1      41.328 -13.873   4.375  1.00  0.00     0.257 C 
HETATM    9  N   UNL     1      42.510 -14.384   3.888  1.00  0.00    -0.301 N 
HETATM   10  H   UNL     1      43.210 -13.774   3.491  1.00  0.00     0.171 HD
HETATM   11  O   UNL     1      40.438 -14.502   4.936  1.00  0.00    -0.267 OA
BRANCH   9  12
HETATM   12  C   UNL     1      42.918 -15.694   3.936  1.00  0.00     0.174 A 
HETATM   13  N   UNL     1      43.153 -16.378   2.834  1.00  0.00    -0.228 NA
HETATM   14  C   UNL     1      43.551 -17.654   3.159  1.00  0.00     0.050 A 
HETATM   15  C   UNL     1      43.895 -18.656   2.109  1.00  0.00     0.062 C 
HETATM   16  C   UNL     1      43.644 -17.910   4.510  1.00  0.00     0.013 A 
HETATM   17  C   UNL     1      43.990 -20.076   2.707  1.00  0.00     0.039 C 
HETATM   18  C   UNL     1      44.766 -20.068   4.046  1.00  0.00     0.192 C 
HETATM   19  C   UNL     1      44.062 -19.202   5.123  1.00  0.00     0.081 C 
HETATM   20  S   UNL     1      43.172 -16.543   5.398  1.00  0.00    -0.055 SA
BRANCH  18  21
HETATM   21  N   UNL     1      45.030 -21.501   4.517  1.00  0.00    -0.074 N 
HETATM   22  C   UNL     1      44.500 -21.760   5.908  1.00  0.00     0.269 C 
HETATM   23  H   UNL     1      46.053 -21.580   4.605  1.00  0.00     0.279 HD
HETATM   24  C   UNL     1      44.621 -22.602   3.572  1.00  0.00     0.269 C 
ENDBRANCH  18  21
ENDBRANCH   9  12
ENDBRANCH   6   8
ENDBRANCH   1   2
BRANCH   1  25
HETATM   25  N   UNL     1      40.663 -10.593   0.502  1.00  0.00    -0.351 N 
HETATM   26  C   UNL     1      41.663 -11.016  -0.347  1.00  0.00     0.274 C 
HETATM   27  O   UNL     1      42.845 -10.750  -0.159  1.00  0.00    -0.266 OA
HETATM   28  H   UNL     1      39.705 -10.756   0.213  1.00  0.00     0.163 HD
BRANCH  26  29
HETATM   29  C   UNL     1      41.165 -11.777  -1.488  1.00  0.00     0.177 A 
HETATM   30  N   UNL     1      41.412 -11.381  -2.777  1.00  0.00    -0.124 NA
HETATM   31  N   UNL     1      40.845 -12.249  -3.594  1.00  0.00    -0.058 NA
HETATM   32  N   UNL     1      40.250 -13.236  -2.859  1.00  0.00    -0.188 N 
HETATM   33  C   UNL     1      40.404 -12.939  -1.500  1.00  0.00     0.109 A 
BRANCH  32  34
HETATM   34  C   UNL     1      39.629 -14.346  -3.487  1.00  0.00     0.230 A 
HETATM   35  N   UNL     1      40.338 -15.392  -3.911  1.00  0.00    -0.081 NA
HETATM   36  O   UNL     1      39.391 -16.241  -4.478  1.00  0.00    -0.103 OA
HETATM   37  N   UNL     1      38.112 -15.698  -4.393  1.00  0.00    -0.083 NA
HETATM   38  C   UNL     1      38.263 -14.527  -3.779  1.00  0.00     0.201 A 
BRANCH  38  39
HETATM   39  N   UNL     1      37.251 -13.686  -3.493  1.00  0.00    -0.379 N 
HETATM   40  H   UNL     1      36.436 -13.662  -4.097  1.00  0.00     0.158 HD
HETATM   41  H   UNL     1      37.388 -12.854  -2.923  1.00  0.00     0.158 HD
ENDBRANCH  38  39
ENDBRANCH  32  34
BRANCH  33  42
HETATM   42  C   UNL     1      39.841 -13.706  -0.393  1.00  0.00    -0.005 A 
HETATM   43  C   UNL     1      40.626 -14.640   0.294  1.00  0.00     0.014 A 
HETATM   44  C   UNL     1      40.085 -15.366   1.358  1.00  0.00     0.001 A 
HETATM   45  C   UNL     1      38.761 -15.162   1.743  1.00  0.00     0.000 A 
HETATM   46  C   UNL     1      37.976 -14.228   1.069  1.00  0.00     0.001 A 
HETATM   47  C   UNL     1      38.515 -13.498   0.009  1.00  0.00     0.014 A 
ENDBRANCH  33  42
ENDBRANCH  26  29
ENDBRANCH   1  25
TORSDOF 9
ENDMDL
MODEL 2
REMARK VINA RESULT:      -9.3      5.153      9.386
REMARK  9 active torsions:
REMARK  status: ('A' for Active; 'I' for Inactive)
REMARK    1  A    between atoms: N_2  and  C_5 
REMARK    2  A    between atoms: C_10  and  N_11 
REMARK       I    between atoms: N_11  and  C_12 
REMARK    3  A    between atoms: C_12  and  C_14 
REMARK    4  A    between atoms: C_18  and  C_19 
REMARK    5  A    between atoms: C_19  and  N_20 
REMARK       I    between atoms: N_20  and  C_21 
REMARK    6  A    between atoms: C_21  and  C_23 
REMARK    7  A    between atoms: N_26  and  C_34 
REMARK    8  A    between atoms: C_27  and  C_28 
REMARK    9  A    between atoms: C_38  and  N_39 
ROOT
HETATM    1  C   UNL     1      42.371 -13.004   2.562  1.00  0.00     0.161 C 
ENDROOT
BRANCH   1   2
HETATM    2  C   UNL     1      41.508 -12.892   3.791  1.00  0.00    -0.040 A 
HETATM    3  C   UNL     1      40.320 -13.631   3.885  1.00  0.00     0.009 A 
HETATM    4  C   UNL     1      39.531 -13.560   5.032  1.00  0.00     0.002 A 
HETATM    5  C   UNL     1      39.915 -12.740   6.092  1.00  0.00     0.017 A 
HETATM    6  C   UNL     1      41.093 -11.983   6.015  1.00  0.00     0.033 A 
HETATM    7  C   UNL     1      41.898 -12.079   4.871  1.00  0.00     0.026 A 
BRANCH   6   8
HETATM    8  C   UNL     1      41.441 -11.119   7.186  1.00  0.00     0.257 C 
HETATM    9  N   UNL     1      41.022 -11.582   8.414  1.00  0.00    -0.301 N 
HETATM   10  H   UNL     1      40.544 -12.467   8.494  1.00  0.00     0.171 HD
HETATM   11  O   UNL     1      42.086 -10.099   6.973  1.00  0.00    -0.267 OA
BRANCH   9  12
HETATM   12  C   UNL     1      41.245 -10.990   9.632  1.00  0.00     0.174 A 
HETATM   13  N   UNL     1      42.450 -10.950  10.163  1.00  0.00    -0.228 NA
HETATM   14  C   UNL     1      42.400 -10.302  11.375  1.00  0.00     0.050 A 
HETATM   15  C   UNL     1      43.623 -10.098  12.204  1.00  0.00     0.062 C 
HETATM   16  C   UNL     1      41.156  -9.828  11.732  1.00  0.00     0.013 A 
HETATM   17  C   UNL     1      43.256  -9.648  13.634  1.00  0.00     0.039 C 
HETATM   18  C   UNL     1      42.152  -8.563  13.612  1.00  0.00     0.192 C 
HETATM   19  C   UNL     1      40.835  -9.083  12.982  1.00  0.00     0.081 C 
HETATM   20  S   UNL     1      40.010 -10.248  10.553  1.00  0.00    -0.055 SA
BRANCH  18  21
HETATM   21  N   UNL     1      41.950  -7.981  15.015  1.00  0.00    -0.074 N 
HETATM   22  C   UNL     1      40.610  -7.299  15.170  1.00  0.00     0.269 C 
HETATM   23  H   UNL     1      42.643  -7.225  15.105  1.00  0.00     0.279 HD
HETATM   24  C   UNL     1      42.216  -8.911  16.170  1.00  0.00     0.269 C 
ENDBRANCH  18  21
ENDBRANCH   9  12
ENDBRANCH   6   8
ENDBRANCH   1   2
BRANCH   1  25
HETATM   25  N   UNL     1      42.951 -14.318   2.455  1.00  0.00    -0.351 N 
HETATM   26  C   UNL     1      42.394 -15.276   1.635  1.00  0.00     0.274 C 
HETATM   27  O   UNL     1      41.486 -15.025   0.851  1.00  0.00    -0.266 OA
HETATM   28  H   UNL     1      43.615 -14.632   3.154  1.00  0.00     0.163 HD
BRANCH  26  29
HETATM   29  C   UNL     1      42.975 -16.601   1.821  1.00  0.00     0.177 A 
HETATM   30  N   UNL     1      43.541 -17.288   0.778  1.00  0.00    -0.124 NA
HETATM   31  N   UNL     1      43.979 -18.447   1.233  1.00  0.00    -0.058 NA
HETATM   32  N   UNL     1      43.736 -18.524   2.576  1.00  0.00    -0.188 N 
HETATM   33  C   UNL     1      43.055 -17.368   2.976  1.00  0.00     0.109 A 
BRANCH  32  34
HETATM   34  C   UNL     1      44.175 -19.635   3.339  1.00  0.00     0.230 A 
HETATM   35  N   UNL     1      44.635 -19.489   4.581  1.00  0.00    -0.081 NA
HETATM   36  O   UNL     1      44.980 -20.780   4.974  1.00  0.00    -0.103 OA
HETATM   37  N   UNL     1      44.726 -21.699   3.961  1.00  0.00    -0.083 NA
HETATM   38  C   UNL     1      44.227 -20.988   2.952  1.00  0.00     0.201 A 
BRANCH  38  39
HETATM   39  N   UNL     1      43.840 -21.514   1.774  1.00  0.00    -0.379 N 
HETATM   40  H   UNL     1      42.876 -21.804   1.650  1.00  0.00     0.158 HD
HETATM   41  H   UNL     1      44.504 -21.943   1.133  1.00  0.00     0.158 HD
ENDBRANCH  38  39
ENDBRANCH  32  34
BRANCH  33  42
HETATM   42  C   UNL     1      42.546 -17.103   4.318  1.00  0.00    -0.005 A 
HETATM   43  C   UNL     1      43.180 -16.169   5.146  1.00  0.00     0.014 A 
HETATM   44  C   UNL     1      42.684 -15.913   6.426  1.00  0.00     0.001 A 
HETATM   45  C   UNL     1      41.553 -16.584   6.886  1.00  0.00     0.000 A 
HETATM   46  C   UNL     1      40.911 -17.509   6.064  1.00  0.00     0.001 A 
HETATM   47  C   UNL     1      41.401 -17.764   4.782  1.00  0.00     0.014 A 
ENDBRANCH  33  42
ENDBRANCH  26  29
ENDBRANCH   1  25
TORSDOF 9
ENDMDL
MODEL 3
REMARK VINA RESULT:      -9.1      3.101      9.650
REMARK  9 active torsions:
REMARK  status: ('A' for Active; 'I' for Inactive)
REMARK    1  A    between atoms: N_2  and  C_5 
REMARK    2  A    between atoms: C_10  and  N_11 
REMARK       I    between atoms: N_11  and  C_12 
REMARK    3  A    between atoms: C_12  and  C_14 
REMARK    4  A    between atoms: C_18  and  C_19 
REMARK    5  A    between atoms: C_19  and  N_20 
REMARK       I    between atoms: N_20  and  C_21 
REMARK    6  A    between atoms: C_21  and  C_23 
REMARK    7  A    between atoms: N_26  and  C_34 
REMARK    8  A    between atoms: C_27  and  C_28 
REMARK    9  A    between atoms: C_38  and  N_39 
ROOT
HETATM    1  C   UNL     1      41.266 -15.244   5.950  1.00  0.00     0.161 C 
ENDROOT
BRANCH   1   2
HETATM    2  C   UNL     1      41.331 -14.447   4.673  1.00  0.00    -0.040 A 
HETATM    3  C   UNL     1      42.406 -13.576   4.444  1.00  0.00     0.009 A 
HETATM    4  C   UNL     1      42.494 -12.858   3.252  1.00  0.00     0.002 A 
HETATM    5  C   UNL     1      41.502 -12.995   2.282  1.00  0.00     0.017 A 
HETATM    6  C   UNL     1      40.413 -13.852   2.495  1.00  0.00     0.033 A 
HETATM    7  C   UNL     1      40.343 -14.593   3.684  1.00  0.00     0.026 A 
BRANCH   6   8
HETATM    8  C   UNL     1      39.380 -13.945   1.415  1.00  0.00     0.257 C 
HETATM    9  N   UNL     1      39.653 -13.232   0.268  1.00  0.00    -0.301 N 
HETATM   10  H   UNL     1      40.515 -12.718   0.174  1.00  0.00     0.171 HD
HETATM   11  O   UNL     1      38.404 -14.657   1.616  1.00  0.00    -0.267 OA
BRANCH   9  12
HETATM   12  C   UNL     1      38.883 -13.183  -0.868  1.00  0.00     0.174 A 
HETATM   13  N   UNL     1      38.547 -14.280  -1.515  1.00  0.00    -0.228 NA
HETATM   14  C   UNL     1      37.776 -13.955  -2.607  1.00  0.00     0.050 A 
HETATM   15  C   UNL     1      37.240 -15.001  -3.525  1.00  0.00     0.062 C 
HETATM   16  C   UNL     1      37.509 -12.611  -2.752  1.00  0.00     0.013 A 
HETATM   17  C   UNL     1      36.695 -14.372  -4.825  1.00  0.00     0.039 C 
HETATM   18  C   UNL     1      35.853 -13.109  -4.524  1.00  0.00     0.192 C 
HETATM   19  C   UNL     1      36.691 -12.000  -3.837  1.00  0.00     0.081 C 
HETATM   20  S   UNL     1      38.283 -11.725  -1.530  1.00  0.00    -0.055 SA
BRANCH  18  21
HETATM   21  N   UNL     1      35.152 -12.622  -5.796  1.00  0.00    -0.074 N 
HETATM   22  C   UNL     1      35.289 -13.597  -6.942  1.00  0.00     0.269 C 
HETATM   23  H   UNL     1      35.671 -11.785  -6.097  1.00  0.00     0.279 HD
HETATM   24  C   UNL     1      33.721 -12.173  -5.641  1.00  0.00     0.269 C 
ENDBRANCH  18  21
ENDBRANCH   9  12
ENDBRANCH   6   8
ENDBRANCH   1   2
BRANCH   1  25
HETATM   25  N   UNL     1      41.867 -16.542   5.780  1.00  0.00    -0.351 N 
HETATM   26  C   UNL     1      43.200 -16.749   6.063  1.00  0.00     0.274 C 
HETATM   27  O   UNL     1      43.898 -15.901   6.608  1.00  0.00    -0.266 OA
HETATM   28  H   UNL     1      41.392 -17.247   5.226  1.00  0.00     0.163 HD
BRANCH  26  29
HETATM   29  C   UNL     1      43.685 -18.054   5.626  1.00  0.00     0.177 A 
HETATM   30  N   UNL     1      44.293 -18.921   6.496  1.00  0.00    -0.124 NA
HETATM   31  N   UNL     1      44.627 -20.011   5.831  1.00  0.00    -0.058 NA
HETATM   32  N   UNL     1      44.218 -19.889   4.532  1.00  0.00    -0.188 N 
HETATM   33  C   UNL     1      43.644 -18.623   4.359  1.00  0.00     0.109 A 
BRANCH  32  34
HETATM   34  C   UNL     1      44.380 -20.952   3.608  1.00  0.00     0.230 A 
HETATM   35  N   UNL     1      44.119 -20.792   2.311  1.00  0.00    -0.081 NA
HETATM   36  O   UNL     1      44.373 -22.043   1.754  1.00  0.00    -0.103 OA
HETATM   37  N   UNL     1      44.786 -22.952   2.723  1.00  0.00    -0.083 NA
HETATM   38  C   UNL     1      44.791 -22.274   3.869  1.00  0.00     0.201 A 
BRANCH  38  39
HETATM   39  N   UNL     1      45.144 -22.797   5.058  1.00  0.00    -0.379 N 
HETATM   40  H   UNL     1      44.766 -23.696   5.340  1.00  0.00     0.158 HD
HETATM   41  H   UNL     1      45.487 -22.217   5.820  1.00  0.00     0.158 HD
ENDBRANCH  38  39
ENDBRANCH  32  34
BRANCH  33  42
HETATM   42  C   UNL     1      43.157 -18.076   3.098  1.00  0.00    -0.005 A 
HETATM   43  C   UNL     1      41.793 -18.113   2.787  1.00  0.00     0.014 A 
HETATM   44  C   UNL     1      41.330 -17.581   1.582  1.00  0.00     0.001 A 
HETATM   45  C   UNL     1      42.225 -17.007   0.681  1.00  0.00     0.000 A 
HETATM   46  C   UNL     1      43.585 -16.958   0.987  1.00  0.00     0.001 A 
HETATM   47  C   UNL     1      44.049 -17.485   2.192  1.00  0.00     0.014 A 
ENDBRANCH  33  42
ENDBRANCH  26  29
ENDBRANCH   1  25
TORSDOF 9
ENDMDL
MODEL 4
REMARK VINA RESULT:      -8.9      4.705      6.567
REMARK  9 active torsions:
REMARK  status: ('A' for Active; 'I' for Inactive)
REMARK    1  A    between atoms: N_2  and  C_5 
REMARK    2  A    between atoms: C_10  and  N_11 
REMARK       I    between atoms: N_11  and  C_12 
REMARK    3  A    between atoms: C_12  and  C_14 
REMARK    4  A    between atoms: C_18  and  C_19 
REMARK    5  A    between atoms: C_19  and  N_20 
REMARK       I    between atoms: N_20  and  C_21 
REMARK    6  A    between atoms: C_21  and  C_23 
REMARK    7  A    between atoms: N_26  and  C_34 
REMARK    8  A    between atoms: C_27  and  C_28 
REMARK    9  A    between atoms: C_38  and  N_39 
ROOT
HETATM    1  C   UNL     1      42.089 -10.897   9.987  1.00  0.00     0.161 C 
ENDROOT
BRANCH   1   2
HETATM    2  C   UNL     1      43.437 -11.350   9.489  1.00  0.00    -0.040 A 
HETATM    3  C   UNL     1      44.606 -10.769  10.001  1.00  0.00     0.009 A 
HETATM    4  C   UNL     1      45.859 -11.203   9.572  1.00  0.00     0.002 A 
HETATM    5  C   UNL     1      45.956 -12.214   8.617  1.00  0.00     0.017 A 
HETATM    6  C   UNL     1      44.801 -12.801   8.082  1.00  0.00     0.033 A 
HETATM    7  C   UNL     1      43.542 -12.380   8.538  1.00  0.00     0.026 A 
BRANCH   6   8
HETATM    8  C   UNL     1      44.978 -13.875   7.055  1.00  0.00     0.257 C 
HETATM    9  N   UNL     1      44.302 -15.051   7.301  1.00  0.00    -0.301 N 
HETATM   10  H   UNL     1      43.707 -15.143   8.110  1.00  0.00     0.171 HD
HETATM   11  O   UNL     1      45.672 -13.624   6.077  1.00  0.00    -0.267 OA
BRANCH   9  12
HETATM   12  C   UNL     1      44.279 -16.165   6.499  1.00  0.00     0.174 A 
HETATM   13  N   UNL     1      43.663 -16.157   5.334  1.00  0.00    -0.228 NA
HETATM   14  C   UNL     1      43.794 -17.387   4.734  1.00  0.00     0.050 A 
HETATM   15  C   UNL     1      43.203 -17.670   3.394  1.00  0.00     0.062 C 
HETATM   16  C   UNL     1      44.540 -18.305   5.441  1.00  0.00     0.013 A 
HETATM   17  C   UNL     1      43.206 -19.184   3.095  1.00  0.00     0.039 C 
HETATM   18  C   UNL     1      44.556 -19.830   3.491  1.00  0.00     0.192 C 
HETATM   19  C   UNL     1      44.841 -19.699   5.009  1.00  0.00     0.081 C 
HETATM   20  S   UNL     1      45.045 -17.636   6.916  1.00  0.00    -0.055 SA
BRANCH  18  21
HETATM   21  N   UNL     1      44.618 -21.278   2.998  1.00  0.00    -0.074 N 
HETATM   22  C   UNL     1      44.537 -22.278   4.128  1.00  0.00     0.269 C 
HETATM   23  H   UNL     1      45.563 -21.398   2.607  1.00  0.00     0.279 HD
HETATM   24  C   UNL     1      43.672 -21.648   1.884  1.00  0.00     0.269 C 
ENDBRANCH  18  21
ENDBRANCH   9  12
ENDBRANCH   6   8
ENDBRANCH   1   2
BRANCH   1  25
HETATM   25  N   UNL     1      41.322 -10.293   8.929  1.00  0.00    -0.351 N 
HETATM   26  C   UNL     1      40.010 -10.654   8.708  1.00  0.00     0.274 C 
HETATM   27  O   UNL     1      39.387 -11.378   9.476  1.00  0.00    -0.266 OA
HETATM   28  H   UNL     1      41.798  -9.788   8.189  1.00  0.00     0.163 HD
BRANCH  26  29
HETATM   29  C   UNL     1      39.465 -10.110   7.469  1.00  0.00     0.177 A 
HETATM   30  N   UNL     1      38.712  -8.963   7.460  1.00  0.00    -0.124 NA
HETATM   31  N   UNL     1      38.354  -8.711   6.215  1.00  0.00    -0.058 NA
HETATM   32  N   UNL     1      38.889  -9.663   5.392  1.00  0.00    -0.188 N 
HETATM   33  C   UNL     1      39.575 -10.600   6.174  1.00  0.00     0.109 A 
BRANCH  32  34
HETATM   34  C   UNL     1      38.727  -9.592   3.985  1.00  0.00     0.230 A 
HETATM   35  N   UNL     1      39.776  -9.614   3.162  1.00  0.00    -0.081 NA
HETATM   36  O   UNL     1      39.216  -9.504   1.891  1.00  0.00    -0.103 OA
HETATM   37  N   UNL     1      37.829  -9.414   1.957  1.00  0.00    -0.083 NA
HETATM   38  C   UNL     1      37.530  -9.471   3.253  1.00  0.00     0.201 A 
BRANCH  38  39
HETATM   39  N   UNL     1      36.277  -9.425   3.744  1.00  0.00    -0.379 N 
HETATM   40  H   UNL     1      35.754  -8.557   3.696  1.00  0.00     0.158 HD
HETATM   41  H   UNL     1      35.950 -10.085   4.446  1.00  0.00     0.158 HD
ENDBRANCH  38  39
ENDBRANCH  32  34
BRANCH  33  42
HETATM   42  C   UNL     1      40.218 -11.812   5.680  1.00  0.00    -0.005 A 
HETATM   43  C   UNL     1      39.488 -12.999   5.546  1.00  0.00     0.014 A 
HETATM   44  C   UNL     1      40.106 -14.156   5.066  1.00  0.00     0.001 A 
HETATM   45  C   UNL     1      41.455 -14.134   4.714  1.00  0.00     0.000 A 
HETATM   46  C   UNL     1      42.187 -12.954   4.836  1.00  0.00     0.001 A 
HETATM   47  C   UNL     1      41.571 -11.795   5.312  1.00  0.00     0.014 A 
ENDBRANCH  33  42
ENDBRANCH  26  29
ENDBRANCH   1  25
TORSDOF 9
ENDMDL
MODEL 5
REMARK VINA RESULT:      -8.6      3.628     10.077
REMARK  9 active torsions:
REMARK  status: ('A' for Active; 'I' for Inactive)
REMARK    1  A    between atoms: N_2  and  C_5 
REMARK    2  A    between atoms: C_10  and  N_11 
REMARK       I    between atoms: N_11  and  C_12 
REMARK    3  A    between atoms: C_12  and  C_14 
REMARK    4  A    between atoms: C_18  and  C_19 
REMARK    5  A    between atoms: C_19  and  N_20 
REMARK       I    between atoms: N_20  and  C_21 
REMARK    6  A    between atoms: C_21  and  C_23 
REMARK    7  A    between atoms: N_26  and  C_34 
REMARK    8  A    between atoms: C_27  and  C_28 
REMARK    9  A    between atoms: C_38  and  N_39 
ROOT
HETATM    1  C   UNL     1      41.491 -13.652   5.233  1.00  0.00     0.161 C 
ENDROOT
BRANCH   1   2
HETATM    2  C   UNL     1      40.954 -13.689   3.826  1.00  0.00    -0.040 A 
HETATM    3  C   UNL     1      39.808 -14.442   3.531  1.00  0.00     0.009 A 
HETATM    4  C   UNL     1      39.282 -14.456   2.241  1.00  0.00     0.002 A 
HETATM    5  C   UNL     1      39.904 -13.727   1.227  1.00  0.00     0.017 A 
HETATM    6  C   UNL     1      41.057 -12.976   1.496  1.00  0.00     0.033 A 
HETATM    7  C   UNL     1      41.566 -12.943   2.803  1.00  0.00     0.026 A 
BRANCH   6   8
HETATM    8  C   UNL     1      41.677 -12.224   0.361  1.00  0.00     0.257 C 
HETATM    9  N   UNL     1      40.887 -12.077  -0.758  1.00  0.00    -0.301 N 
HETATM   10  H   UNL     1      39.943 -12.433  -0.772  1.00  0.00     0.171 HD
HETATM   11  O   UNL     1      42.808 -11.778   0.519  1.00  0.00    -0.267 OA
BRANCH   9  12
HETATM   12  C   UNL     1      41.215 -11.405  -1.909  1.00  0.00     0.174 A 
HETATM   13  N   UNL     1      41.437 -10.106  -1.904  1.00  0.00    -0.228 NA
HETATM   14  C   UNL     1      41.749  -9.685  -3.176  1.00  0.00     0.050 A 
HETATM   15  C   UNL     1      42.060  -8.257  -3.472  1.00  0.00     0.062 C 
HETATM   16  C   UNL     1      41.791 -10.683  -4.126  1.00  0.00     0.013 A 
HETATM   17  C   UNL     1      42.054  -7.992  -4.993  1.00  0.00     0.039 C 
HETATM   18  C   UNL     1      42.794  -9.115  -5.759  1.00  0.00     0.192 C 
HETATM   19  C   UNL     1      42.115 -10.496  -5.568  1.00  0.00     0.081 C 
HETATM   20  S   UNL     1      41.379 -12.173  -3.428  1.00  0.00    -0.055 SA
BRANCH  18  21
HETATM   21  N   UNL     1      42.960  -8.734  -7.233  1.00  0.00    -0.074 N 
HETATM   22  C   UNL     1      41.671  -8.249  -7.854  1.00  0.00     0.269 C 
HETATM   23  H   UNL     1      43.177  -9.612  -7.725  1.00  0.00     0.279 HD
HETATM   24  C   UNL     1      44.098  -7.800  -7.558  1.00  0.00     0.269 C 
ENDBRANCH  18  21
ENDBRANCH   9  12
ENDBRANCH   6   8
ENDBRANCH   1   2
BRANCH   1  25
HETATM   25  N   UNL     1      42.118 -14.901   5.580  1.00  0.00    -0.351 N 
HETATM   26  C   UNL     1      43.487 -14.995   5.710  1.00  0.00     0.274 C 
HETATM   27  O   UNL     1      44.221 -14.013   5.690  1.00  0.00    -0.266 OA
HETATM   28  H   UNL     1      41.597 -15.766   5.490  1.00  0.00     0.163 HD
BRANCH  26  29
HETATM   29  C   UNL     1      43.959 -16.370   5.844  1.00  0.00     0.177 A 
HETATM   30  N   UNL     1      44.644 -16.787   6.956  1.00  0.00    -0.124 NA
HETATM   31  N   UNL     1      44.945 -18.063   6.804  1.00  0.00    -0.058 NA
HETATM   32  N   UNL     1      44.438 -18.506   5.613  1.00  0.00    -0.188 N 
HETATM   33  C   UNL     1      43.833 -17.429   4.954  1.00  0.00     0.109 A 
BRANCH  32  34
HETATM   34  C   UNL     1      44.548 -19.867   5.229  1.00  0.00     0.230 A 
HETATM   35  N   UNL     1      45.053 -20.218   4.047  1.00  0.00    -0.081 NA
HETATM   36  O   UNL     1      44.971 -21.608   4.039  1.00  0.00    -0.103 OA
HETATM   37  N   UNL     1      44.413 -22.087   5.220  1.00  0.00    -0.083 NA
HETATM   38  C   UNL     1      44.154 -21.008   5.955  1.00  0.00     0.201 A 
BRANCH  38  39
HETATM   39  N   UNL     1      43.612 -21.043   7.187  1.00  0.00    -0.379 N 
HETATM   40  H   UNL     1      43.452 -20.175   7.687  1.00  0.00     0.158 HD
HETATM   41  H   UNL     1      43.665 -21.873   7.774  1.00  0.00     0.158 HD
ENDBRANCH  38  39
ENDBRANCH  32  34
BRANCH  33  42
HETATM   42  C   UNL     1      43.244 -17.471   3.620  1.00  0.00    -0.005 A 
HETATM   43  C   UNL     1      44.052 -17.353   2.483  1.00  0.00     0.014 A 
HETATM   44  C   UNL     1      43.484 -17.402   1.208  1.00  0.00     0.001 A 
HETATM   45  C   UNL     1      42.108 -17.571   1.061  1.00  0.00     0.000 A 
HETATM   46  C   UNL     1      41.298 -17.698   2.188  1.00  0.00     0.001 A 
HETATM   47  C   UNL     1      41.863 -17.655   3.463  1.00  0.00     0.014 A 
ENDBRANCH  33  42
ENDBRANCH  26  29
ENDBRANCH   1  25
TORSDOF 9
ENDMDL
MODEL 6
REMARK VINA RESULT:      -8.5      3.854     10.286
REMARK  9 active torsions:
REMARK  status: ('A' for Active; 'I' for Inactive)
REMARK    1  A    between atoms: N_2  and  C_5 
REMARK    2  A    between atoms: C_10  and  N_11 
REMARK       I    between atoms: N_11  and  C_12 
REMARK    3  A    between atoms: C_12  and  C_14 
REMARK    4  A    between atoms: C_18  and  C_19 
REMARK    5  A    between atoms: C_19  and  N_20 
REMARK       I    between atoms: N_20  and  C_21 
REMARK    6  A    between atoms: C_21  and  C_23 
REMARK    7  A    between atoms: N_26  and  C_34 
REMARK    8  A    between atoms: C_27  and  C_28 
REMARK    9  A    between atoms: C_38  and  N_39 
ROOT
HETATM    1  C   UNL     1      41.134 -15.257   5.830  1.00  0.00     0.161 C 
ENDROOT
BRANCH   1   2
HETATM    2  C   UNL     1      41.144 -14.522   4.516  1.00  0.00    -0.040 A 
HETATM    3  C   UNL     1      42.340 -13.977   4.025  1.00  0.00     0.009 A 
HETATM    4  C   UNL     1      42.368 -13.324   2.795  1.00  0.00     0.002 A 
HETATM    5  C   UNL     1      41.198 -13.197   2.047  1.00  0.00     0.017 A 
HETATM    6  C   UNL     1      39.989 -13.723   2.523  1.00  0.00     0.033 A 
HETATM    7  C   UNL     1      39.971 -14.405   3.749  1.00  0.00     0.026 A 
BRANCH   6   8
HETATM    8  C   UNL     1      38.771 -13.545   1.672  1.00  0.00     0.257 C 
HETATM    9  N   UNL     1      38.526 -12.258   1.245  1.00  0.00    -0.301 N 
HETATM   10  H   UNL     1      39.162 -11.510   1.476  1.00  0.00     0.171 HD
HETATM   11  O   UNL     1      38.111 -14.541   1.400  1.00  0.00    -0.267 OA
BRANCH   9  12
HETATM   12  C   UNL     1      37.497 -11.846   0.435  1.00  0.00     0.174 A 
HETATM   13  N   UNL     1      36.341 -11.463   0.939  1.00  0.00    -0.228 NA
HETATM   14  C   UNL     1      35.492 -11.097  -0.079  1.00  0.00     0.050 A 
HETATM   15  C   UNL     1      34.109 -10.609   0.193  1.00  0.00     0.062 C 
HETATM   16  C   UNL     1      36.031 -11.177  -1.345  1.00  0.00     0.013 A 
HETATM   17  C   UNL     1      33.267 -10.577  -1.100  1.00  0.00     0.039 C 
HETATM   18  C   UNL     1      34.074  -9.981  -2.278  1.00  0.00     0.192 C 
HETATM   19  C   UNL     1      35.329 -10.828  -2.612  1.00  0.00     0.081 C 
HETATM   20  S   UNL     1      37.617 -11.774  -1.269  1.00  0.00    -0.055 SA
BRANCH  18  21
HETATM   21  N   UNL     1      33.164  -9.764  -3.491  1.00  0.00    -0.074 N 
HETATM   22  C   UNL     1      33.527  -8.522  -4.271  1.00  0.00     0.269 C 
HETATM   23  H   UNL     1      32.229  -9.571  -3.106  1.00  0.00     0.279 HD
HETATM   24  C   UNL     1      32.984 -10.944  -4.412  1.00  0.00     0.269 C 
ENDBRANCH  18  21
ENDBRANCH   9  12
ENDBRANCH   6   8
ENDBRANCH   1   2
BRANCH   1  25
HETATM   25  N   UNL     1      41.730 -16.562   5.698  1.00  0.00    -0.351 N 
HETATM   26  C   UNL     1      43.032 -16.790   6.087  1.00  0.00     0.274 C 
HETATM   27  O   UNL     1      43.694 -15.957   6.696  1.00  0.00    -0.266 OA
HETATM   28  H   UNL     1      41.293 -17.254   5.100  1.00  0.00     0.163 HD
BRANCH  26  29
HETATM   29  C   UNL     1      43.534 -18.097   5.678  1.00  0.00     0.177 A 
HETATM   30  N   UNL     1      44.088 -18.967   6.581  1.00  0.00    -0.124 NA
HETATM   31  N   UNL     1      44.453 -20.059   5.937  1.00  0.00    -0.058 NA
HETATM   32  N   UNL     1      44.119 -19.935   4.617  1.00  0.00    -0.188 N 
HETATM   33  C   UNL     1      43.562 -18.667   4.412  1.00  0.00     0.109 A 
BRANCH  32  34
HETATM   34  C   UNL     1      44.327 -21.000   3.703  1.00  0.00     0.230 A 
HETATM   35  N   UNL     1      44.044 -20.870   2.407  1.00  0.00    -0.081 NA
HETATM   36  O   UNL     1      44.358 -22.113   1.862  1.00  0.00    -0.103 OA
HETATM   37  N   UNL     1      44.829 -22.987   2.837  1.00  0.00    -0.083 NA
HETATM   38  C   UNL     1      44.810 -22.295   3.975  1.00  0.00     0.201 A 
BRANCH  38  39
HETATM   39  N   UNL     1      45.203 -22.784   5.166  1.00  0.00    -0.379 N 
HETATM   40  H   UNL     1      44.775 -22.433   6.016  1.00  0.00     0.158 HD
HETATM   41  H   UNL     1      46.112 -23.225   5.292  1.00  0.00     0.158 HD
ENDBRANCH  38  39
ENDBRANCH  32  34
BRANCH  33  42
HETATM   42  C   UNL     1      43.150 -18.118   3.124  1.00  0.00    -0.005 A 
HETATM   43  C   UNL     1      41.800 -18.119   2.752  1.00  0.00     0.014 A 
HETATM   44  C   UNL     1      41.409 -17.585   1.522  1.00  0.00     0.001 A 
HETATM   45  C   UNL     1      42.361 -17.045   0.659  1.00  0.00     0.000 A 
HETATM   46  C   UNL     1      43.706 -17.032   1.026  1.00  0.00     0.001 A 
HETATM   47  C   UNL     1      44.099 -17.561   2.257  1.00  0.00     0.014 A 
ENDBRANCH  33  42
ENDBRANCH  26  29
ENDBRANCH   1  25
TORSDOF 9
ENDMDL
MODEL 7
REMARK VINA RESULT:      -8.5      1.715      2.390
REMARK  9 active torsions:
REMARK  status: ('A' for Active; 'I' for Inactive)
REMARK    1  A    between atoms: N_2  and  C_5 
REMARK    2  A    between atoms: C_10  and  N_11 
REMARK       I    between atoms: N_11  and  C_12 
REMARK    3  A    between atoms: C_12  and  C_14 
REMARK    4  A    between atoms: C_18  and  C_19 
REMARK    5  A    between atoms: C_19  and  N_20 
REMARK       I    between atoms: N_20  and  C_21 
REMARK    6  A    between atoms: C_21  and  C_23 
REMARK    7  A    between atoms: N_26  and  C_34 
REMARK    8  A    between atoms: C_27  and  C_28 
REMARK    9  A    between atoms: C_38  and  N_39 
ROOT
HETATM    1  C   UNL     1      40.416  -9.037   3.207  1.00  0.00     0.161 C 
ENDROOT
BRANCH   1   2
HETATM    2  C   UNL     1      40.804 -10.112   4.187  1.00  0.00    -0.040 A 
HETATM    3  C   UNL     1      40.399 -10.020   5.527  1.00  0.00     0.009 A 
HETATM    4  C   UNL     1      40.723 -11.025   6.436  1.00  0.00     0.002 A 
HETATM    5  C   UNL     1      41.465 -12.129   6.018  1.00  0.00     0.017 A 
HETATM    6  C   UNL     1      41.891 -12.237   4.686  1.00  0.00     0.033 A 
HETATM    7  C   UNL     1      41.538 -11.236   3.768  1.00  0.00     0.026 A 
BRANCH   6   8
HETATM    8  C   UNL     1      42.690 -13.444   4.307  1.00  0.00     0.257 C 
HETATM    9  N   UNL     1      42.166 -14.654   4.703  1.00  0.00    -0.301 N 
HETATM   10  H   UNL     1      41.281 -14.699   5.185  1.00  0.00     0.171 HD
HETATM   11  O   UNL     1      43.717 -13.271   3.660  1.00  0.00    -0.267 OA
BRANCH   9  12
HETATM   12  C   UNL     1      42.692 -15.897   4.450  1.00  0.00     0.174 A 
HETATM   13  N   UNL     1      43.265 -16.604   5.403  1.00  0.00    -0.228 NA
HETATM   14  C   UNL     1      43.699 -17.804   4.891  1.00  0.00     0.050 A 
HETATM   15  C   UNL     1      44.382 -18.818   5.746  1.00  0.00     0.062 C 
HETATM   16  C   UNL     1      43.418 -18.004   3.556  1.00  0.00     0.013 A 
HETATM   17  C   UNL     1      45.049 -19.911   4.884  1.00  0.00     0.039 C 
HETATM   18  C   UNL     1      44.112 -20.373   3.743  1.00  0.00     0.192 C 
HETATM   19  C   UNL     1      43.768 -19.218   2.767  1.00  0.00     0.081 C 
HETATM   20  S   UNL     1      42.641 -16.641   2.911  1.00  0.00    -0.055 SA
BRANCH  18  21
HETATM   21  N   UNL     1      44.701 -21.595   3.032  1.00  0.00    -0.074 N 
HETATM   22  C   UNL     1      44.754 -22.814   3.924  1.00  0.00     0.269 C 
HETATM   23  H   UNL     1      45.686 -21.361   2.846  1.00  0.00     0.279 HD
HETATM   24  C   UNL     1      44.109 -21.938   1.689  1.00  0.00     0.269 C 
ENDBRANCH  18  21
ENDBRANCH   9  12
ENDBRANCH   6   8
ENDBRANCH   1   2
BRANCH   1  25
HETATM   25  N   UNL     1      40.581  -9.490   1.850  1.00  0.00    -0.351 N 
HETATM   26  C   UNL     1      39.494  -9.650   1.018  1.00  0.00     0.274 C 
HETATM   27  O   UNL     1      38.367  -9.279   1.326  1.00  0.00    -0.266 OA
HETATM   28  H   UNL     1      41.452  -9.926   1.569  1.00  0.00     0.163 HD
BRANCH  26  29
HETATM   29  C   UNL     1      39.822 -10.322  -0.235  1.00  0.00     0.177 A 
HETATM   30  N   UNL     1      40.235  -9.620  -1.338  1.00  0.00    -0.124 NA
HETATM   31  N   UNL     1      40.458 -10.477  -2.317  1.00  0.00    -0.058 NA
HETATM   32  N   UNL     1      40.227 -11.747  -1.864  1.00  0.00    -0.188 N 
HETATM   33  C   UNL     1      39.778 -11.677  -0.540  1.00  0.00     0.109 A 
BRANCH  32  34
HETATM   34  C   UNL     1      40.465 -12.875  -2.689  1.00  0.00     0.230 A 
HETATM   35  N   UNL     1      39.479 -13.463  -3.366  1.00  0.00    -0.081 NA
HETATM   36  O   UNL     1      40.099 -14.523  -4.023  1.00  0.00    -0.103 OA
HETATM   37  N   UNL     1      41.459 -14.568  -3.736  1.00  0.00    -0.083 NA
HETATM   38  C   UNL     1      41.683 -13.546  -2.912  1.00  0.00     0.201 A 
BRANCH  38  39
HETATM   39  N   UNL     1      42.890 -13.234  -2.403  1.00  0.00    -0.379 N 
HETATM   40  H   UNL     1      43.681 -13.120  -3.029  1.00  0.00     0.158 HD
HETATM   41  H   UNL     1      43.132 -13.431  -1.435  1.00  0.00     0.158 HD
ENDBRANCH  38  39
ENDBRANCH  32  34
BRANCH  33  42
HETATM   42  C   UNL     1      39.349 -12.809   0.274  1.00  0.00    -0.005 A 
HETATM   43  C   UNL     1      38.037 -13.290   0.185  1.00  0.00     0.014 A 
HETATM   44  C   UNL     1      37.633 -14.379   0.960  1.00  0.00     0.001 A 
HETATM   45  C   UNL     1      38.535 -14.996   1.825  1.00  0.00     0.000 A 
HETATM   46  C   UNL     1      39.846 -14.529   1.912  1.00  0.00     0.001 A 
HETATM   47  C   UNL     1      40.254 -13.444   1.135  1.00  0.00     0.014 A 
ENDBRANCH  33  42
ENDBRANCH  26  29
ENDBRANCH   1  25
TORSDOF 9
ENDMDL
MODEL 8
REMARK VINA RESULT:      -8.5      3.377      9.164
REMARK  9 active torsions:
REMARK  status: ('A' for Active; 'I' for Inactive)
REMARK    1  A    between atoms: N_2  and  C_5 
REMARK    2  A    between atoms: C_10  and  N_11 
REMARK       I    between atoms: N_11  and  C_12 
REMARK    3  A    between atoms: C_12  and  C_14 
REMARK    4  A    between atoms: C_18  and  C_19 
REMARK    5  A    between atoms: C_19  and  N_20 
REMARK       I    between atoms: N_20  and  C_21 
REMARK    6  A    between atoms: C_21  and  C_23 
REMARK    7  A    between atoms: N_26  and  C_34 
REMARK    8  A    between atoms: C_27  and  C_28 
REMARK    9  A    between atoms: C_38  and  N_39 
ROOT
HETATM    1  C   UNL     1      44.655 -16.205   6.899  1.00  0.00     0.161 C 
ENDROOT
BRANCH   1   2
HETATM    2  C   UNL     1      44.080 -17.036   5.783  1.00  0.00    -0.040 A 
HETATM    3  C   UNL     1      44.330 -18.416   5.734  1.00  0.00     0.009 A 
HETATM    4  C   UNL     1      43.775 -19.200   4.725  1.00  0.00     0.002 A 
HETATM    5  C   UNL     1      42.975 -18.613   3.746  1.00  0.00     0.017 A 
HETATM    6  C   UNL     1      42.720 -17.234   3.769  1.00  0.00     0.033 A 
HETATM    7  C   UNL     1      43.257 -16.453   4.802  1.00  0.00     0.026 A 
BRANCH   6   8
HETATM    8  C   UNL     1      41.858 -16.669   2.684  1.00  0.00     0.257 C 
HETATM    9  N   UNL     1      42.513 -15.914   1.736  1.00  0.00    -0.301 N 
HETATM   10  H   UNL     1      43.514 -15.794   1.775  1.00  0.00     0.171 HD
HETATM   11  O   UNL     1      40.663 -16.939   2.702  1.00  0.00    -0.267 OA
BRANCH   9  12
HETATM   12  C   UNL     1      41.953 -15.318   0.633  1.00  0.00     0.174 A 
HETATM   13  N   UNL     1      41.553 -16.031  -0.400  1.00  0.00    -0.228 NA
HETATM   14  C   UNL     1      41.029 -15.199  -1.361  1.00  0.00     0.050 A 
HETATM   15  C   UNL     1      40.485 -15.731  -2.644  1.00  0.00     0.062 C 
HETATM   16  C   UNL     1      41.009 -13.862  -1.027  1.00  0.00     0.013 A 
HETATM   17  C   UNL     1      40.264 -14.595  -3.666  1.00  0.00     0.039 C 
HETATM   18  C   UNL     1      39.600 -13.365  -3.001  1.00  0.00     0.192 C 
HETATM   19  C   UNL     1      40.486 -12.760  -1.882  1.00  0.00     0.081 C 
HETATM   20  S   UNL     1      41.711 -13.631   0.500  1.00  0.00    -0.055 SA
BRANCH  18  21
HETATM   21  N   UNL     1      39.200 -12.337  -4.063  1.00  0.00    -0.074 N 
HETATM   22  C   UNL     1      37.785 -11.839  -3.881  1.00  0.00     0.269 C 
HETATM   23  H   UNL     1      39.187 -12.849  -4.956  1.00  0.00     0.279 HD
HETATM   24  C   UNL     1      40.151 -11.187  -4.273  1.00  0.00     0.269 C 
ENDBRANCH  18  21
ENDBRANCH   9  12
ENDBRANCH   6   8
ENDBRANCH   1   2
BRANCH   1  25
HETATM   25  N   UNL     1      43.870 -15.017   7.117  1.00  0.00    -0.351 N 
HETATM   26  C   UNL     1      44.386 -13.767   6.851  1.00  0.00     0.274 C 
HETATM   27  O   UNL     1      45.460 -13.604   6.283  1.00  0.00    -0.266 OA
HETATM   28  H   UNL     1      43.035 -15.065   7.691  1.00  0.00     0.163 HD
BRANCH  26  29
HETATM   29  C   UNL     1      43.541 -12.681   7.337  1.00  0.00     0.177 A 
HETATM   30  N   UNL     1      43.927 -11.886   8.385  1.00  0.00    -0.124 NA
HETATM   31  N   UNL     1      42.976 -10.998   8.605  1.00  0.00    -0.058 NA
HETATM   32  N   UNL     1      41.974 -11.176   7.692  1.00  0.00    -0.188 N 
HETATM   33  C   UNL     1      42.290 -12.277   6.887  1.00  0.00     0.109 A 
BRANCH  32  34
HETATM   34  C   UNL     1      40.856 -10.304   7.649  1.00  0.00     0.230 A 
HETATM   35  N   UNL     1      40.932  -9.103   7.075  1.00  0.00    -0.081 NA
HETATM   36  O   UNL     1      39.664  -8.557   7.255  1.00  0.00    -0.103 OA
HETATM   37  N   UNL     1      38.829  -9.435   7.940  1.00  0.00    -0.083 NA
HETATM   38  C   UNL     1      39.570 -10.515   8.181  1.00  0.00     0.201 A 
BRANCH  38  39
HETATM   39  N   UNL     1      39.123 -11.611   8.822  1.00  0.00    -0.379 N 
HETATM   40  H   UNL     1      38.363 -12.150   8.421  1.00  0.00     0.158 HD
HETATM   41  H   UNL     1      39.262 -11.743   9.822  1.00  0.00     0.158 HD
ENDBRANCH  38  39
ENDBRANCH  32  34
BRANCH  33  42
HETATM   42  C   UNL     1      41.439 -12.840   5.845  1.00  0.00    -0.005 A 
HETATM   43  C   UNL     1      40.641 -13.960   6.107  1.00  0.00     0.014 A 
HETATM   44  C   UNL     1      39.822 -14.491   5.108  1.00  0.00     0.001 A 
HETATM   45  C   UNL     1      39.794 -13.907   3.843  1.00  0.00     0.000 A 
HETATM   46  C   UNL     1      40.579 -12.787   3.576  1.00  0.00     0.001 A 
HETATM   47  C   UNL     1      41.394 -12.251   4.574  1.00  0.00     0.014 A 
ENDBRANCH  33  42
ENDBRANCH  26  29
ENDBRANCH   1  25
TORSDOF 9
ENDMDL
MODEL 9
REMARK VINA RESULT:      -8.4      2.228      2.945
REMARK  9 active torsions:
REMARK  status: ('A' for Active; 'I' for Inactive)
REMARK    1  A    between atoms: N_2  and  C_5 
REMARK    2  A    between atoms: C_10  and  N_11 
REMARK       I    between atoms: N_11  and  C_12 
REMARK    3  A    between atoms: C_12  and  C_14 
REMARK    4  A    between atoms: C_18  and  C_19 
REMARK    5  A    between atoms: C_19  and  N_20 
REMARK       I    between atoms: N_20  and  C_21 
REMARK    6  A    between atoms: C_21  and  C_23 
REMARK    7  A    between atoms: N_26  and  C_34 
REMARK    8  A    between atoms: C_27  and  C_28 
REMARK    9  A    between atoms: C_38  and  N_39 
ROOT
HETATM    1  C   UNL     1      41.774 -10.412  -1.411  1.00  0.00     0.161 C 
ENDROOT
BRANCH   1   2
HETATM    2  C   UNL     1      41.455 -10.883  -0.016  1.00  0.00    -0.040 A 
HETATM    3  C   UNL     1      40.434 -10.262   0.718  1.00  0.00     0.009 A 
HETATM    4  C   UNL     1      40.107 -10.711   1.996  1.00  0.00     0.002 A 
HETATM    5  C   UNL     1      40.806 -11.778   2.559  1.00  0.00     0.017 A 
HETATM    6  C   UNL     1      41.839 -12.406   1.848  1.00  0.00     0.033 A 
HETATM    7  C   UNL     1      42.145 -11.969   0.551  1.00  0.00     0.026 A 
BRANCH   6   8
HETATM    8  C   UNL     1      42.552 -13.540   2.516  1.00  0.00     0.257 C 
HETATM    9  N   UNL     1      41.991 -14.785   2.337  1.00  0.00    -0.301 N 
HETATM   10  H   UNL     1      41.171 -14.902   1.760  1.00  0.00     0.171 HD
HETATM   11  O   UNL     1      43.579 -13.285   3.134  1.00  0.00    -0.267 OA
BRANCH   9  12
HETATM   12  C   UNL     1      42.472 -15.977   2.818  1.00  0.00     0.174 A 
HETATM   13  N   UNL     1      43.067 -16.844   2.024  1.00  0.00    -0.228 NA
HETATM   14  C   UNL     1      43.457 -17.945   2.752  1.00  0.00     0.050 A 
HETATM   15  C   UNL     1      44.167 -19.091   2.115  1.00  0.00     0.062 C 
HETATM   16  C   UNL     1      43.179 -17.881   4.100  1.00  0.00     0.013 A 
HETATM   17  C   UNL     1      44.200 -20.315   3.056  1.00  0.00     0.039 C 
HETATM   18  C   UNL     1      44.556 -19.898   4.503  1.00  0.00     0.192 C 
HETATM   19  C   UNL     1      43.506 -18.930   5.106  1.00  0.00     0.081 C 
HETATM   20  S   UNL     1      42.364 -16.437   4.461  1.00  0.00    -0.055 SA
BRANCH  18  21
HETATM   21  N   UNL     1      44.790 -21.137   5.372  1.00  0.00    -0.074 N 
HETATM   22  C   UNL     1      43.897 -21.165   6.591  1.00  0.00     0.269 C 
HETATM   23  H   UNL     1      45.744 -21.039   5.746  1.00  0.00     0.279 HD
HETATM   24  C   UNL     1      44.770 -22.466   4.661  1.00  0.00     0.269 C 
ENDBRANCH  18  21
ENDBRANCH   9  12
ENDBRANCH   6   8
ENDBRANCH   1   2
BRANCH   1  25
HETATM   25  N   UNL     1      40.753 -10.820  -2.341  1.00  0.00    -0.351 N 
HETATM   26  C   UNL     1      39.842  -9.913  -2.837  1.00  0.00     0.274 C 
HETATM   27  O   UNL     1      39.938  -8.706  -2.642  1.00  0.00    -0.266 OA
HETATM   28  H   UNL     1      40.538 -11.805  -2.450  1.00  0.00     0.163 HD
BRANCH  26  29
HETATM   29  C   UNL     1      38.756 -10.539  -3.584  1.00  0.00     0.177 A 
HETATM   30  N   UNL     1      38.496 -10.204  -4.888  1.00  0.00    -0.124 NA
HETATM   31  N   UNL     1      37.468 -10.919  -5.304  1.00  0.00    -0.058 NA
HETATM   32  N   UNL     1      37.061 -11.749  -4.297  1.00  0.00    -0.188 N 
HETATM   33  C   UNL     1      37.845 -11.500  -3.164  1.00  0.00     0.109 A 
BRANCH  32  34
HETATM   34  C   UNL     1      36.018 -12.689  -4.497  1.00  0.00     0.230 A 
HETATM   35  N   UNL     1      34.737 -12.320  -4.487  1.00  0.00    -0.081 NA
HETATM   36  O   UNL     1      34.037 -13.507  -4.691  1.00  0.00    -0.103 OA
HETATM   37  N   UNL     1      34.904 -14.588  -4.822  1.00  0.00    -0.083 NA
HETATM   38  C   UNL     1      36.128 -14.078  -4.702  1.00  0.00     0.201 A 
BRANCH  38  39
HETATM   39  N   UNL     1      37.260 -14.803  -4.780  1.00  0.00    -0.379 N 
HETATM   40  H   UNL     1      38.012 -14.490  -5.385  1.00  0.00     0.158 HD
HETATM   41  H   UNL     1      37.283 -15.792  -4.542  1.00  0.00     0.158 HD
ENDBRANCH  38  39
ENDBRANCH  32  34
BRANCH  33  42
HETATM   42  C   UNL     1      37.673 -12.125  -1.857  1.00  0.00    -0.005 A 
HETATM   43  C   UNL     1      38.357 -13.304  -1.539  1.00  0.00     0.014 A 
HETATM   44  C   UNL     1      38.195 -13.894  -0.283  1.00  0.00     0.001 A 
HETATM   45  C   UNL     1      37.353 -13.310   0.662  1.00  0.00     0.000 A 
HETATM   46  C   UNL     1      36.676 -12.131   0.355  1.00  0.00     0.001 A 
HETATM   47  C   UNL     1      36.839 -11.536  -0.897  1.00  0.00     0.014 A 
ENDBRANCH  33  42
ENDBRANCH  26  29
ENDBRANCH   1  25
TORSDOF 9
ENDMDL
MODEL 10
REMARK VINA RESULT:      -8.4      5.035      9.256
REMARK  9 active torsions:
REMARK  status: ('A' for Active; 'I' for Inactive)
REMARK    1  A    between atoms: N_2  and  C_5 
REMARK    2  A    between atoms: C_10  and  N_11 
REMARK       I    between atoms: N_11  and  C_12 
REMARK    3  A    between atoms: C_12  and  C_14 
REMARK    4  A    between atoms: C_18  and  C_19 
REMARK    5  A    between atoms: C_19  and  N_20 
REMARK       I    between atoms: N_20  and  C_21 
REMARK    6  A    between atoms: C_21  and  C_23 
REMARK    7  A    between atoms: N_26  and  C_34 
REMARK    8  A    between atoms: C_27  and  C_28 
REMARK    9  A    between atoms: C_38  and  N_39 
ROOT
HETATM    1  C   UNL     1      41.474  -9.635   5.095  1.00  0.00     0.161 C 
ENDROOT
BRANCH   1   2
HETATM    2  C   UNL     1      40.645 -10.612   4.304  1.00  0.00    -0.040 A 
HETATM    3  C   UNL     1      39.509 -10.169   3.611  1.00  0.00     0.009 A 
HETATM    4  C   UNL     1      38.753 -11.058   2.848  1.00  0.00     0.002 A 
HETATM    5  C   UNL     1      39.117 -12.402   2.781  1.00  0.00     0.017 A 
HETATM    6  C   UNL     1      40.242 -12.870   3.476  1.00  0.00     0.033 A 
HETATM    7  C   UNL     1      41.016 -11.966   4.219  1.00  0.00     0.026 A 
BRANCH   6   8
HETATM    8  C   UNL     1      40.571 -14.326   3.366  1.00  0.00     0.257 C 
HETATM    9  N   UNL     1      41.852 -14.676   3.733  1.00  0.00    -0.301 N 
HETATM   10  H   UNL     1      42.495 -13.982   4.082  1.00  0.00     0.171 HD
HETATM   11  O   UNL     1      39.685 -15.087   2.995  1.00  0.00    -0.267 OA
BRANCH   9  12
HETATM   12  C   UNL     1      42.381 -15.942   3.751  1.00  0.00     0.174 A 
HETATM   13  N   UNL     1      42.674 -16.577   2.634  1.00  0.00    -0.228 NA
HETATM   14  C   UNL     1      43.192 -17.817   2.929  1.00  0.00     0.050 A 
HETATM   15  C   UNL     1      43.623 -18.759   1.856  1.00  0.00     0.062 C 
HETATM   16  C   UNL     1      43.315 -18.092   4.273  1.00  0.00     0.013 A 
HETATM   17  C   UNL     1      43.854 -20.176   2.422  1.00  0.00     0.039 C 
HETATM   18  C   UNL     1      44.633 -20.124   3.759  1.00  0.00     0.192 C 
HETATM   19  C   UNL     1      43.856 -19.352   4.856  1.00  0.00     0.081 C 
HETATM   20  S   UNL     1      42.722 -16.796   5.193  1.00  0.00    -0.055 SA
BRANCH  18  21
HETATM   21  N   UNL     1      45.034 -21.536   4.197  1.00  0.00    -0.074 N 
HETATM   22  C   UNL     1      44.634 -21.834   5.624  1.00  0.00     0.269 C 
HETATM   23  H   UNL     1      46.063 -21.543   4.203  1.00  0.00     0.279 HD
HETATM   24  C   UNL     1      44.629 -22.662   3.280  1.00  0.00     0.269 C 
ENDBRANCH  18  21
ENDBRANCH   9  12
ENDBRANCH   6   8
ENDBRANCH   1   2
BRANCH   1  25
HETATM   25  N   UNL     1      40.998  -9.529   6.450  1.00  0.00    -0.351 N 
HETATM   26  C   UNL     1      41.381  -8.479   7.257  1.00  0.00     0.274 C 
HETATM   27  O   UNL     1      42.010  -7.516   6.832  1.00  0.00    -0.266 OA
HETATM   28  H   UNL     1      40.583 -10.337   6.901  1.00  0.00     0.163 HD
BRANCH  26  29
HETATM   29  C   UNL     1      40.986  -8.651   8.651  1.00  0.00     0.177 A 
HETATM   30  N   UNL     1      39.875  -8.031   9.163  1.00  0.00    -0.124 NA
HETATM   31  N   UNL     1      39.764  -8.362  10.435  1.00  0.00    -0.058 NA
HETATM   32  N   UNL     1      40.774  -9.222  10.766  1.00  0.00    -0.188 N 
HETATM   33  C   UNL     1      41.600  -9.396   9.649  1.00  0.00     0.109 A 
BRANCH  32  34
HETATM   34  C   UNL     1      40.852  -9.801  12.059  1.00  0.00     0.230 A 
HETATM   35  N   UNL     1      41.393  -9.143  13.084  1.00  0.00    -0.081 NA
HETATM   36  O   UNL     1      41.303 -10.037  14.149  1.00  0.00    -0.103 OA
HETATM   37  N   UNL     1      40.709 -11.232  13.756  1.00  0.00    -0.083 NA
HETATM   38  C   UNL     1      40.429 -11.082  12.463  1.00  0.00     0.201 A 
BRANCH  38  39
HETATM   39  N   UNL     1      39.833 -12.020  11.703  1.00  0.00    -0.379 N 
HETATM   40  H   UNL     1      40.086 -12.105  10.724  1.00  0.00     0.158 HD
HETATM   41  H   UNL     1      38.927 -12.414  11.949  1.00  0.00     0.158 HD
ENDBRANCH  38  39
ENDBRANCH  32  34
BRANCH  33  42
HETATM   42  C   UNL     1      42.832 -10.177   9.616  1.00  0.00    -0.005 A 
HETATM   43  C   UNL     1      43.863  -9.916  10.526  1.00  0.00     0.014 A 
HETATM   44  C   UNL     1      45.037 -10.671  10.496  1.00  0.00     0.001 A 
HETATM   45  C   UNL     1      45.188 -11.692   9.559  1.00  0.00     0.000 A 
HETATM   46  C   UNL     1      44.162 -11.965   8.655  1.00  0.00     0.001 A 
HETATM   47  C   UNL     1      42.986 -11.214   8.686  1.00  0.00     0.014 A 
ENDBRANCH  33  42
ENDBRANCH  26  29
ENDBRANCH   1  25
TORSDOF 9
ENDMDL
